REMARK VINA RESULT:    -9.030      0.000      0.000
REMARK INTER + INTRA:         -11.702
REMARK INTER:                  -9.030
REMARK INTRA:                  -2.671
REMARK UNBOUND:                -2.671
REMARK  0 active torsions:
REMARK  status: ('A' for Active; 'I' for Inactive)
REMARK       I    between atoms: C6_6  and  C7_7 
REMARK       I    between atoms: C8_8  and  C9_9 
REMARK       I    between atoms: C10_10  and  C11_11 
REMARK       I    between atoms: C12_16  and  C13_17 
REMARK       I    between atoms: C14_18  and  C15_19 
REMARK       I    between atoms: C16_20  and  C17_21 
REMARK       I    between atoms: C18_22  and  C19_23 
REMARK       I    between atoms: C20_24  and  C21_25 
REMARK       I    between atoms: C22_26  and  C23_27 
REMARK       I    between atoms: C24_28  and  C25_29 
ROOT
HETATM    1  C1  BCR B 618     -32.242 130.121   7.448  1.00 25.69    -0.020 C 
HETATM    2  C2  BCR B 618     -31.444 129.055   6.751  1.00 30.07     0.014 C 
HETATM    3  C3  BCR B 618     -32.111 128.583   5.472  1.00 28.38     0.005 C 
HETATM    4  C4  BCR B 618     -33.521 128.079   5.624  1.00 25.71     0.034 C 
HETATM    5  C5  BCR B 618     -34.292 128.903   6.604  1.00 24.46    -0.077 C 
HETATM    6  C6  BCR B 618     -33.701 129.713   7.478  1.00 26.24    -0.048 C 
HETATM    7  C7  BCR B 618     -34.545 130.372   8.503  1.00 27.12     0.009 C 
HETATM    8  C8  BCR B 618     -35.027 131.622   8.229  1.00 26.98     0.007 C 
HETATM    9  C9  BCR B 618     -35.984 132.276   9.161  1.00 24.53    -0.062 C 
HETATM   10  C10 BCR B 618     -36.650 133.418   8.840  1.00 24.97     0.007 C 
HETATM   11  C11 BCR B 618     -37.607 134.147   9.648  1.00 25.62     0.001 C 
HETATM   12  C33 BCR B 618     -35.758 128.620   6.678  1.00 29.99     0.044 C 
HETATM   13  C31 BCR B 618     -32.046 131.462   6.797  1.00 31.89     0.020 C 
HETATM   14  C32 BCR B 618     -31.683 130.133   8.897  1.00 28.38     0.020 C 
HETATM   15  C34 BCR B 618     -36.205 131.646  10.481  1.00 33.15     0.048 C 
HETATM   16  C12 BCR B 618     -38.145 135.310   9.143  1.00 26.13     0.007 C 
HETATM   17  C13 BCR B 618     -39.170 136.076   9.882  1.00 22.67    -0.062 C 
HETATM   18  C14 BCR B 618     -39.746 137.180   9.297  1.00 24.59     0.007 C 
HETATM   19  C15 BCR B 618     -40.818 137.981   9.921  1.00 24.70     0.001 C 
HETATM   20  C16 BCR B 618     -41.365 138.964   9.158  1.00 24.56     0.001 C 
HETATM   21  C17 BCR B 618     -42.456 139.739   9.657  1.00 24.82     0.007 C 
HETATM   22  C18 BCR B 618     -43.192 140.704   9.014  1.00 24.84    -0.062 C 
HETATM   23  C19 BCR B 618     -44.288 141.378   9.769  1.00 26.41     0.007 C 
HETATM   24  C20 BCR B 618     -45.197 142.290   9.262  1.00 24.04     0.001 C 
HETATM   25  C21 BCR B 618     -46.232 142.777  10.148  1.00 21.42     0.007 C 
HETATM   26  C22 BCR B 618     -47.257 143.564   9.744  1.00 21.83    -0.062 C 
HETATM   27  C23 BCR B 618     -48.210 143.966  10.784  1.00 24.43     0.007 C 
HETATM   28  C24 BCR B 618     -49.183 144.847  10.552  1.00 24.88     0.009 C 
HETATM   29  C25 BCR B 618     -50.059 145.441  11.584  1.00 27.45    -0.048 C 
HETATM   30  C26 BCR B 618     -50.578 144.765  12.611  1.00 30.30    -0.077 C 
HETATM   31  C27 BCR B 618     -51.505 145.396  13.652  1.00 34.06     0.034 C 
HETATM   32  C28 BCR B 618     -51.995 146.768  13.280  1.00 34.26     0.005 C 
HETATM   33  C29 BCR B 618     -50.865 147.597  12.666  1.00 31.13     0.014 C 
HETATM   34  C30 BCR B 618     -50.292 146.945  11.423  1.00 27.47    -0.020 C 
HETATM   35  C35 BCR B 618     -39.587 135.627  11.255  1.00 24.37     0.048 C 
HETATM   36  C36 BCR B 618     -42.951 141.155   7.620  1.00 25.76     0.048 C 
HETATM   37  C37 BCR B 618     -47.440 143.940   8.324  1.00 22.43     0.048 C 
HETATM   38  C38 BCR B 618     -50.436 143.292  12.779  1.00 29.80     0.044 C 
HETATM   39  C39 BCR B 618     -48.952 147.676  11.254  1.00 24.87     0.020 C 
HETATM   40  C40 BCR B 618     -51.149 147.184  10.180  1.00 29.70     0.020 C 
ENDROOT
TORSDOF 10
