REMARK VINA RESULT:    -8.905      0.000      0.000
REMARK INTER + INTRA:         -13.288
REMARK INTER:                  -8.905
REMARK INTRA:                  -4.382
REMARK UNBOUND:                -4.382
REMARK  0 active torsions:
REMARK  status: ('A' for Active; 'I' for Inactive)
REMARK       I    between atoms: C6_6  and  C7_7 
REMARK       I    between atoms: C8_8  and  C9_9 
REMARK       I    between atoms: C10_10  and  C11_11 
REMARK       I    between atoms: C12_16  and  C13_17 
REMARK       I    between atoms: C14_18  and  C15_19 
REMARK       I    between atoms: C16_20  and  C17_21 
REMARK       I    between atoms: C18_22  and  C19_23 
REMARK       I    between atoms: C20_24  and  C21_25 
REMARK       I    between atoms: C22_26  and  C23_27 
REMARK       I    between atoms: C24_28  and  C25_29 
ROOT
HETATM    1  C1  BCR T 101     -33.732 128.688   5.998  1.00 36.92    -0.020 C 
HETATM    2  C2  BCR T 101     -32.653 127.727   5.458  1.00 34.03     0.014 C 
HETATM    3  C3  BCR T 101     -32.286 126.674   6.516  1.00 38.91     0.005 C 
HETATM    4  C4  BCR T 101     -33.513 125.850   6.819  1.00 38.67     0.034 C 
HETATM    5  C5  BCR T 101     -34.618 126.741   7.324  1.00 37.96    -0.077 C 
HETATM    6  C6  BCR T 101     -34.714 128.042   6.976  1.00 35.98    -0.048 C 
HETATM    7  C7  BCR T 101     -35.886 128.796   7.528  1.00 38.69     0.009 C 
HETATM    8  C8  BCR T 101     -36.227 130.091   7.337  1.00 40.68     0.007 C 
HETATM    9  C9  BCR T 101     -37.454 130.673   7.961  1.00 41.20    -0.062 C 
HETATM   10  C10 BCR T 101     -37.682 131.995   7.752  1.00 40.60     0.007 C 
HETATM   11  C11 BCR T 101     -38.775 132.800   8.298  1.00 39.10     0.001 C 
HETATM   12  C33 BCR T 101     -35.622 126.085   8.235  1.00 39.44     0.044 C 
HETATM   13  C31 BCR T 101     -34.501 129.098   4.736  1.00 29.76     0.020 C 
HETATM   14  C32 BCR T 101     -33.085 129.898   6.697  1.00 41.10     0.020 C 
HETATM   15  C34 BCR T 101     -38.439 129.810   8.731  1.00 36.28     0.048 C 
HETATM   16  C12 BCR T 101     -38.975 134.075   7.897  1.00 37.08     0.007 C 
HETATM   17  C13 BCR T 101     -39.991 134.972   8.516  1.00 38.99    -0.062 C 
HETATM   18  C14 BCR T 101     -39.695 136.291   8.427  1.00 36.34     0.007 C 
HETATM   19  C15 BCR T 101     -40.421 137.413   9.017  1.00 33.98     0.001 C 
HETATM   20  C16 BCR T 101     -40.686 138.570   8.430  1.00 32.43     0.001 C 
HETATM   21  C17 BCR T 101     -41.360 139.580   9.257  1.00 28.67     0.007 C 
HETATM   22  C18 BCR T 101     -41.553 140.862   8.907  1.00 27.82    -0.062 C 
HETATM   23  C19 BCR T 101     -42.163 141.771   9.906  1.00 25.96     0.007 C 
HETATM   24  C20 BCR T 101     -42.383 143.069   9.702  1.00 24.20     0.001 C 
HETATM   25  C21 BCR T 101     -42.869 143.819  10.869  1.00 24.32     0.007 C 
HETATM   26  C22 BCR T 101     -43.003 145.179  10.884  1.00 27.00    -0.062 C 
HETATM   27  C23 BCR T 101     -43.393 145.777  12.165  1.00 25.69     0.007 C 
HETATM   28  C24 BCR T 101     -43.691 147.085  12.381  1.00 23.30     0.009 C 
HETATM   29  C25 BCR T 101     -43.981 147.506  13.796  1.00 24.05    -0.048 C 
HETATM   30  C26 BCR T 101     -45.012 146.973  14.466  1.00 22.56    -0.077 C 
HETATM   31  C27 BCR T 101     -45.383 147.332  15.912  1.00 22.64     0.034 C 
HETATM   32  C28 BCR T 101     -44.199 148.017  16.612  1.00 22.89     0.005 C 
HETATM   33  C29 BCR T 101     -43.754 149.155  15.703  1.00 23.67     0.014 C 
HETATM   34  C30 BCR T 101     -43.111 148.600  14.433  1.00 24.85    -0.020 C 
HETATM   35  C35 BCR T 101     -41.213 134.468   9.255  1.00 38.69     0.048 C 
HETATM   36  C36 BCR T 101     -41.088 141.407   7.586  1.00 23.59     0.048 C 
HETATM   37  C37 BCR T 101     -42.732 146.127   9.725  1.00 24.19     0.048 C 
HETATM   38  C38 BCR T 101     -45.863 145.967  13.801  1.00 22.31     0.044 C 
HETATM   39  C39 BCR T 101     -41.707 148.101  14.791  1.00 23.45     0.020 C 
HETATM   40  C40 BCR T 101     -43.098 149.798  13.441  1.00 22.18     0.020 C 
ENDROOT
TORSDOF 10
