REMARK VINA RESULT:    -8.254      1.690     16.443
REMARK INTER + INTRA:         -10.926
REMARK INTER:                  -8.144
REMARK INTRA:                  -2.781
REMARK UNBOUND:                -2.671
REMARK  0 active torsions:
REMARK  status: ('A' for Active; 'I' for Inactive)
REMARK       I    between atoms: C6_6  and  C7_7 
REMARK       I    between atoms: C8_8  and  C9_9 
REMARK       I    between atoms: C10_10  and  C11_11 
REMARK       I    between atoms: C12_16  and  C13_17 
REMARK       I    between atoms: C14_18  and  C15_19 
REMARK       I    between atoms: C16_20  and  C17_21 
REMARK       I    between atoms: C18_22  and  C19_23 
REMARK       I    between atoms: C20_24  and  C21_25 
REMARK       I    between atoms: C22_26  and  C23_27 
REMARK       I    between atoms: C24_28  and  C25_29 
ROOT
HETATM    1  C1  BCR B 618     -50.063 148.919   8.943  1.00 25.69    -0.020 C 
HETATM    2  C2  BCR B 618     -51.261 149.742   9.326  1.00 30.07     0.014 C 
HETATM    3  C3  BCR B 618     -52.117 149.058  10.376  1.00 28.38     0.005 C 
HETATM    4  C4  BCR B 618     -52.600 147.678  10.020  1.00 25.71     0.034 C 
HETATM    5  C5  BCR B 618     -51.548 146.901   9.297  1.00 24.46    -0.077 C 
HETATM    6  C6  BCR B 618     -50.493 147.481   8.730  1.00 26.24    -0.048 C 
HETATM    7  C7  BCR B 618     -49.587 146.642   7.911  1.00 27.12     0.009 C 
HETATM    8  C8  BCR B 618     -48.494 146.094   8.523  1.00 26.98     0.007 C 
HETATM    9  C9  BCR B 618     -47.624 145.138   7.787  1.00 24.53    -0.062 C 
HETATM   10  C10 BCR B 618     -46.654 144.412   8.405  1.00 24.97     0.007 C 
HETATM   11  C11 BCR B 618     -45.749 143.448   7.809  1.00 25.62     0.001 C 
HETATM   12  C33 BCR B 618     -51.845 145.453   9.078  1.00 29.99     0.044 C 
HETATM   13  C31 BCR B 618     -48.972 149.033   9.971  1.00 31.89     0.020 C 
HETATM   14  C32 BCR B 618     -49.599 149.522   7.589  1.00 28.38     0.020 C 
HETATM   15  C34 BCR B 618     -47.837 144.988   6.332  1.00 33.15     0.048 C 
HETATM   16  C12 BCR B 618     -44.809 142.842   8.613  1.00 26.13     0.007 C 
HETATM   17  C13 BCR B 618     -43.893 141.807   8.091  1.00 22.67    -0.062 C 
HETATM   18  C14 BCR B 618     -43.034 141.163   8.952  1.00 24.59     0.007 C 
HETATM   19  C15 BCR B 618     -42.120 140.076   8.549  1.00 24.70     0.001 C 
HETATM   20  C16 BCR B 618     -41.430 139.460   9.545  1.00 24.56     0.001 C 
HETATM   21  C17 BCR B 618     -40.579 138.352   9.252  1.00 24.82     0.007 C 
HETATM   22  C18 BCR B 618     -39.876 137.553  10.120  1.00 24.84    -0.062 C 
HETATM   23  C19 BCR B 618     -39.045 136.451   9.553  1.00 26.41     0.007 C 
HETATM   24  C20 BCR B 618     -38.358 135.487  10.269  1.00 24.04     0.001 C 
HETATM   25  C21 BCR B 618     -37.664 134.458   9.523  1.00 21.42     0.007 C 
HETATM   26  C22 BCR B 618     -37.069 133.386  10.098  1.00 21.83    -0.062 C 
HETATM   27  C23 BCR B 618     -36.407 132.450   9.184  1.00 24.43     0.007 C 
HETATM   28  C24 BCR B 618     -35.670 131.431   9.625  1.00 24.88     0.009 C 
HETATM   29  C25 BCR B 618     -34.824 130.561   8.779  1.00 27.45    -0.048 C 
HETATM   30  C26 BCR B 618     -35.180 130.106   7.575  1.00 30.30    -0.077 C 
HETATM   31  C27 BCR B 618     -34.299 129.184   6.730  1.00 34.06     0.034 C 
HETATM   32  C28 BCR B 618     -33.118 128.621   7.472  1.00 34.26     0.005 C 
HETATM   33  C29 BCR B 618     -32.473 129.693   8.354  1.00 31.13     0.014 C 
HETATM   34  C30 BCR B 618     -33.447 130.255   9.370  1.00 27.47    -0.020 C 
HETATM   35  C35 BCR B 618     -43.925 141.454   6.630  1.00 24.37     0.048 C 
HETATM   36  C36 BCR B 618     -39.855 137.729  11.594  1.00 25.76     0.048 C 
HETATM   37  C37 BCR B 618     -37.142 133.142  11.556  1.00 22.43     0.048 C 
HETATM   38  C38 BCR B 618     -36.530 130.321   6.984  1.00 29.80     0.044 C 
HETATM   39  C39 BCR B 618     -32.754 131.555   9.807  1.00 24.87     0.020 C 
HETATM   40  C40 BCR B 618     -33.620 129.350  10.589  1.00 29.70     0.020 C 
ENDROOT
TORSDOF 10
