REMARK VINA RESULT:    -7.641      1.603     16.575
REMARK INTER + INTRA:         -10.244
REMARK INTER:                  -9.297
REMARK INTRA:                  -0.948
REMARK UNBOUND:                -2.604
REMARK  0 active torsions:
REMARK  status: ('A' for Active; 'I' for Inactive)
REMARK       I    between atoms: C6_6  and  C7_7 
REMARK       I    between atoms: C8_8  and  C9_9 
REMARK       I    between atoms: C10_10  and  C11_11 
REMARK       I    between atoms: C12_16  and  C13_17 
REMARK       I    between atoms: C14_18  and  C15_19 
REMARK       I    between atoms: C16_20  and  C17_21 
REMARK       I    between atoms: C18_22  and  C19_23 
REMARK       I    between atoms: C20_24  and  C21_25 
REMARK       I    between atoms: C22_26  and  C23_27 
REMARK       I    between atoms: C24_28  and  C25_29 
ROOT
HETATM    1  C1  BCR B 618     -51.057 147.061  10.154  1.00 27.36    -0.020 C 
HETATM    2  C2  BCR B 618     -51.686 148.337  10.733  1.00 29.24     0.014 C 
HETATM    3  C3  BCR B 618     -50.885 148.880  11.919  1.00 30.20     0.005 C 
HETATM    4  C4  BCR B 618     -50.696 147.892  13.050  1.00 26.75     0.034 C 
HETATM    5  C5  BCR B 618     -50.460 146.495  12.571  1.00 26.89    -0.077 C 
HETATM    6  C6  BCR B 618     -50.648 146.099  11.266  1.00 26.00    -0.048 C 
HETATM    7  C7  BCR B 618     -50.436 144.667  10.932  1.00 23.65     0.009 C 
HETATM    8  C8  BCR B 618     -49.240 144.208  10.462  1.00 23.63     0.007 C 
HETATM    9  C9  BCR B 618     -49.050 142.784  10.118  1.00 27.01    -0.062 C 
HETATM   10  C10 BCR B 618     -47.827 142.302   9.849  1.00 25.20     0.007 C 
HETATM   11  C11 BCR B 618     -47.532 140.913   9.510  1.00 28.58     0.001 C 
HETATM   12  C33 BCR B 618     -50.111 145.477  13.629  1.00 28.44     0.044 C 
HETATM   13  C31 BCR B 618     -49.865 147.400   9.258  1.00 28.24     0.020 C 
HETATM   14  C32 BCR B 618     -52.179 146.439   9.246  1.00 26.34     0.020 C 
HETATM   15  C34 BCR B 618     -50.266 141.875   9.999  1.00 27.67     0.048 C 
HETATM   16  C12 BCR B 618     -46.240 140.707   9.129  1.00 27.69     0.007 C 
HETATM   17  C13 BCR B 618     -45.710 139.351   8.893  1.00 26.09    -0.062 C 
HETATM   18  C14 BCR B 618     -44.369 139.158   8.645  1.00 26.27     0.007 C 
HETATM   19  C15 BCR B 618     -43.778 137.794   8.521  1.00 24.53     0.001 C 
HETATM   20  C16 BCR B 618     -42.452 137.717   8.322  1.00 25.46     0.001 C 
HETATM   21  C17 BCR B 618     -41.826 136.403   8.245  1.00 26.22     0.007 C 
HETATM   22  C18 BCR B 618     -40.491 136.156   8.202  1.00 26.11    -0.062 C 
HETATM   23  C19 BCR B 618     -40.041 134.739   8.122  1.00 24.69     0.007 C 
HETATM   24  C20 BCR B 618     -38.729 134.328   8.104  1.00 23.86     0.001 C 
HETATM   25  C21 BCR B 618     -38.465 132.892   8.023  1.00 20.93     0.007 C 
HETATM   26  C22 BCR B 618     -37.247 132.309   8.232  1.00 20.93    -0.062 C 
HETATM   27  C23 BCR B 618     -37.195 130.858   8.047  1.00 23.42     0.007 C 
HETATM   28  C24 BCR B 618     -36.035 130.184   8.117  1.00 24.63     0.009 C 
HETATM   29  C25 BCR B 618     -35.956 128.711   7.854  1.00 27.79    -0.048 C 
HETATM   30  C26 BCR B 618     -36.780 127.746   8.353  1.00 29.36    -0.077 C 
HETATM   31  C27 BCR B 618     -36.614 126.245   8.023  1.00 30.45     0.034 C 
HETATM   32  C28 BCR B 618     -35.276 125.850   7.356  1.00 28.93     0.005 C 
HETATM   33  C29 BCR B 618     -34.890 126.913   6.315  1.00 28.29     0.014 C 
HETATM   34  C30 BCR B 618     -34.772 128.341   6.902  1.00 29.32    -0.020 C 
HETATM   35  C35 BCR B 618     -46.635 138.227   9.115  1.00 23.34     0.048 C 
HETATM   36  C36 BCR B 618     -39.452 137.228   8.203  1.00 27.04     0.048 C 
HETATM   37  C37 BCR B 618     -35.979 133.065   8.666  1.00 22.71     0.048 C 
HETATM   38  C38 BCR B 618     -37.965 128.010   9.230  1.00 27.49     0.044 C 
HETATM   39  C39 BCR B 618     -34.792 129.264   5.668  1.00 24.52     0.020 C 
HETATM   40  C40 BCR B 618     -33.466 128.584   7.683  1.00 27.42     0.020 C 
ENDROOT
TORSDOF 10
