REMARK VINA RESULT:    -8.250      1.139     16.270
REMARK INTER + INTRA:         -11.066
REMARK INTER:                  -8.112
REMARK INTRA:                  -2.954
REMARK UNBOUND:                -2.816
REMARK  0 active torsions:
REMARK  status: ('A' for Active; 'I' for Inactive)
REMARK       I    between atoms: C6_6  and  C7_7 
REMARK       I    between atoms: C8_8  and  C9_9 
REMARK       I    between atoms: C10_10  and  C11_11 
REMARK       I    between atoms: C12_16  and  C13_17 
REMARK       I    between atoms: C14_18  and  C15_19 
REMARK       I    between atoms: C16_20  and  C17_21 
REMARK       I    between atoms: C18_22  and  C19_23 
REMARK       I    between atoms: C20_24  and  C21_25 
REMARK       I    between atoms: C22_26  and  C23_27 
REMARK       I    between atoms: C24_28  and  C25_29 
ROOT
HETATM    1  C1  BCR K 101     -33.359 130.841   9.466  1.00 40.27    -0.020 C 
HETATM    2  C2  BCR K 101     -32.097 130.351   8.788  1.00 46.17     0.014 C 
HETATM    3  C3  BCR K 101     -32.354 129.298   7.756  1.00 46.00     0.005 C 
HETATM    4  C4  BCR K 101     -33.406 129.723   6.769  1.00 50.16     0.034 C 
HETATM    5  C5  BCR K 101     -34.610 130.269   7.437  1.00 47.62    -0.077 C 
HETATM    6  C6  BCR K 101     -34.599 130.809   8.635  1.00 41.18    -0.048 C 
HETATM    7  C7  BCR K 101     -35.833 131.305   9.227  1.00 43.29     0.009 C 
HETATM    8  C8  BCR K 101     -36.523 132.326   8.724  1.00 42.58     0.007 C 
HETATM    9  C9  BCR K 101     -37.642 132.934   9.428  1.00 48.65    -0.062 C 
HETATM   10  C10 BCR K 101     -38.354 133.914   8.859  1.00 45.45     0.007 C 
HETATM   11  C11 BCR K 101     -39.022 134.930   9.628  1.00 51.34     0.001 C 
HETATM   12  C33 BCR K 101     -35.857 130.211   6.644  1.00 47.03     0.044 C 
HETATM   13  C31 BCR K 101     -32.998 132.234   9.977  1.00 48.55     0.020 C 
HETATM   14  C32 BCR K 101     -33.572 129.952  10.657  1.00 47.52     0.020 C 
HETATM   15  C34 BCR K 101     -37.809 132.594  10.859  1.00 49.90     0.048 C 
HETATM   16  C12 BCR K 101     -40.078 135.591   9.135  1.00 52.29     0.007 C 
HETATM   17  C13 BCR K 101     -40.537 136.835   9.714  1.00 57.82    -0.062 C 
HETATM   18  C14 BCR K 101     -41.477 137.548   9.069  1.00 56.99     0.007 C 
HETATM   19  C15 BCR K 101     -41.972 138.839   9.488  1.00 53.84     0.001 C 
HETATM   20  C16 BCR K 101     -42.664 139.616   8.641  1.00 48.03     0.001 C 
HETATM   21  C17 BCR K 101     -43.490 140.627   9.250  1.00 52.48     0.007 C 
HETATM   22  C18 BCR K 101     -43.727 141.860   8.781  1.00 57.46    -0.062 C 
HETATM   23  C19 BCR K 101     -45.045 142.448   9.015  1.00 53.57     0.007 C 
HETATM   24  C20 BCR K 101     -45.368 143.725   8.794  1.00 52.13     0.001 C 
HETATM   25  C21 BCR K 101     -46.471 144.310   9.523  1.00 54.30     0.007 C 
HETATM   26  C22 BCR K 101     -46.942 145.566   9.419  1.00 56.80    -0.062 C 
HETATM   27  C23 BCR K 101     -48.090 145.950  10.223  1.00 54.97     0.007 C 
HETATM   28  C24 BCR K 101     -48.737 147.101  10.053  1.00 52.41     0.009 C 
HETATM   29  C25 BCR K 101     -50.057 147.354  10.597  1.00 54.04    -0.048 C 
HETATM   30  C26 BCR K 101     -51.143 146.775  10.075  1.00 63.10    -0.077 C 
HETATM   31  C27 BCR K 101     -52.538 146.951  10.538  1.00 64.10     0.034 C 
HETATM   32  C28 BCR K 101     -52.600 147.642  11.880  1.00 68.43     0.005 C 
HETATM   33  C29 BCR K 101     -51.579 148.750  11.967  1.00 60.58     0.014 C 
HETATM   34  C30 BCR K 101     -50.154 148.271  11.762  1.00 50.92    -0.020 C 
HETATM   35  C35 BCR K 101     -39.656 137.478  10.718  1.00 62.47     0.048 C 
HETATM   36  C36 BCR K 101     -42.597 142.707   8.340  1.00 61.37     0.048 C 
HETATM   37  C37 BCR K 101     -46.209 146.655   8.736  1.00 59.71     0.048 C 
HETATM   38  C38 BCR K 101     -51.079 145.858   8.922  1.00 58.32     0.044 C 
HETATM   39  C39 BCR K 101     -49.644 147.570  13.011  1.00 63.29     0.020 C 
HETATM   40  C40 BCR K 101     -49.303 149.528  11.577  1.00 51.15     0.020 C 
ENDROOT
TORSDOF 10
