REMARK VINA RESULT:    -6.862      0.807     16.111
REMARK INTER + INTRA:         -11.410
REMARK INTER:                  -7.729
REMARK INTRA:                  -3.681
REMARK UNBOUND:                -4.549
REMARK  0 active torsions:
REMARK  status: ('A' for Active; 'I' for Inactive)
REMARK       I    between atoms: C6_6  and  C7_7 
REMARK       I    between atoms: C8_8  and  C9_9 
REMARK       I    between atoms: C10_10  and  C11_11 
REMARK       I    between atoms: C12_16  and  C13_17 
REMARK       I    between atoms: C14_18  and  C15_19 
REMARK       I    between atoms: C16_20  and  C17_21 
REMARK       I    between atoms: C18_22  and  C19_23 
REMARK       I    between atoms: C20_24  and  C21_25 
REMARK       I    between atoms: C22_26  and  C23_27 
REMARK       I    between atoms: C24_28  and  C25_29 
ROOT
HETATM    1  C1  BCR K 101     -47.627 145.196  12.091  1.00 53.78    -0.020 C 
HETATM    2  C2  BCR K 101     -48.023 146.397  12.927  1.00 52.63     0.014 C 
HETATM    3  C3  BCR K 101     -46.772 147.082  13.438  1.00 48.62     0.005 C 
HETATM    4  C4  BCR K 101     -45.982 147.669  12.287  1.00 47.69     0.034 C 
HETATM    5  C5  BCR K 101     -46.037 146.788  11.066  1.00 49.41    -0.077 C 
HETATM    6  C6  BCR K 101     -46.643 145.606  11.027  1.00 51.74    -0.048 C 
HETATM    7  C7  BCR K 101     -46.358 144.679   9.909  1.00 48.65     0.009 C 
HETATM    8  C8  BCR K 101     -45.495 143.675  10.069  1.00 52.02     0.007 C 
HETATM    9  C9  BCR K 101     -45.143 142.701   9.015  1.00 47.61    -0.062 C 
HETATM   10  C10 BCR K 101     -44.467 141.596   9.360  1.00 50.88     0.007 C 
HETATM   11  C11 BCR K 101     -44.036 140.576   8.407  1.00 48.28     0.001 C 
HETATM   12  C33 BCR K 101     -45.370 147.280   9.830  1.00 47.21     0.044 C 
HETATM   13  C31 BCR K 101     -48.829 144.568  11.404  1.00 51.09     0.020 C 
HETATM   14  C32 BCR K 101     -46.980 144.190  13.030  1.00 55.13     0.020 C 
HETATM   15  C34 BCR K 101     -45.526 142.936   7.591  1.00 45.70     0.048 C 
HETATM   16  C12 BCR K 101     -43.245 139.626   8.892  1.00 55.39     0.007 C 
HETATM   17  C13 BCR K 101     -42.653 138.526   8.104  1.00 52.90    -0.062 C 
HETATM   18  C14 BCR K 101     -41.937 137.591   8.755  1.00 52.56     0.007 C 
HETATM   19  C15 BCR K 101     -41.266 136.475   8.087  1.00 51.27     0.001 C 
HETATM   20  C16 BCR K 101     -40.401 135.727   8.777  1.00 51.24     0.001 C 
HETATM   21  C17 BCR K 101     -39.695 134.618   8.135  1.00 52.13     0.007 C 
HETATM   22  C18 BCR K 101     -38.775 133.861   8.757  1.00 46.79    -0.062 C 
HETATM   23  C19 BCR K 101     -38.125 132.791   7.984  1.00 43.89     0.007 C 
HETATM   24  C20 BCR K 101     -36.956 132.240   8.315  1.00 44.27     0.001 C 
HETATM   25  C21 BCR K 101     -36.446 131.206   7.416  1.00 43.76     0.007 C 
HETATM   26  C22 BCR K 101     -35.473 130.319   7.691  1.00 47.16    -0.062 C 
HETATM   27  C23 BCR K 101     -35.135 129.368   6.623  1.00 46.79     0.007 C 
HETATM   28  C24 BCR K 101     -34.569 128.200   6.890  1.00 42.76     0.009 C 
HETATM   29  C25 BCR K 101     -34.272 127.276   5.783  1.00 46.43    -0.048 C 
HETATM   30  C26 BCR K 101     -35.256 126.789   5.015  1.00 46.40    -0.077 C 
HETATM   31  C27 BCR K 101     -35.024 126.312   3.605  1.00 46.16     0.034 C 
HETATM   32  C28 BCR K 101     -33.543 126.316   3.271  1.00 49.08     0.005 C 
HETATM   33  C29 BCR K 101     -32.728 125.851   4.464  1.00 48.65     0.014 C 
HETATM   34  C30 BCR K 101     -32.833 126.893   5.562  1.00 50.07    -0.020 C 
HETATM   35  C35 BCR K 101     -42.799 138.487   6.614  1.00 46.59     0.048 C 
HETATM   36  C36 BCR K 101     -38.405 134.093  10.188  1.00 47.08     0.048 C 
HETATM   37  C37 BCR K 101     -34.757 130.254   9.009  1.00 37.98     0.048 C 
HETATM   38  C38 BCR K 101     -36.653 126.669   5.538  1.00 46.50     0.044 C 
HETATM   39  C39 BCR K 101     -32.072 128.151   5.174  1.00 51.74     0.020 C 
HETATM   40  C40 BCR K 101     -32.272 126.342   6.862  1.00 46.40     0.020 C 
ENDROOT
TORSDOF 10
