REMARK VINA RESULT:    -9.373      0.000      0.000
REMARK INTER + INTRA:         -15.651
REMARK INTER:                  -9.373
REMARK INTRA:                  -6.278
REMARK UNBOUND:                -6.278
REMARK  0 active torsions:
REMARK  status: ('A' for Active; 'I' for Inactive)
REMARK       I    between atoms: C6_6  and  C7_7 
REMARK       I    between atoms: C8_8  and  C9_9 
REMARK       I    between atoms: C10_10  and  C11_11 
REMARK       I    between atoms: C12_16  and  C13_17 
REMARK       I    between atoms: C14_18  and  C15_19 
REMARK       I    between atoms: C16_20  and  C17_21 
REMARK       I    between atoms: C18_22  and  C19_23 
REMARK       I    between atoms: C20_24  and  C21_25 
REMARK       I    between atoms: C22_26  and  C23_27 
REMARK       I    between atoms: C24_28  and  C25_29 
ROOT
HETATM    1  C1  BCR B 619     -34.699 130.406   7.968  1.00 27.66    -0.020 C 
HETATM    2  C2  BCR B 619     -33.519 129.604   8.514  1.00 27.98     0.014 C 
HETATM    3  C3  BCR B 619     -33.000 130.208   9.806  1.00 25.52     0.005 C 
HETATM    4  C4  BCR B 619     -34.103 130.213  10.857  1.00 19.63     0.034 C 
HETATM    5  C5  BCR B 619     -35.398 130.820  10.351  1.00 32.40    -0.077 C 
HETATM    6  C6  BCR B 619     -35.676 130.910   9.031  1.00 20.68    -0.048 C 
HETATM    7  C7  BCR B 619     -36.960 131.505   8.512  1.00 20.08     0.009 C 
HETATM    8  C8  BCR B 619     -37.352 132.762   8.792  1.00 22.81     0.007 C 
HETATM    9  C9  BCR B 619     -38.586 133.390   8.279  1.00 20.22    -0.062 C 
HETATM   10  C10 BCR B 619     -38.904 134.633   8.706  1.00 19.06     0.007 C 
HETATM   11  C11 BCR B 619     -40.075 135.397   8.257  1.00 16.29     0.001 C 
HETATM   12  C33 BCR B 619     -36.361 131.302  11.416  1.00 23.77     0.044 C 
HETATM   13  C31 BCR B 619     -35.449 129.522   6.976  1.00 21.20     0.020 C 
HETATM   14  C32 BCR B 619     -34.154 131.625   7.248  1.00 23.33     0.020 C 
HETATM   15  C34 BCR B 619     -39.407 132.659   7.254  1.00 16.40     0.048 C 
HETATM   16  C12 BCR B 619     -40.166 136.697   8.587  1.00 25.63     0.007 C 
HETATM   17  C13 BCR B 619     -41.289 137.592   8.191  1.00 24.60    -0.062 C 
HETATM   18  C14 BCR B 619     -41.441 138.791   8.829  1.00 21.11     0.007 C 
HETATM   19  C15 BCR B 619     -42.483 139.800   8.558  1.00 20.94     0.001 C 
HETATM   20  C16 BCR B 619     -42.698 140.899   9.320  1.00 19.81     0.001 C 
HETATM   21  C17 BCR B 619     -43.765 141.841   8.926  1.00 20.06     0.007 C 
HETATM   22  C18 BCR B 619     -44.032 143.027   9.521  1.00 27.17    -0.062 C 
HETATM   23  C19 BCR B 619     -45.137 143.872   9.003  1.00 20.29     0.007 C 
HETATM   24  C20 BCR B 619     -45.576 145.021   9.560  1.00 21.61     0.001 C 
HETATM   25  C21 BCR B 619     -46.699 145.727   8.910  1.00 24.02     0.007 C 
HETATM   26  C22 BCR B 619     -47.390 146.748   9.466  1.00 35.60    -0.062 C 
HETATM   27  C23 BCR B 619     -48.416 147.325   8.786  1.00 23.38     0.007 C 
HETATM   28  C24 BCR B 619     -49.147 148.344   9.267  1.00 28.64     0.009 C 
HETATM   29  C25 BCR B 619     -50.279 149.047   8.574  1.00 39.14    -0.048 C 
HETATM   30  C26 BCR B 619     -51.487 148.478   8.359  1.00 29.93    -0.077 C 
HETATM   31  C27 BCR B 619     -52.600 149.228   7.685  1.00 21.81     0.034 C 
HETATM   32  C28 BCR B 619     -52.033 150.119   6.603  1.00 31.07     0.005 C 
HETATM   33  C29 BCR B 619     -51.039 151.095   7.196  1.00 46.92     0.014 C 
HETATM   34  C30 BCR B 619     -50.007 150.479   8.143  1.00 37.04    -0.020 C 
HETATM   35  C35 BCR B 619     -42.218 137.141   7.094  1.00 15.93     0.048 C 
HETATM   36  C36 BCR B 619     -43.260 143.503  10.714  1.00 15.91     0.048 C 
HETATM   37  C37 BCR B 619     -47.002 147.239  10.830  1.00 38.85     0.048 C 
HETATM   38  C38 BCR B 619     -51.804 147.074   8.769  1.00 32.51     0.044 C 
HETATM   39  C39 BCR B 619     -49.960 151.344   9.398  1.00 49.08     0.020 C 
HETATM   40  C40 BCR B 619     -48.650 150.536   7.461  1.00 46.61     0.020 C 
ENDROOT
TORSDOF 10
