REMARK VINA RESULT:    -6.748      3.540      5.353
REMARK INTER + INTRA:         -13.543
REMARK INTER:                 -11.857
REMARK INTRA:                  -1.686
REMARK UNBOUND:                -6.795
REMARK  0 active torsions:
REMARK  status: ('A' for Active; 'I' for Inactive)
REMARK       I    between atoms: C6_6  and  C7_7 
REMARK       I    between atoms: C8_8  and  C9_9 
REMARK       I    between atoms: C10_10  and  C11_11 
REMARK       I    between atoms: C12_16  and  C13_17 
REMARK       I    between atoms: C14_18  and  C15_19 
REMARK       I    between atoms: C16_20  and  C17_21 
REMARK       I    between atoms: C18_22  and  C19_23 
REMARK       I    between atoms: C20_24  and  C21_25 
REMARK       I    between atoms: C22_26  and  C23_27 
REMARK       I    between atoms: C24_28  and  C25_29 
ROOT
HETATM    1  C1  BCR H 101     -43.791 148.137  14.685  1.00 30.28    -0.020 C 
HETATM    2  C2  BCR H 101     -44.507 148.993  15.731  1.00 26.44     0.014 C 
HETATM    3  C3  BCR H 101     -45.422 148.175  16.636  1.00 21.67     0.005 C 
HETATM    4  C4  BCR H 101     -46.509 147.592  15.770  1.00 20.41     0.034 C 
HETATM    5  C5  BCR H 101     -45.959 146.856  14.559  1.00 27.23    -0.077 C 
HETATM    6  C6  BCR H 101     -44.725 147.102  14.040  1.00 20.11    -0.048 C 
HETATM    7  C7  BCR H 101     -44.120 146.398  12.860  1.00 20.66     0.009 C 
HETATM    8  C8  BCR H 101     -44.331 145.155  12.398  1.00 22.34     0.007 C 
HETATM    9  C9  BCR H 101     -43.590 144.598  11.235  1.00 34.94    -0.062 C 
HETATM   10  C10 BCR H 101     -43.408 143.261  11.175  1.00 21.22     0.007 C 
HETATM   11  C11 BCR H 101     -42.670 142.547  10.122  1.00 28.87     0.001 C 
HETATM   12  C33 BCR H 101     -46.935 145.851  13.994  1.00 23.66     0.044 C 
HETATM   13  C31 BCR H 101     -42.651 147.367  15.347  1.00 19.41     0.020 C 
HETATM   14  C32 BCR H 101     -43.131 149.085  13.664  1.00 20.38     0.020 C 
HETATM   15  C34 BCR H 101     -43.021 145.501  10.179  1.00 27.97     0.048 C 
HETATM   16  C12 BCR H 101     -42.267 141.294  10.379  1.00 26.46     0.007 C 
HETATM   17  C13 BCR H 101     -41.505 140.425   9.445  1.00 41.86    -0.062 C 
HETATM   18  C14 BCR H 101     -41.086 139.210   9.878  1.00 35.90     0.007 C 
HETATM   19  C15 BCR H 101     -40.332 138.215   9.090  1.00 29.55     0.001 C 
HETATM   20  C16 BCR H 101     -39.856 137.100   9.689  1.00 30.73     0.001 C 
HETATM   21  C17 BCR H 101     -39.121 136.053   8.958  1.00 38.08     0.007 C 
HETATM   22  C18 BCR H 101     -38.492 135.023   9.577  1.00 36.14    -0.062 C 
HETATM   23  C19 BCR H 101     -37.777 133.989   8.787  1.00 38.04     0.007 C 
HETATM   24  C20 BCR H 101     -37.030 133.002   9.313  1.00 32.76     0.001 C 
HETATM   25  C21 BCR H 101     -36.387 132.059   8.384  1.00 37.36     0.007 C 
HETATM   26  C22 BCR H 101     -35.569 131.056   8.767  1.00 42.44    -0.062 C 
HETATM   27  C23 BCR H 101     -35.012 130.228   7.849  1.00 37.41     0.007 C 
HETATM   28  C24 BCR H 101     -34.217 129.190   8.179  1.00 28.37     0.009 C 
HETATM   29  C25 BCR H 101     -33.554 128.255   7.211  1.00 39.73    -0.048 C 
HETATM   30  C26 BCR H 101     -32.494 128.666   6.483  1.00 39.78    -0.077 C 
HETATM   31  C27 BCR H 101     -31.755 127.787   5.494  1.00 29.87     0.034 C 
HETATM   32  C28 BCR H 101     -32.451 126.477   5.165  1.00 35.21     0.005 C 
HETATM   33  C29 BCR H 101     -33.093 125.875   6.408  1.00 34.71     0.014 C 
HETATM   34  C30 BCR H 101     -34.078 126.834   7.083  1.00 48.99    -0.020 C 
HETATM   35  C35 BCR H 101     -41.200 140.909   8.058  1.00 43.67     0.048 C 
HETATM   36  C36 BCR H 101     -38.508 134.917  11.073  1.00 38.66     0.048 C 
HETATM   37  C37 BCR H 101     -35.273 130.891  10.228  1.00 32.15     0.048 C 
HETATM   38  C38 BCR H 101     -31.965 130.066   6.630  1.00 38.36     0.044 C 
HETATM   39  C39 BCR H 101     -34.352 126.296   8.484  1.00 45.00     0.020 C 
HETATM   40  C40 BCR H 101     -35.396 126.856   6.322  1.00 59.25     0.020 C 
ENDROOT
TORSDOF 10
