REMARK VINA RESULT:    -8.915      0.000      0.000
REMARK INTER + INTRA:         -11.402
REMARK INTER:                  -8.915
REMARK INTRA:                  -2.486
REMARK UNBOUND:                -2.486
REMARK  0 active torsions:
REMARK  status: ('A' for Active; 'I' for Inactive)
REMARK       I    between atoms: C6_6  and  C7_7 
REMARK       I    between atoms: C8_8  and  C9_9 
REMARK       I    between atoms: C10_10  and  C11_11 
REMARK       I    between atoms: C12_16  and  C13_17 
REMARK       I    between atoms: C14_18  and  C15_19 
REMARK       I    between atoms: C16_20  and  C17_21 
REMARK       I    between atoms: C18_22  and  C19_23 
REMARK       I    between atoms: C20_24  and  C21_25 
REMARK       I    between atoms: C22_26  and  C23_27 
REMARK       I    between atoms: C24_28  and  C25_29 
ROOT
HETATM    1  C1  BCR B 616     -32.237 129.982   7.579  1.00 31.32    -0.020 C 
HETATM    2  C2  BCR B 616     -31.395 128.934   6.880  1.00 32.97     0.014 C 
HETATM    3  C3  BCR B 616     -31.958 128.708   5.495  1.00 29.93     0.005 C 
HETATM    4  C4  BCR B 616     -33.306 128.040   5.612  1.00 26.02     0.034 C 
HETATM    5  C5  BCR B 616     -34.164 128.727   6.648  1.00 31.50    -0.077 C 
HETATM    6  C6  BCR B 616     -33.696 129.633   7.526  1.00 32.71    -0.048 C 
HETATM    7  C7  BCR B 616     -34.663 130.290   8.437  1.00 27.07     0.009 C 
HETATM    8  C8  BCR B 616     -35.121 131.523   8.219  1.00 26.19     0.007 C 
HETATM    9  C9  BCR B 616     -36.129 132.172   9.087  1.00 26.80    -0.062 C 
HETATM   10  C10 BCR B 616     -36.684 133.330   8.726  1.00 24.87     0.007 C 
HETATM   11  C11 BCR B 616     -37.722 133.979   9.520  1.00 26.76     0.001 C 
HETATM   12  C33 BCR B 616     -35.609 128.333   6.660  1.00 25.10     0.044 C 
HETATM   13  C31 BCR B 616     -32.012 131.312   6.880  1.00 28.04     0.020 C 
HETATM   14  C32 BCR B 616     -31.838 130.053   9.033  1.00 25.30     0.020 C 
HETATM   15  C34 BCR B 616     -36.581 131.540  10.361  1.00 25.88     0.048 C 
HETATM   16  C12 BCR B 616     -38.191 135.144   9.081  1.00 27.03     0.007 C 
HETATM   17  C13 BCR B 616     -39.273 135.906   9.721  1.00 24.87    -0.062 C 
HETATM   18  C14 BCR B 616     -39.689 137.052   9.158  1.00 25.36     0.007 C 
HETATM   19  C15 BCR B 616     -40.789 137.835   9.713  1.00 24.12     0.001 C 
HETATM   20  C16 BCR B 616     -41.311 138.868   9.067  1.00 24.28     0.001 C 
HETATM   21  C17 BCR B 616     -42.432 139.594   9.642  1.00 25.58     0.007 C 
HETATM   22  C18 BCR B 616     -42.988 140.651   9.038  1.00 28.46    -0.062 C 
HETATM   23  C19 BCR B 616     -44.135 141.306   9.692  1.00 23.05     0.007 C 
HETATM   24  C20 BCR B 616     -44.904 142.238   9.146  1.00 21.86     0.001 C 
HETATM   25  C21 BCR B 616     -46.000 142.735   9.965  1.00 26.78     0.007 C 
HETATM   26  C22 BCR B 616     -46.997 143.521   9.538  1.00 25.31    -0.062 C 
HETATM   27  C23 BCR B 616     -48.045 143.944  10.490  1.00 19.67     0.007 C 
HETATM   28  C24 BCR B 616     -49.038 144.740  10.112  1.00 21.08     0.009 C 
HETATM   29  C25 BCR B 616     -50.117 145.226  11.000  1.00 24.69    -0.048 C 
HETATM   30  C26 BCR B 616     -50.880 144.395  11.706  1.00 24.70    -0.077 C 
HETATM   31  C27 BCR B 616     -51.657 144.889  12.894  1.00 28.87     0.034 C 
HETATM   32  C28 BCR B 616     -52.287 146.216  12.551  1.00 22.34     0.005 C 
HETATM   33  C29 BCR B 616     -51.161 147.179  12.270  1.00 23.43     0.014 C 
HETATM   34  C30 BCR B 616     -50.348 146.727  11.069  1.00 25.38    -0.020 C 
HETATM   35  C35 BCR B 616     -39.916 135.372  10.958  1.00 22.52     0.048 C 
HETATM   36  C36 BCR B 616     -42.455 141.157   7.734  1.00 21.22     0.048 C 
HETATM   37  C37 BCR B 616     -47.031 143.971   8.114  1.00 24.02     0.048 C 
HETATM   38  C38 BCR B 616     -51.032 142.947  11.363  1.00 26.85     0.044 C 
HETATM   39  C39 BCR B 616     -49.007 147.426  11.139  1.00 22.16     0.020 C 
HETATM   40  C40 BCR B 616     -51.065 147.192   9.823  1.00 23.21     0.020 C 
ENDROOT
TORSDOF 10
