REMARK VINA RESULT:   -10.798      2.521      4.127
REMARK INTER + INTRA:         -13.611
REMARK INTER:                 -10.129
REMARK INTRA:                  -3.482
REMARK UNBOUND:                -2.813
REMARK  0 active torsions:
REMARK  status: ('A' for Active; 'I' for Inactive)
REMARK       I    between atoms: C6_6  and  C7_7 
REMARK       I    between atoms: C8_8  and  C9_9 
REMARK       I    between atoms: C10_10  and  C11_11 
REMARK       I    between atoms: C12_16  and  C13_17 
REMARK       I    between atoms: C14_18  and  C15_19 
REMARK       I    between atoms: C16_20  and  C17_21 
REMARK       I    between atoms: C18_22  and  C19_23 
REMARK       I    between atoms: C20_24  and  C21_25 
REMARK       I    between atoms: C22_26  and  C23_27 
REMARK       I    between atoms: C24_28  and  C25_29 
ROOT
HETATM    1  C1  BCR A 410     -33.665 130.638   7.510  1.00 50.64    -0.020 C 
HETATM    2  C2  BCR A 410     -32.384 129.903   7.874  1.00 44.64     0.014 C 
HETATM    3  C3  BCR A 410     -31.784 130.508   9.124  1.00 41.78     0.005 C 
HETATM    4  C4  BCR A 410     -32.705 130.190  10.280  1.00 42.03     0.034 C 
HETATM    5  C5  BCR A 410     -34.109 130.660   9.973  1.00 39.65    -0.077 C 
HETATM    6  C6  BCR A 410     -34.553 130.874   8.718  1.00 44.55    -0.048 C 
HETATM    7  C7  BCR A 410     -35.948 131.338   8.464  1.00 44.34     0.009 C 
HETATM    8  C8  BCR A 410     -36.353 132.560   8.833  1.00 45.94     0.007 C 
HETATM    9  C9  BCR A 410     -37.708 133.099   8.605  1.00 39.93    -0.062 C 
HETATM   10  C10 BCR A 410     -37.985 134.337   9.055  1.00 44.48     0.007 C 
HETATM   11  C11 BCR A 410     -39.265 135.023   8.886  1.00 36.88     0.001 C 
HETATM   12  C33 BCR A 410     -34.985 130.869  11.165  1.00 34.70     0.044 C 
HETATM   13  C31 BCR A 410     -34.438 129.794   6.502  1.00 36.72     0.020 C 
HETATM   14  C32 BCR A 410     -33.266 131.968   6.878  1.00 32.71     0.020 C 
HETATM   15  C34 BCR A 410     -38.738 132.287   7.879  1.00 43.39     0.048 C 
HETATM   16  C12 BCR A 410     -39.397 136.259   9.389  1.00 44.33     0.007 C 
HETATM   17  C13 BCR A 410     -40.627 137.076   9.257  1.00 40.83    -0.062 C 
HETATM   18  C14 BCR A 410     -40.581 138.378   9.637  1.00 44.56     0.007 C 
HETATM   19  C15 BCR A 410     -41.697 139.340   9.542  1.00 44.82     0.001 C 
HETATM   20  C16 BCR A 410     -41.582 140.611   9.984  1.00 40.83     0.001 C 
HETATM   21  C17 BCR A 410     -42.703 141.555   9.836  1.00 39.03     0.007 C 
HETATM   22  C18 BCR A 410     -42.730 142.867  10.188  1.00 45.07    -0.062 C 
HETATM   23  C19 BCR A 410     -43.970 143.632   9.915  1.00 37.89     0.007 C 
HETATM   24  C20 BCR A 410     -44.240 144.849  10.396  1.00 33.16     0.001 C 
HETATM   25  C21 BCR A 410     -45.535 145.449  10.030  1.00 38.89     0.007 C 
HETATM   26  C22 BCR A 410     -46.112 146.478  10.687  1.00 47.65    -0.062 C 
HETATM   27  C23 BCR A 410     -47.316 146.962  10.278  1.00 36.20     0.007 C 
HETATM   28  C24 BCR A 410     -47.888 148.041  10.831  1.00 32.05     0.009 C 
HETATM   29  C25 BCR A 410     -49.196 148.646  10.429  1.00 34.54    -0.048 C 
HETATM   30  C26 BCR A 410     -49.353 149.231   9.216  1.00 38.36    -0.077 C 
HETATM   31  C27 BCR A 410     -50.666 149.856   8.777  1.00 39.17     0.034 C 
HETATM   32  C28 BCR A 410     -51.852 149.381   9.622  1.00 35.95     0.005 C 
HETATM   33  C29 BCR A 410     -51.470 149.550  11.082  1.00 35.50     0.014 C 
HETATM   34  C30 BCR A 410     -50.333 148.603  11.443  1.00 37.31    -0.020 C 
HETATM   35  C35 BCR A 410     -41.877 136.443   8.702  1.00 35.03     0.048 C 
HETATM   36  C36 BCR A 410     -41.572 143.563  10.843  1.00 40.96     0.048 C 
HETATM   37  C37 BCR A 410     -45.408 147.081  11.864  1.00 31.89     0.048 C 
HETATM   38  C38 BCR A 410     -48.220 149.291   8.218  1.00 30.43     0.044 C 
HETATM   39  C39 BCR A 410     -50.900 147.187  11.543  1.00 34.95     0.020 C 
HETATM   40  C40 BCR A 410     -49.787 149.036  12.798  1.00 30.42     0.020 C 
ENDROOT
TORSDOF 10
