REMARK VINA RESULT:    -7.698      3.200      4.976
REMARK INTER + INTRA:         -14.622
REMARK INTER:                 -12.128
REMARK INTRA:                  -2.494
REMARK UNBOUND:                -6.924
REMARK  0 active torsions:
REMARK  status: ('A' for Active; 'I' for Inactive)
REMARK       I    between atoms: C6_6  and  C7_7 
REMARK       I    between atoms: C8_8  and  C9_9 
REMARK       I    between atoms: C10_10  and  C11_11 
REMARK       I    between atoms: C12_16  and  C13_17 
REMARK       I    between atoms: C14_18  and  C15_19 
REMARK       I    between atoms: C16_20  and  C17_21 
REMARK       I    between atoms: C18_22  and  C19_23 
REMARK       I    between atoms: C20_24  and  C21_25 
REMARK       I    between atoms: C22_26  and  C23_27 
REMARK       I    between atoms: C24_28  and  C25_29 
ROOT
HETATM    1  C1  BCR A 610     -34.042 126.697   6.729  1.00 29.59    -0.020 C 
HETATM    2  C2  BCR A 610     -33.237 125.850   5.772  1.00 31.72     0.014 C 
HETATM    3  C3  BCR A 610     -32.837 126.670   4.579  1.00 27.94     0.005 C 
HETATM    4  C4  BCR A 610     -31.972 127.844   5.030  1.00 32.43     0.034 C 
HETATM    5  C5  BCR A 610     -32.543 128.595   6.212  1.00 29.29    -0.077 C 
HETATM    6  C6  BCR A 610     -33.456 128.064   7.011  1.00 25.73    -0.048 C 
HETATM    7  C7  BCR A 610     -34.097 128.852   8.122  1.00 25.66     0.009 C 
HETATM    8  C8  BCR A 610     -34.500 130.118   7.896  1.00 28.04     0.007 C 
HETATM    9  C9  BCR A 610     -35.268 130.873   8.927  1.00 26.85    -0.062 C 
HETATM   10  C10 BCR A 610     -35.887 132.033   8.601  1.00 26.33     0.007 C 
HETATM   11  C11 BCR A 610     -36.697 132.815   9.546  1.00 27.36     0.001 C 
HETATM   12  C33 BCR A 610     -31.854 129.865   6.500  1.00 35.13     0.044 C 
HETATM   13  C31 BCR A 610     -34.134 125.919   7.999  1.00 31.88     0.020 C 
HETATM   14  C32 BCR A 610     -35.435 126.909   6.123  1.00 31.60     0.020 C 
HETATM   15  C34 BCR A 610     -35.330 130.270  10.312  1.00 29.30     0.048 C 
HETATM   16  C12 BCR A 610     -37.227 133.989   9.133  1.00 26.07     0.007 C 
HETATM   17  C13 BCR A 610     -38.028 134.924   9.958  1.00 27.88    -0.062 C 
HETATM   18  C14 BCR A 610     -38.621 135.981   9.320  1.00 26.29     0.007 C 
HETATM   19  C15 BCR A 610     -39.508 136.946   9.982  1.00 24.17     0.001 C 
HETATM   20  C16 BCR A 610     -40.139 137.925   9.313  1.00 25.06     0.001 C 
HETATM   21  C17 BCR A 610     -41.041 138.801  10.054  1.00 23.08     0.007 C 
HETATM   22  C18 BCR A 610     -41.760 139.847   9.550  1.00 25.47    -0.062 C 
HETATM   23  C19 BCR A 610     -42.630 140.666  10.430  1.00 24.27     0.007 C 
HETATM   24  C20 BCR A 610     -43.003 141.907  10.166  1.00 22.34     0.001 C 
HETATM   25  C21 BCR A 610     -43.865 142.645  11.139  1.00 26.05     0.007 C 
HETATM   26  C22 BCR A 610     -44.196 143.986  10.989  1.00 27.30    -0.062 C 
HETATM   27  C23 BCR A 610     -45.054 144.619  12.056  1.00 23.16     0.007 C 
HETATM   28  C24 BCR A 610     -45.306 145.919  12.072  1.00 21.54     0.009 C 
HETATM   29  C25 BCR A 610     -46.047 146.526  13.159  1.00 21.54    -0.048 C 
HETATM   30  C26 BCR A 610     -47.266 146.030  13.473  1.00 20.62    -0.077 C 
HETATM   31  C27 BCR A 610     -48.156 146.577  14.581  1.00 20.11     0.034 C 
HETATM   32  C28 BCR A 610     -47.343 147.460  15.504  1.00 24.80     0.005 C 
HETATM   33  C29 BCR A 610     -46.430 148.401  14.703  1.00 24.65     0.014 C 
HETATM   34  C30 BCR A 610     -45.383 147.676  13.880  1.00 22.24    -0.020 C 
HETATM   35  C35 BCR A 610     -38.048 134.664  11.446  1.00 33.62     0.048 C 
HETATM   36  C36 BCR A 610     -41.703 140.202   8.111  1.00 23.31     0.048 C 
HETATM   37  C37 BCR A 610     -43.699 144.761   9.774  1.00 28.25     0.048 C 
HETATM   38  C38 BCR A 610     -47.965 145.023  12.629  1.00 20.57     0.044 C 
HETATM   39  C39 BCR A 610     -44.274 147.048  14.748  1.00 24.02     0.020 C 
HETATM   40  C40 BCR A 610     -44.838 148.649  12.901  1.00 22.78     0.020 C 
ENDROOT
TORSDOF 10
