REMARK VINA RESULT:    -6.524      1.807     16.403
REMARK INTER + INTRA:         -13.417
REMARK INTER:                 -11.225
REMARK INTRA:                  -2.192
REMARK UNBOUND:                -6.893
REMARK  0 active torsions:
REMARK  status: ('A' for Active; 'I' for Inactive)
REMARK       I    between atoms: C6_6  and  C7_7 
REMARK       I    between atoms: C8_8  and  C9_9 
REMARK       I    between atoms: C10_10  and  C11_11 
REMARK       I    between atoms: C12_16  and  C13_17 
REMARK       I    between atoms: C14_18  and  C15_19 
REMARK       I    between atoms: C16_20  and  C17_21 
REMARK       I    between atoms: C18_22  and  C19_23 
REMARK       I    between atoms: C20_24  and  C21_25 
REMARK       I    between atoms: C22_26  and  C23_27 
REMARK       I    between atoms: C24_28  and  C25_29 
ROOT
HETATM    1  C1  BCR A 406     -49.514 146.920  10.564  1.00 36.20    -0.020 C 
HETATM    2  C2  BCR A 406     -50.417 147.856  11.391  1.00 35.59     0.014 C 
HETATM    3  C3  BCR A 406     -50.016 147.889  12.841  1.00 39.53     0.005 C 
HETATM    4  C4  BCR A 406     -48.593 148.351  12.951  1.00 31.69     0.034 C 
HETATM    5  C5  BCR A 406     -47.689 147.657  12.005  1.00 27.77    -0.077 C 
HETATM    6  C6  BCR A 406     -48.070 146.995  10.905  1.00 33.79    -0.048 C 
HETATM    7  C7  BCR A 406     -47.117 146.350   9.969  1.00 29.83     0.009 C 
HETATM    8  C8  BCR A 406     -46.565 145.148  10.221  1.00 31.65     0.007 C 
HETATM    9  C9  BCR A 406     -45.492 144.568   9.425  1.00 32.29    -0.062 C 
HETATM   10  C10 BCR A 406     -44.888 143.448   9.850  1.00 27.54     0.007 C 
HETATM   11  C11 BCR A 406     -43.772 142.805   9.199  1.00 33.59     0.001 C 
HETATM   12  C33 BCR A 406     -46.284 147.818  12.383  1.00 32.64     0.044 C 
HETATM   13  C31 BCR A 406     -49.678 147.252   9.099  1.00 30.33     0.020 C 
HETATM   14  C32 BCR A 406     -50.035 145.524  10.751  1.00 39.96     0.020 C 
HETATM   15  C34 BCR A 406     -45.470 144.957   8.010  1.00 32.57     0.048 C 
HETATM   16  C12 BCR A 406     -43.520 141.523   9.502  1.00 30.76     0.007 C 
HETATM   17  C13 BCR A 406     -42.598 140.657   8.802  1.00 32.78    -0.062 C 
HETATM   18  C14 BCR A 406     -42.014 139.684   9.529  1.00 29.28     0.007 C 
HETATM   19  C15 BCR A 406     -41.206 138.619   8.996  1.00 28.52     0.001 C 
HETATM   20  C16 BCR A 406     -40.650 137.690   9.798  1.00 29.07     0.001 C 
HETATM   21  C17 BCR A 406     -39.975 136.574   9.186  1.00 23.66     0.007 C 
HETATM   22  C18 BCR A 406     -39.533 135.473   9.805  1.00 29.00    -0.062 C 
HETATM   23  C19 BCR A 406     -38.616 134.619   9.043  1.00 33.02     0.007 C 
HETATM   24  C20 BCR A 406     -38.002 133.512   9.490  1.00 25.51     0.001 C 
HETATM   25  C21 BCR A 406     -36.848 133.008   8.765  1.00 28.80     0.007 C 
HETATM   26  C22 BCR A 406     -36.085 131.969   9.128  1.00 25.36    -0.062 C 
HETATM   27  C23 BCR A 406     -35.095 131.458   8.175  1.00 34.30     0.007 C 
HETATM   28  C24 BCR A 406     -34.376 130.334   8.349  1.00 25.99     0.009 C 
HETATM   29  C25 BCR A 406     -33.546 129.641   7.352  1.00 30.20    -0.048 C 
HETATM   30  C26 BCR A 406     -34.016 128.572   6.679  1.00 33.40    -0.077 C 
HETATM   31  C27 BCR A 406     -33.299 127.736   5.682  1.00 29.94     0.034 C 
HETATM   32  C28 BCR A 406     -31.973 128.324   5.257  1.00 29.32     0.005 C 
HETATM   33  C29 BCR A 406     -31.290 129.091   6.362  1.00 29.90     0.014 C 
HETATM   34  C30 BCR A 406     -32.133 130.097   7.149  1.00 29.21    -0.020 C 
HETATM   35  C35 BCR A 406     -42.122 141.040   7.442  1.00 30.52     0.048 C 
HETATM   36  C36 BCR A 406     -39.585 135.406  11.284  1.00 29.79     0.048 C 
HETATM   37  C37 BCR A 406     -35.863 131.716  10.561  1.00 34.36     0.048 C 
HETATM   38  C38 BCR A 406     -35.386 128.055   6.872  1.00 29.54     0.044 C 
HETATM   39  C39 BCR A 406     -32.069 131.468   6.543  1.00 30.51     0.020 C 
HETATM   40  C40 BCR A 406     -31.380 130.216   8.456  1.00 35.85     0.020 C 
ENDROOT
TORSDOF 10
