REMARK VINA RESULT:    -6.898      2.744     16.510
REMARK INTER + INTRA:         -12.865
REMARK INTER:                  -8.975
REMARK INTRA:                  -3.890
REMARK UNBOUND:                -5.967
REMARK  0 active torsions:
REMARK  status: ('A' for Active; 'I' for Inactive)
REMARK       I    between atoms: C6_6  and  C7_7 
REMARK       I    between atoms: C8_8  and  C9_9 
REMARK       I    between atoms: C10_10  and  C11_11 
REMARK       I    between atoms: C12_16  and  C13_17 
REMARK       I    between atoms: C14_18  and  C15_19 
REMARK       I    between atoms: C16_20  and  C17_21 
REMARK       I    between atoms: C18_22  and  C19_23 
REMARK       I    between atoms: C20_24  and  C21_25 
REMARK       I    between atoms: C22_26  and  C23_27 
REMARK       I    between atoms: C24_28  and  C25_29 
ROOT
HETATM    1  C1  BCR B 618     -32.824 127.192   5.307  1.00 32.08    -0.020 C 
HETATM    2  C2  BCR B 618     -32.770 125.991   4.368  1.00 32.02     0.014 C 
HETATM    3  C3  BCR B 618     -33.750 126.081   3.212  1.00 30.00     0.005 C 
HETATM    4  C4  BCR B 618     -35.120 126.585   3.630  1.00 29.70     0.034 C 
HETATM    5  C5  BCR B 618     -35.171 126.710   5.126  1.00 32.08    -0.077 C 
HETATM    6  C6  BCR B 618     -34.238 127.433   5.730  1.00 29.52    -0.048 C 
HETATM    7  C7  BCR B 618     -34.519 128.438   6.768  1.00 26.64     0.009 C 
HETATM    8  C8  BCR B 618     -35.599 129.205   6.789  1.00 26.25     0.007 C 
HETATM    9  C9  BCR B 618     -35.755 130.172   7.890  1.00 28.38    -0.062 C 
HETATM   10  C10 BCR B 618     -36.542 131.237   7.734  1.00 28.10     0.007 C 
HETATM   11  C11 BCR B 618     -36.749 132.258   8.748  1.00 22.97     0.001 C 
HETATM   12  C33 BCR B 618     -36.222 125.971   5.886  1.00 36.33     0.044 C 
HETATM   13  C31 BCR B 618     -32.291 128.456   4.649  1.00 29.12     0.020 C 
HETATM   14  C32 BCR B 618     -32.007 126.864   6.536  1.00 31.50     0.020 C 
HETATM   15  C34 BCR B 618     -35.048 129.953   9.183  1.00 24.68     0.048 C 
HETATM   16  C12 BCR B 618     -37.668 133.163   8.451  1.00 27.25     0.007 C 
HETATM   17  C13 BCR B 618     -38.037 134.305   9.292  1.00 24.75    -0.062 C 
HETATM   18  C14 BCR B 618     -39.011 135.119   8.886  1.00 20.67     0.007 C 
HETATM   19  C15 BCR B 618     -39.377 136.288   9.661  1.00 20.47     0.001 C 
HETATM   20  C16 BCR B 618     -40.169 137.198   9.123  1.00 22.70     0.001 C 
HETATM   21  C17 BCR B 618     -40.500 138.395   9.865  1.00 22.25     0.007 C 
HETATM   22  C18 BCR B 618     -41.392 139.286   9.432  1.00 26.36    -0.062 C 
HETATM   23  C19 BCR B 618     -41.628 140.497  10.232  1.00 25.59     0.007 C 
HETATM   24  C20 BCR B 618     -42.549 141.404   9.943  1.00 24.27     0.001 C 
HETATM   25  C21 BCR B 618     -42.617 142.554  10.824  1.00 23.38     0.007 C 
HETATM   26  C22 BCR B 618     -43.454 143.583  10.678  1.00 27.07    -0.062 C 
HETATM   27  C23 BCR B 618     -43.367 144.690  11.650  1.00 25.86     0.007 C 
HETATM   28  C24 BCR B 618     -43.864 145.907  11.439  1.00 25.72     0.009 C 
HETATM   29  C25 BCR B 618     -43.716 147.006  12.425  1.00 30.28    -0.048 C 
HETATM   30  C26 BCR B 618     -42.557 147.664  12.488  1.00 31.25    -0.077 C 
HETATM   31  C27 BCR B 618     -42.473 148.995  13.173  1.00 29.22     0.034 C 
HETATM   32  C28 BCR B 618     -43.176 148.855  14.499  1.00 25.82     0.005 C 
HETATM   33  C29 BCR B 618     -44.637 148.616  14.211  1.00 26.07     0.014 C 
HETATM   34  C30 BCR B 618     -44.874 147.401  13.317  1.00 28.46    -0.020 C 
HETATM   35  C35 BCR B 618     -37.308 134.575  10.567  1.00 18.72     0.048 C 
HETATM   36  C36 BCR B 618     -42.123 139.075   8.148  1.00 23.59     0.048 C 
HETATM   37  C37 BCR B 618     -44.436 143.614   9.556  1.00 34.23     0.048 C 
HETATM   38  C38 BCR B 618     -41.297 147.125  11.893  1.00 29.70     0.044 C 
HETATM   39  C39 BCR B 618     -46.057 147.743  12.432  1.00 35.43     0.020 C 
HETATM   40  C40 BCR B 618     -45.197 146.221  14.207  1.00 25.20     0.020 C 
ENDROOT
TORSDOF 10
