REMARK VINA RESULT:    -6.931      2.821      4.847
REMARK INTER + INTRA:         -13.727
REMARK INTER:                 -10.877
REMARK INTRA:                  -2.850
REMARK UNBOUND:                -6.796
REMARK  0 active torsions:
REMARK  status: ('A' for Active; 'I' for Inactive)
REMARK       I    between atoms: C6_6  and  C7_7 
REMARK       I    between atoms: C8_8  and  C9_9 
REMARK       I    between atoms: C10_10  and  C11_11 
REMARK       I    between atoms: C12_16  and  C13_17 
REMARK       I    between atoms: C14_18  and  C15_19 
REMARK       I    between atoms: C16_20  and  C17_21 
REMARK       I    between atoms: C18_22  and  C19_23 
REMARK       I    between atoms: C20_24  and  C21_25 
REMARK       I    between atoms: C22_26  and  C23_27 
REMARK       I    between atoms: C24_28  and  C25_29 
ROOT
HETATM    1  C1  BCR B 619     -44.632 148.793  11.731  1.00 42.12    -0.020 C 
HETATM    2  C2  BCR B 619     -44.771 149.766  12.877  1.00 44.03     0.014 C 
HETATM    3  C3  BCR B 619     -46.034 149.512  13.633  1.00 50.07     0.005 C 
HETATM    4  C4  BCR B 619     -45.995 148.113  14.177  1.00 50.24     0.034 C 
HETATM    5  C5  BCR B 619     -45.787 147.134  13.082  1.00 48.46    -0.077 C 
HETATM    6  C6  BCR B 619     -45.151 147.420  11.965  1.00 42.37    -0.048 C 
HETATM    7  C7  BCR B 619     -44.966 146.429  10.888  1.00 45.45     0.009 C 
HETATM    8  C8  BCR B 619     -44.296 145.285  11.078  1.00 42.13     0.007 C 
HETATM    9  C9  BCR B 619     -43.974 144.316  10.036  1.00 40.32    -0.062 C 
HETATM   10  C10 BCR B 619     -43.316 143.210  10.394  1.00 42.22     0.007 C 
HETATM   11  C11 BCR B 619     -42.807 142.237   9.466  1.00 37.87     0.001 C 
HETATM   12  C33 BCR B 619     -46.341 145.790  13.356  1.00 60.09     0.044 C 
HETATM   13  C31 BCR B 619     -43.167 148.739  11.401  1.00 42.93     0.020 C 
HETATM   14  C32 BCR B 619     -45.369 149.427  10.571  1.00 43.16     0.020 C 
HETATM   15  C34 BCR B 619     -44.689 144.367   8.751  1.00 35.96     0.048 C 
HETATM   16  C12 BCR B 619     -42.051 141.257   9.949  1.00 36.26     0.007 C 
HETATM   17  C13 BCR B 619     -41.784 140.035   9.235  1.00 36.16    -0.062 C 
HETATM   18  C14 BCR B 619     -41.074 139.095   9.876  1.00 32.11     0.007 C 
HETATM   19  C15 BCR B 619     -40.347 138.030   9.227  1.00 30.20     0.001 C 
HETATM   20  C16 BCR B 619     -39.679 137.135   9.963  1.00 25.50     0.001 C 
HETATM   21  C17 BCR B 619     -39.082 136.012   9.293  1.00 29.93     0.007 C 
HETATM   22  C18 BCR B 619     -38.542 134.939   9.888  1.00 33.52    -0.062 C 
HETATM   23  C19 BCR B 619     -37.638 134.082   9.115  1.00 31.39     0.007 C 
HETATM   24  C20 BCR B 619     -36.986 133.024   9.620  1.00 33.08     0.001 C 
HETATM   25  C21 BCR B 619     -36.210 132.187   8.739  1.00 29.74     0.007 C 
HETATM   26  C22 BCR B 619     -35.695 130.981   9.021  1.00 34.33    -0.062 C 
HETATM   27  C23 BCR B 619     -34.973 130.275   7.960  1.00 29.24     0.007 C 
HETATM   28  C24 BCR B 619     -34.192 129.205   8.150  1.00 34.82     0.009 C 
HETATM   29  C25 BCR B 619     -33.551 128.480   7.053  1.00 36.91    -0.048 C 
HETATM   30  C26 BCR B 619     -32.684 129.111   6.268  1.00 42.58    -0.077 C 
HETATM   31  C27 BCR B 619     -31.973 128.495   5.127  1.00 34.32     0.034 C 
HETATM   32  C28 BCR B 619     -31.755 127.028   5.389  1.00 33.19     0.005 C 
HETATM   33  C29 BCR B 619     -33.057 126.363   5.715  1.00 42.41     0.014 C 
HETATM   34  C30 BCR B 619     -33.893 127.034   6.799  1.00 41.48    -0.020 C 
HETATM   35  C35 BCR B 619     -41.926 140.051   7.768  1.00 29.99     0.048 C 
HETATM   36  C36 BCR B 619     -38.493 134.898  11.368  1.00 37.35     0.048 C 
HETATM   37  C37 BCR B 619     -35.475 130.596  10.428  1.00 37.12     0.048 C 
HETATM   38  C38 BCR B 619     -32.350 130.532   6.469  1.00 40.40     0.044 C 
HETATM   39  C39 BCR B 619     -33.878 126.247   8.104  1.00 51.26     0.020 C 
HETATM   40  C40 BCR B 619     -35.283 126.883   6.191  1.00 40.72     0.020 C 
ENDROOT
TORSDOF 10
