REMARK VINA RESULT:    -5.879      3.312      4.698
REMARK INTER + INTRA:          -9.420
REMARK INTER:                  -7.836
REMARK INTRA:                  -1.584
REMARK UNBOUND:                -3.542
REMARK  0 active torsions:
REMARK  status: ('A' for Active; 'I' for Inactive)
REMARK       I    between atoms: C6_6  and  C7_7 
REMARK       I    between atoms: C8_8  and  C9_9 
REMARK       I    between atoms: C10_10  and  C11_11 
REMARK       I    between atoms: C12_16  and  C13_17 
REMARK       I    between atoms: C14_18  and  C15_19 
REMARK       I    between atoms: C16_20  and  C17_21 
REMARK       I    between atoms: C18_22  and  C19_23 
REMARK       I    between atoms: C20_24  and  C21_25 
REMARK       I    between atoms: C22_26  and  C23_27 
REMARK       I    between atoms: C24_28  and  C25_29 
ROOT
HETATM    1  C1  BCR C 515     -33.363 128.303   5.811  1.00 39.71    -0.020 C 
HETATM    2  C2  BCR C 515     -32.672 126.970   5.606  1.00 40.37     0.014 C 
HETATM    3  C3  BCR C 515     -33.545 125.850   6.119  1.00 43.17     0.005 C 
HETATM    4  C4  BCR C 515     -33.690 126.014   7.615  1.00 48.98     0.034 C 
HETATM    5  C5  BCR C 515     -34.293 127.360   7.925  1.00 42.59    -0.077 C 
HETATM    6  C6  BCR C 515     -34.097 128.411   7.129  1.00 38.03    -0.048 C 
HETATM    7  C7  BCR C 515     -34.584 129.745   7.535  1.00 39.13     0.009 C 
HETATM    8  C8  BCR C 515     -35.853 130.147   7.520  1.00 40.01     0.007 C 
HETATM    9  C9  BCR C 515     -36.198 131.513   7.960  1.00 48.45    -0.062 C 
HETATM   10  C10 BCR C 515     -37.477 131.901   7.988  1.00 46.14     0.007 C 
HETATM   11  C11 BCR C 515     -37.877 133.238   8.416  1.00 42.52     0.001 C 
HETATM   12  C33 BCR C 515     -35.112 127.472   9.173  1.00 41.43     0.044 C 
HETATM   13  C31 BCR C 515     -34.348 128.515   4.679  1.00 36.91     0.020 C 
HETATM   14  C32 BCR C 515     -32.313 129.397   5.753  1.00 47.25     0.020 C 
HETATM   15  C34 BCR C 515     -35.123 132.480   8.357  1.00 41.23     0.048 C 
HETATM   16  C12 BCR C 515     -39.096 133.666   8.108  1.00 42.82     0.007 C 
HETATM   17  C13 BCR C 515     -39.630 134.982   8.508  1.00 44.74    -0.062 C 
HETATM   18  C14 BCR C 515     -40.957 135.137   8.483  1.00 43.56     0.007 C 
HETATM   19  C15 BCR C 515     -41.619 136.368   8.879  1.00 39.26     0.001 C 
HETATM   20  C16 BCR C 515     -42.944 136.426   8.827  1.00 40.16     0.001 C 
HETATM   21  C17 BCR C 515     -43.623 137.640   9.249  1.00 42.34     0.007 C 
HETATM   22  C18 BCR C 515     -44.925 137.858   9.049  1.00 44.22    -0.062 C 
HETATM   23  C19 BCR C 515     -45.486 139.123   9.548  1.00 48.96     0.007 C 
HETATM   24  C20 BCR C 515     -46.724 139.526   9.312  1.00 51.51     0.001 C 
HETATM   25  C21 BCR C 515     -47.094 140.801   9.904  1.00 48.83     0.007 C 
HETATM   26  C22 BCR C 515     -48.223 141.438   9.600  1.00 46.78    -0.062 C 
HETATM   27  C23 BCR C 515     -48.486 142.715  10.270  1.00 46.17     0.007 C 
HETATM   28  C24 BCR C 515     -49.693 143.265  10.279  1.00 45.08     0.009 C 
HETATM   29  C25 BCR C 515     -49.954 144.542  10.967  1.00 45.02    -0.048 C 
HETATM   30  C26 BCR C 515     -49.973 144.593  12.299  1.00 46.86    -0.077 C 
HETATM   31  C27 BCR C 515     -50.125 145.890  13.056  1.00 50.72     0.034 C 
HETATM   32  C28 BCR C 515     -49.748 147.058  12.175  1.00 55.86     0.005 C 
HETATM   33  C29 BCR C 515     -50.603 146.974  10.932  1.00 52.85     0.014 C 
HETATM   34  C30 BCR C 515     -50.219 145.752  10.113  1.00 52.22    -0.020 C 
HETATM   35  C35 BCR C 515     -38.736 136.107   8.937  1.00 45.43     0.048 C 
HETATM   36  C36 BCR C 515     -45.788 136.851   8.354  1.00 42.28     0.048 C 
HETATM   37  C37 BCR C 515     -49.181 140.867   8.605  1.00 46.03     0.048 C 
HETATM   38  C38 BCR C 515     -49.851 143.341  13.115  1.00 45.04     0.044 C 
HETATM   39  C39 BCR C 515     -48.962 146.060   9.315  1.00 52.25     0.020 C 
HETATM   40  C40 BCR C 515     -51.357 145.404   9.175  1.00 47.46     0.020 C 
ENDROOT
TORSDOF 10
