REMARK VINA RESULT:    -8.442      1.446      2.301
REMARK INTER + INTRA:          -8.723
REMARK INTER:                  -4.510
REMARK INTRA:                  -4.213
REMARK UNBOUND:                -0.281
REMARK  0 active torsions:
REMARK  status: ('A' for Active; 'I' for Inactive)
REMARK       I    between atoms: C6_6  and  C7_7 
REMARK       I    between atoms: C8_8  and  C9_9 
REMARK       I    between atoms: C10_10  and  C11_11 
REMARK       I    between atoms: C12_16  and  C13_17 
REMARK       I    between atoms: C14_18  and  C15_19 
REMARK       I    between atoms: C16_20  and  C17_21 
REMARK       I    between atoms: C18_22  and  C19_23 
REMARK       I    between atoms: C20_24  and  C21_25 
REMARK       I    between atoms: C22_26  and  C23_27 
REMARK       I    between atoms: C24_28  and  C25_29 
ROOT
HETATM    1  C1  BCR F 101     -49.531 147.117   8.940  1.00 41.36    -0.020 C 
HETATM    2  C2  BCR F 101     -50.822 147.499   9.641  1.00 46.22     0.014 C 
HETATM    3  C3  BCR F 101     -51.947 146.569   9.310  1.00 40.40     0.005 C 
HETATM    4  C4  BCR F 101     -51.574 145.159   9.670  1.00 37.04     0.034 C 
HETATM    5  C5  BCR F 101     -50.298 144.771   9.021  1.00 43.37    -0.077 C 
HETATM    6  C6  BCR F 101     -49.358 145.661   8.700  1.00 36.67    -0.048 C 
HETATM    7  C7  BCR F 101     -48.116 145.286   8.053  1.00 37.51     0.009 C 
HETATM    8  C8  BCR F 101     -47.236 144.521   8.681  1.00 40.99     0.007 C 
HETATM    9  C9  BCR F 101     -46.055 144.021   8.017  1.00 37.99    -0.062 C 
HETATM   10  C10 BCR F 101     -45.406 142.995   8.582  1.00 32.67     0.007 C 
HETATM   11  C11 BCR F 101     -44.198 142.370   8.078  1.00 30.31     0.001 C 
HETATM   12  C33 BCR F 101     -50.168 143.305   8.738  1.00 36.33     0.044 C 
HETATM   13  C31 BCR F 101     -48.402 147.650   9.776  1.00 51.06     0.020 C 
HETATM   14  C32 BCR F 101     -49.472 147.884   7.632  1.00 43.35     0.020 C 
HETATM   15  C34 BCR F 101     -45.807 144.517   6.646  1.00 39.55     0.048 C 
HETATM   16  C12 BCR F 101     -43.719 141.285   8.714  1.00 29.21     0.007 C 
HETATM   17  C13 BCR F 101     -42.600 140.513   8.224  1.00 31.53    -0.062 C 
HETATM   18  C14 BCR F 101     -42.419 139.277   8.703  1.00 36.47     0.007 C 
HETATM   19  C15 BCR F 101     -41.268 138.435   8.446  1.00 33.10     0.001 C 
HETATM   20  C16 BCR F 101     -41.113 137.290   9.148  1.00 33.82     0.001 C 
HETATM   21  C17 BCR F 101     -40.181 136.281   8.672  1.00 36.91     0.007 C 
HETATM   22  C18 BCR F 101     -39.969 135.040   9.149  1.00 32.34    -0.062 C 
HETATM   23  C19 BCR F 101     -39.025 134.194   8.443  1.00 30.12     0.007 C 
HETATM   24  C20 BCR F 101     -38.760 132.934   8.808  1.00 37.50     0.001 C 
HETATM   25  C21 BCR F 101     -38.090 132.024   7.899  1.00 38.83     0.007 C 
HETATM   26  C22 BCR F 101     -37.547 130.836   8.234  1.00 38.49    -0.062 C 
HETATM   27  C23 BCR F 101     -36.706 130.146   7.282  1.00 39.36     0.007 C 
HETATM   28  C24 BCR F 101     -35.944 129.103   7.639  1.00 56.86     0.009 C 
HETATM   29  C25 BCR F 101     -35.363 128.136   6.712  1.00 57.44    -0.048 C 
HETATM   30  C26 BCR F 101     -35.785 126.876   6.687  1.00 61.92    -0.077 C 
HETATM   31  C27 BCR F 101     -35.271 125.850   5.778  1.00 63.69     0.034 C 
HETATM   32  C28 BCR F 101     -34.835 126.529   4.511  1.00 63.72     0.005 C 
HETATM   33  C29 BCR F 101     -33.766 127.516   4.876  1.00 59.25     0.014 C 
HETATM   34  C30 BCR F 101     -34.253 128.598   5.817  1.00 65.60    -0.020 C 
HETATM   35  C35 BCR F 101     -41.974 140.920   6.943  1.00 33.23     0.048 C 
HETATM   36  C36 BCR F 101     -40.770 134.410  10.212  1.00 21.57     0.048 C 
HETATM   37  C37 BCR F 101     -37.972 130.073   9.415  1.00 27.86     0.048 C 
HETATM   38  C38 BCR F 101     -36.856 126.362   7.563  1.00 68.49     0.044 C 
HETATM   39  C39 BCR F 101     -34.652 129.831   5.029  1.00 75.29     0.020 C 
HETATM   40  C40 BCR F 101     -33.025 128.977   6.640  1.00 67.84     0.020 C 
ENDROOT
TORSDOF 10
