REMARK VINA RESULT:    -6.926      1.580     16.302
REMARK INTER + INTRA:         -10.468
REMARK INTER:                  -7.370
REMARK INTRA:                  -3.098
REMARK UNBOUND:                -3.542
REMARK  0 active torsions:
REMARK  status: ('A' for Active; 'I' for Inactive)
REMARK       I    between atoms: C6_6  and  C7_7 
REMARK       I    between atoms: C8_8  and  C9_9 
REMARK       I    between atoms: C10_10  and  C11_11 
REMARK       I    between atoms: C12_16  and  C13_17 
REMARK       I    between atoms: C14_18  and  C15_19 
REMARK       I    between atoms: C16_20  and  C17_21 
REMARK       I    between atoms: C18_22  and  C19_23 
REMARK       I    between atoms: C20_24  and  C21_25 
REMARK       I    between atoms: C22_26  and  C23_27 
REMARK       I    between atoms: C24_28  and  C25_29 
ROOT
HETATM    1  C1  BCR C 515     -46.038 148.047  12.728  1.00 39.71    -0.020 C 
HETATM    2  C2  BCR C 515     -47.135 149.074  12.923  1.00 40.37     0.014 C 
HETATM    3  C3  BCR C 515     -48.381 148.648  12.185  1.00 43.17     0.005 C 
HETATM    4  C4  BCR C 515     -48.075 148.649  10.704  1.00 48.98     0.034 C 
HETATM    5  C5  BCR C 515     -46.927 147.714  10.420  1.00 42.59    -0.077 C 
HETATM    6  C6  BCR C 515     -45.975 147.485  11.325  1.00 38.03    -0.048 C 
HETATM    7  C7  BCR C 515     -44.794 146.676  10.963  1.00 39.13     0.009 C 
HETATM    8  C8  BCR C 515     -44.774 145.353  10.813  1.00 40.01     0.007 C 
HETATM    9  C9  BCR C 515     -43.517 144.672  10.443  1.00 48.45    -0.062 C 
HETATM   10  C10 BCR C 515     -43.508 143.350  10.247  1.00 46.14     0.007 C 
HETATM   11  C11 BCR C 515     -42.296 142.624   9.878  1.00 42.52     0.001 C 
HETATM   12  C33 BCR C 515     -46.893 147.062   9.072  1.00 41.43     0.044 C 
HETATM   13  C31 BCR C 515     -46.262 146.910  13.704  1.00 36.91     0.020 C 
HETATM   14  C32 BCR C 515     -44.708 148.704  13.044  1.00 47.25     0.020 C 
HETATM   15  C34 BCR C 515     -42.242 145.450  10.305  1.00 41.23     0.048 C 
HETATM   16  C12 BCR C 515     -42.276 141.305  10.026  1.00 42.82     0.007 C 
HETATM   17  C13 BCR C 515     -41.126 140.456   9.662  1.00 44.74    -0.062 C 
HETATM   18  C14 BCR C 515     -41.358 139.151   9.490  1.00 43.56     0.007 C 
HETATM   19  C15 BCR C 515     -40.326 138.205   9.102  1.00 39.26     0.001 C 
HETATM   20  C16 BCR C 515     -40.653 136.929   8.950  1.00 40.16     0.001 C 
HETATM   21  C17 BCR C 515     -39.639 135.975   8.532  1.00 42.34     0.007 C 
HETATM   22  C18 BCR C 515     -39.827 134.653   8.543  1.00 44.22    -0.062 C 
HETATM   23  C19 BCR C 515     -38.720 133.807   8.072  1.00 48.96     0.007 C 
HETATM   24  C20 BCR C 515     -38.719 132.485   8.144  1.00 51.51     0.001 C 
HETATM   25  C21 BCR C 515     -37.537 131.827   7.613  1.00 48.83     0.007 C 
HETATM   26  C22 BCR C 515     -37.291 130.531   7.790  1.00 46.78    -0.062 C 
HETATM   27  C23 BCR C 515     -36.067 129.983   7.198  1.00 46.17     0.007 C 
HETATM   28  C24 BCR C 515     -35.886 128.678   7.047  1.00 45.08     0.009 C 
HETATM   29  C25 BCR C 515     -34.657 128.135   6.438  1.00 45.02    -0.048 C 
HETATM   30  C26 BCR C 515     -34.443 128.268   5.130  1.00 46.86    -0.077 C 
HETATM   31  C27 BCR C 515     -33.157 127.830   4.472  1.00 50.72     0.034 C 
HETATM   32  C28 BCR C 515     -32.053 127.727   5.499  1.00 55.86     0.005 C 
HETATM   33  C29 BCR C 515     -32.536 126.788   6.580  1.00 52.85     0.014 C 
HETATM   34  C30 BCR C 515     -33.693 127.415   7.341  1.00 52.22    -0.020 C 
HETATM   35  C35 BCR C 515     -39.748 141.018   9.477  1.00 45.43     0.048 C 
HETATM   36  C36 BCR C 515     -41.118 134.053   9.004  1.00 42.28     0.048 C 
HETATM   37  C37 BCR C 515     -38.234 129.672   8.568  1.00 46.03     0.048 C 
HETATM   38  C38 BCR C 515     -35.494 128.861   4.238  1.00 45.04     0.044 C 
HETATM   39  C39 BCR C 515     -33.146 128.412   8.350  1.00 52.25     0.020 C 
HETATM   40  C40 BCR C 515     -34.467 126.325   8.054  1.00 47.46     0.020 C 
ENDROOT
TORSDOF 10
