REMARK VINA RESULT:    -8.042      1.678      2.923
REMARK INTER + INTRA:         -10.758
REMARK INTER:                  -8.192
REMARK INTRA:                  -2.566
REMARK UNBOUND:                -2.716
REMARK  0 active torsions:
REMARK  status: ('A' for Active; 'I' for Inactive)
REMARK       I    between atoms: C6_6  and  C7_7 
REMARK       I    between atoms: C8_8  and  C9_9 
REMARK       I    between atoms: C10_10  and  C11_11 
REMARK       I    between atoms: C12_16  and  C13_17 
REMARK       I    between atoms: C14_18  and  C15_19 
REMARK       I    between atoms: C16_20  and  C17_21 
REMARK       I    between atoms: C18_22  and  C19_23 
REMARK       I    between atoms: C20_24  and  C21_25 
REMARK       I    between atoms: C22_26  and  C23_27 
REMARK       I    between atoms: C24_28  and  C25_29 
ROOT
HETATM    1  C1  BCR B 617     -33.836 127.581   7.437  1.00 16.64    -0.020 C 
HETATM    2  C2  BCR B 617     -32.743 126.718   6.840  1.00 16.66     0.014 C 
HETATM    3  C3  BCR B 617     -32.098 127.398   5.673  1.00 16.67     0.005 C 
HETATM    4  C4  BCR B 617     -33.112 127.664   4.597  1.00 16.65     0.034 C 
HETATM    5  C5  BCR B 617     -34.361 128.251   5.133  1.00 16.64    -0.077 C 
HETATM    6  C6  BCR B 617     -34.710 128.247   6.424  1.00 16.61    -0.048 C 
HETATM    7  C7  BCR B 617     -35.975 128.829   6.907  1.00 16.52     0.009 C 
HETATM    8  C8  BCR B 617     -36.113 130.112   7.247  1.00 16.42     0.007 C 
HETATM    9  C9  BCR B 617     -37.318 130.669   7.834  1.00 16.35    -0.062 C 
HETATM   10  C10 BCR B 617     -37.405 131.987   8.051  1.00 16.25     0.007 C 
HETATM   11  C11 BCR B 617     -38.628 132.713   8.296  1.00 16.13     0.001 C 
HETATM   12  C33 BCR B 617     -35.187 128.870   4.083  1.00 16.67     0.044 C 
HETATM   13  C31 BCR B 617     -33.131 128.576   8.338  1.00 16.64     0.020 C 
HETATM   14  C32 BCR B 617     -34.678 126.668   8.298  1.00 16.66     0.020 C 
HETATM   15  C34 BCR B 617     -38.386 129.740   8.231  1.00 16.38     0.048 C 
HETATM   16  C12 BCR B 617     -38.585 133.928   8.866  1.00 15.96     0.007 C 
HETATM   17  C13 BCR B 617     -39.720 134.810   9.022  1.00 15.83    -0.062 C 
HETATM   18  C14 BCR B 617     -39.510 136.092   9.364  1.00 15.70     0.007 C 
HETATM   19  C15 BCR B 617     -40.468 137.162   9.238  1.00 15.54     0.001 C 
HETATM   20  C16 BCR B 617     -40.152 138.421   9.576  1.00 15.40     0.001 C 
HETATM   21  C17 BCR B 617     -41.191 139.419   9.667  1.00 15.27     0.007 C 
HETATM   22  C18 BCR B 617     -41.067 140.748   9.805  1.00 15.19    -0.062 C 
HETATM   23  C19 BCR B 617     -42.274 141.550   9.929  1.00 15.12     0.007 C 
HETATM   24  C20 BCR B 617     -42.279 142.882   9.980  1.00 15.10     0.001 C 
HETATM   25  C21 BCR B 617     -43.541 143.578   9.956  1.00 15.07     0.007 C 
HETATM   26  C22 BCR B 617     -43.753 144.900   9.950  1.00 15.07    -0.062 C 
HETATM   27  C23 BCR B 617     -45.079 145.355  10.318  1.00 15.08     0.007 C 
HETATM   28  C24 BCR B 617     -45.651 146.505   9.946  1.00 15.19     0.009 C 
HETATM   29  C25 BCR B 617     -46.927 147.050  10.429  1.00 15.27    -0.048 C 
HETATM   30  C26 BCR B 617     -48.124 146.558  10.066  1.00 15.33    -0.077 C 
HETATM   31  C27 BCR B 617     -49.436 147.069  10.513  1.00 15.37     0.034 C 
HETATM   32  C28 BCR B 617     -49.334 147.767  11.842  1.00 15.36     0.005 C 
HETATM   33  C29 BCR B 617     -48.193 148.746  11.839  1.00 15.31     0.014 C 
HETATM   34  C30 BCR B 617     -46.847 148.228  11.374  1.00 15.29    -0.020 C 
HETATM   35  C35 BCR B 617     -41.080 134.250   8.958  1.00 15.82     0.048 C 
HETATM   36  C36 BCR B 617     -39.770 141.454   9.734  1.00 15.16     0.048 C 
HETATM   37  C37 BCR B 617     -42.797 145.856   9.361  1.00 15.01     0.048 C 
HETATM   38  C38 BCR B 617     -48.340 145.417   9.146  1.00 15.36     0.044 C 
HETATM   39  C39 BCR B 617     -45.959 147.937  12.577  1.00 15.27     0.020 C 
HETATM   40  C40 BCR B 617     -46.237 149.441  10.689  1.00 15.28     0.020 C 
ENDROOT
TORSDOF 10
