REMARK VINA RESULT:   -11.229      2.117     16.452
REMARK INTER + INTRA:         -13.507
REMARK INTER:                 -11.153
REMARK INTRA:                  -2.353
REMARK UNBOUND:                -2.277
REMARK  0 active torsions:
REMARK  status: ('A' for Active; 'I' for Inactive)
REMARK       I    between atoms: C6_6  and  C7_7 
REMARK       I    between atoms: C8_8  and  C9_9 
REMARK       I    between atoms: C10_10  and  C11_11 
REMARK       I    between atoms: C12_16  and  C13_17 
REMARK       I    between atoms: C14_18  and  C15_19 
REMARK       I    between atoms: C16_20  and  C17_21 
REMARK       I    between atoms: C18_22  and  C19_23 
REMARK       I    between atoms: C20_24  and  C21_25 
REMARK       I    between atoms: C22_26  and  C23_27 
REMARK       I    between atoms: C24_28  and  C25_29 
ROOT
HETATM    1  C1  BCR C 516     -49.175 147.777   9.619  1.00 38.71    -0.020 C 
HETATM    2  C2  BCR C 516     -49.549 149.178  10.093  1.00 40.37     0.014 C 
HETATM    3  C3  BCR C 516     -48.578 149.712  11.130  1.00 39.69     0.005 C 
HETATM    4  C4  BCR C 516     -47.169 149.853  10.577  1.00 41.33     0.034 C 
HETATM    5  C5  BCR C 516     -46.773 148.575   9.865  1.00 43.22    -0.077 C 
HETATM    6  C6  BCR C 516     -47.680 147.630   9.457  1.00 38.85    -0.048 C 
HETATM    7  C7  BCR C 516     -47.150 146.438   8.747  1.00 37.25     0.009 C 
HETATM    8  C8  BCR C 516     -46.330 145.556   9.314  1.00 33.22     0.007 C 
HETATM    9  C9  BCR C 516     -45.783 144.429   8.496  1.00 35.01    -0.062 C 
HETATM   10  C10 BCR C 516     -44.790 143.681   9.009  1.00 35.85     0.007 C 
HETATM   11  C11 BCR C 516     -44.117 142.561   8.325  1.00 37.17     0.001 C 
HETATM   12  C33 BCR C 516     -45.289 148.391   9.638  1.00 40.82     0.044 C 
HETATM   13  C31 BCR C 516     -49.889 147.642   8.281  1.00 36.16     0.020 C 
HETATM   14  C32 BCR C 516     -49.666 146.695  10.574  1.00 40.70     0.020 C 
HETATM   15  C34 BCR C 516     -46.244 144.223   7.077  1.00 34.02     0.048 C 
HETATM   16  C12 BCR C 516     -43.265 141.786   9.018  1.00 35.87     0.007 C 
HETATM   17  C13 BCR C 516     -42.533 140.633   8.433  1.00 34.56    -0.062 C 
HETATM   18  C14 BCR C 516     -41.897 139.779   9.259  1.00 35.22     0.007 C 
HETATM   19  C15 BCR C 516     -41.112 138.618   8.800  1.00 35.10     0.001 C 
HETATM   20  C16 BCR C 516     -40.528 137.735   9.630  1.00 33.14     0.001 C 
HETATM   21  C17 BCR C 516     -39.719 136.617   9.090  1.00 30.41     0.007 C 
HETATM   22  C18 BCR C 516     -39.181 135.595   9.824  1.00 33.67    -0.062 C 
HETATM   23  C19 BCR C 516     -38.375 134.556   9.128  1.00 30.53     0.007 C 
HETATM   24  C20 BCR C 516     -37.567 133.659   9.702  1.00 32.24     0.001 C 
HETATM   25  C21 BCR C 516     -36.800 132.717   8.866  1.00 31.30     0.007 C 
HETATM   26  C22 BCR C 516     -35.987 131.728   9.269  1.00 33.04    -0.062 C 
HETATM   27  C23 BCR C 516     -35.301 130.962   8.199  1.00 28.50     0.007 C 
HETATM   28  C24 BCR C 516     -34.266 130.160   8.439  1.00 30.95     0.009 C 
HETATM   29  C25 BCR C 516     -33.548 129.460   7.338  1.00 30.63    -0.048 C 
HETATM   30  C26 BCR C 516     -34.142 128.563   6.507  1.00 30.70    -0.077 C 
HETATM   31  C27 BCR C 516     -33.386 127.905   5.370  1.00 30.34     0.034 C 
HETATM   32  C28 BCR C 516     -32.053 128.590   5.043  1.00 30.27     0.005 C 
HETATM   33  C29 BCR C 516     -31.292 128.905   6.317  1.00 31.08     0.014 C 
HETATM   34  C30 BCR C 516     -32.107 129.884   7.197  1.00 31.36    -0.020 C 
HETATM   35  C35 BCR C 516     -42.507 140.451   6.930  1.00 39.88     0.048 C 
HETATM   36  C36 BCR C 516     -39.372 135.505  11.341  1.00 32.24     0.048 C 
HETATM   37  C37 BCR C 516     -35.773 131.451  10.744  1.00 34.59     0.048 C 
HETATM   38  C38 BCR C 516     -35.590 128.134   6.681  1.00 34.55     0.044 C 
HETATM   39  C39 BCR C 516     -32.066 131.331   6.649  1.00 33.09     0.020 C 
HETATM   40  C40 BCR C 516     -31.440 129.923   8.576  1.00 32.68     0.020 C 
ENDROOT
TORSDOF 10
