REMARK VINA RESULT:    -5.385      2.628      3.498
REMARK INTER + INTRA:          -9.666
REMARK INTER:                  -3.092
REMARK INTRA:                  -6.573
REMARK UNBOUND:                -4.280
REMARK  0 active torsions:
REMARK  status: ('A' for Active; 'I' for Inactive)
REMARK       I    between atoms: C6_6  and  C7_7 
REMARK       I    between atoms: C8_8  and  C9_9 
REMARK       I    between atoms: C10_10  and  C11_11 
REMARK       I    between atoms: C12_16  and  C13_17 
REMARK       I    between atoms: C14_18  and  C15_19 
REMARK       I    between atoms: C16_20  and  C17_21 
REMARK       I    between atoms: C18_22  and  C19_23 
REMARK       I    between atoms: C20_24  and  C21_25 
REMARK       I    between atoms: C22_26  and  C23_27 
REMARK       I    between atoms: C24_28  and  C25_29 
ROOT
HETATM    1  C1  BCR T 101     -34.222 130.067   6.784  1.00 41.70    -0.020 C 
HETATM    2  C2  BCR T 101     -33.364 128.939   6.223  1.00 42.78     0.014 C 
HETATM    3  C3  BCR T 101     -31.997 128.904   6.829  1.00 41.03     0.005 C 
HETATM    4  C4  BCR T 101     -32.091 128.709   8.310  1.00 43.70     0.034 C 
HETATM    5  C5  BCR T 101     -33.153 129.533   8.927  1.00 45.79    -0.077 C 
HETATM    6  C6  BCR T 101     -34.131 130.175   8.254  1.00 40.49    -0.048 C 
HETATM    7  C7  BCR T 101     -35.175 130.926   8.971  1.00 44.14     0.009 C 
HETATM    8  C8  BCR T 101     -35.697 132.103   8.612  1.00 36.42     0.007 C 
HETATM    9  C9  BCR T 101     -36.612 132.807   9.515  1.00 37.41    -0.062 C 
HETATM   10  C10 BCR T 101     -37.573 133.581   8.988  1.00 30.62     0.007 C 
HETATM   11  C11 BCR T 101     -38.653 134.201   9.698  1.00 28.97     0.001 C 
HETATM   12  C33 BCR T 101     -33.035 129.580  10.409  1.00 43.90     0.044 C 
HETATM   13  C31 BCR T 101     -35.626 129.723   6.333  1.00 32.30     0.020 C 
HETATM   14  C32 BCR T 101     -33.805 131.394   6.169  1.00 43.93     0.020 C 
HETATM   15  C34 BCR T 101     -36.622 132.437  10.955  1.00 35.44     0.048 C 
HETATM   16  C12 BCR T 101     -39.213 135.303   9.181  1.00 28.42     0.007 C 
HETATM   17  C13 BCR T 101     -40.182 136.159   9.863  1.00 29.67    -0.062 C 
HETATM   18  C14 BCR T 101     -41.013 136.952   9.136  1.00 27.65     0.007 C 
HETATM   19  C15 BCR T 101     -41.412 138.300   9.489  1.00 28.48     0.001 C 
HETATM   20  C16 BCR T 101     -42.620 138.782   9.148  1.00 25.66     0.001 C 
HETATM   21  C17 BCR T 101     -42.927 140.194   9.215  1.00 31.53     0.007 C 
HETATM   22  C18 BCR T 101     -43.976 140.816   8.644  1.00 35.11    -0.062 C 
HETATM   23  C19 BCR T 101     -44.539 141.987   9.311  1.00 31.55     0.007 C 
HETATM   24  C20 BCR T 101     -45.110 143.012   8.665  1.00 33.30     0.001 C 
HETATM   25  C21 BCR T 101     -45.515 144.213   9.376  1.00 34.76     0.007 C 
HETATM   26  C22 BCR T 101     -46.096 145.324   8.864  1.00 38.40    -0.062 C 
HETATM   27  C23 BCR T 101     -46.063 146.534   9.687  1.00 37.30     0.007 C 
HETATM   28  C24 BCR T 101     -46.739 147.655   9.431  1.00 34.14     0.009 C 
HETATM   29  C25 BCR T 101     -46.600 148.865  10.241  1.00 34.41    -0.048 C 
HETATM   30  C26 BCR T 101     -46.823 148.856  11.553  1.00 30.82    -0.077 C 
HETATM   31  C27 BCR T 101     -46.671 149.975  12.482  1.00 38.31     0.034 C 
HETATM   32  C28 BCR T 101     -45.835 151.072  11.887  1.00 33.34     0.005 C 
HETATM   33  C29 BCR T 101     -46.321 151.349  10.511  1.00 23.88     0.014 C 
HETATM   34  C30 BCR T 101     -46.208 150.140   9.567  1.00 29.76    -0.020 C 
HETATM   35  C35 BCR T 101     -40.087 136.292  11.331  1.00 34.50     0.048 C 
HETATM   36  C36 BCR T 101     -44.508 140.417   7.321  1.00 32.52     0.048 C 
HETATM   37  C37 BCR T 101     -47.040 145.271   7.723  1.00 33.52     0.048 C 
HETATM   38  C38 BCR T 101     -47.221 147.672  12.310  1.00 36.86     0.044 C 
HETATM   39  C39 BCR T 101     -44.833 150.040   8.930  1.00 35.69     0.020 C 
HETATM   40  C40 BCR T 101     -47.160 150.448   8.427  1.00 29.24     0.020 C 
ENDROOT
TORSDOF 10
