REMARK VINA RESULT:    -8.246      2.846      5.081
REMARK INTER + INTRA:         -14.892
REMARK INTER:                 -12.839
REMARK INTRA:                  -2.052
REMARK UNBOUND:                -6.646
REMARK  0 active torsions:
REMARK  status: ('A' for Active; 'I' for Inactive)
REMARK       I    between atoms: C6_6  and  C7_7 
REMARK       I    between atoms: C8_8  and  C9_9 
REMARK       I    between atoms: C10_10  and  C11_11 
REMARK       I    between atoms: C12_16  and  C13_17 
REMARK       I    between atoms: C14_18  and  C15_19 
REMARK       I    between atoms: C16_20  and  C17_21 
REMARK       I    between atoms: C18_22  and  C19_23 
REMARK       I    between atoms: C20_24  and  C21_25 
REMARK       I    between atoms: C22_26  and  C23_27 
REMARK       I    between atoms: C24_28  and  C25_29 
ROOT
HETATM    1  C1  BCR B 617     -34.029 126.871   6.984  1.00 26.29    -0.020 C 
HETATM    2  C2  BCR B 617     -33.099 126.021   6.132  1.00 24.49     0.014 C 
HETATM    3  C3  BCR B 617     -32.860 126.659   4.783  1.00 22.61     0.005 C 
HETATM    4  C4  BCR B 617     -32.257 128.036   4.909  1.00 25.50     0.034 C 
HETATM    5  C5  BCR B 617     -32.623 128.746   6.182  1.00 27.16    -0.077 C 
HETATM    6  C6  BCR B 617     -33.535 128.284   7.052  1.00 26.27    -0.048 C 
HETATM    7  C7  BCR B 617     -34.102 129.127   8.118  1.00 19.27     0.009 C 
HETATM    8  C8  BCR B 617     -34.924 130.136   7.839  1.00 21.60     0.007 C 
HETATM    9  C9  BCR B 617     -35.516 130.985   8.893  1.00 23.86    -0.062 C 
HETATM   10  C10 BCR B 617     -36.110 132.128   8.542  1.00 19.60     0.007 C 
HETATM   11  C11 BCR B 617     -36.736 133.057   9.467  1.00 18.33     0.001 C 
HETATM   12  C33 BCR B 617     -31.904 130.034   6.433  1.00 29.92     0.044 C 
HETATM   13  C31 BCR B 617     -34.089 126.285   8.385  1.00 24.31     0.020 C 
HETATM   14  C32 BCR B 617     -35.411 126.926   6.354  1.00 18.56     0.020 C 
HETATM   15  C34 BCR B 617     -35.467 130.554  10.323  1.00 23.81     0.048 C 
HETATM   16  C12 BCR B 617     -37.636 133.910   8.976  1.00 17.62     0.007 C 
HETATM   17  C13 BCR B 617     -38.341 134.907   9.796  1.00 18.11    -0.062 C 
HETATM   18  C14 BCR B 617     -39.114 135.832   9.186  1.00 18.92     0.007 C 
HETATM   19  C15 BCR B 617     -39.840 136.870   9.922  1.00 19.09     0.001 C 
HETATM   20  C16 BCR B 617     -40.324 137.968   9.335  1.00 23.01     0.001 C 
HETATM   21  C17 BCR B 617     -41.036 138.960  10.141  1.00 24.11     0.007 C 
HETATM   22  C18 BCR B 617     -41.602 140.092   9.689  1.00 19.95    -0.062 C 
HETATM   23  C19 BCR B 617     -42.284 140.963  10.641  1.00 21.01     0.007 C 
HETATM   24  C20 BCR B 617     -42.847 142.108  10.275  1.00 25.10     0.001 C 
HETATM   25  C21 BCR B 617     -43.525 142.870  11.319  1.00 22.05     0.007 C 
HETATM   26  C22 BCR B 617     -43.982 144.112  11.181  1.00 21.59    -0.062 C 
HETATM   27  C23 BCR B 617     -44.648 144.738  12.328  1.00 25.46     0.007 C 
HETATM   28  C24 BCR B 617     -44.931 146.035  12.330  1.00 27.51     0.009 C 
HETATM   29  C25 BCR B 617     -45.625 146.727  13.437  1.00 24.70    -0.048 C 
HETATM   30  C26 BCR B 617     -45.047 146.967  14.609  1.00 30.61    -0.077 C 
HETATM   31  C27 BCR B 617     -45.760 147.770  15.658  1.00 27.25     0.034 C 
HETATM   32  C28 BCR B 617     -47.160 147.206  15.696  1.00 25.90     0.005 C 
HETATM   33  C29 BCR B 617     -47.850 147.515  14.386  1.00 30.03     0.014 C 
HETATM   34  C30 BCR B 617     -47.020 147.211  13.146  1.00 27.09    -0.020 C 
HETATM   35  C35 BCR B 617     -38.204 134.891  11.286  1.00 15.67     0.048 C 
HETATM   36  C36 BCR B 617     -41.564 140.488   8.257  1.00 21.62     0.048 C 
HETATM   37  C37 BCR B 617     -43.850 144.862   9.893  1.00 24.04     0.048 C 
HETATM   38  C38 BCR B 617     -43.689 146.440  14.933  1.00 30.71     0.044 C 
HETATM   39  C39 BCR B 617     -46.861 148.455  12.291  1.00 28.41     0.020 C 
HETATM   40  C40 BCR B 617     -47.773 146.165  12.346  1.00 28.54     0.020 C 
ENDROOT
TORSDOF 10
