REMARK VINA RESULT:    -7.631      3.086      4.904
REMARK INTER + INTRA:         -14.372
REMARK INTER:                 -11.933
REMARK INTRA:                  -2.439
REMARK UNBOUND:                -6.741
REMARK  0 active torsions:
REMARK  status: ('A' for Active; 'I' for Inactive)
REMARK       I    between atoms: C6_6  and  C7_7 
REMARK       I    between atoms: C8_8  and  C9_9 
REMARK       I    between atoms: C10_10  and  C11_11 
REMARK       I    between atoms: C12_16  and  C13_17 
REMARK       I    between atoms: C14_18  and  C15_19 
REMARK       I    between atoms: C16_20  and  C17_21 
REMARK       I    between atoms: C18_22  and  C19_23 
REMARK       I    between atoms: C20_24  and  C21_25 
REMARK       I    between atoms: C22_26  and  C23_27 
REMARK       I    between atoms: C24_28  and  C25_29 
ROOT
HETATM    1  C1  BCR A 409     -34.108 126.685   6.657  1.00 29.94    -0.020 C 
HETATM    2  C2  BCR A 409     -33.309 125.862   5.642  1.00 30.88     0.014 C 
HETATM    3  C3  BCR A 409     -32.840 126.664   4.440  1.00 32.43     0.005 C 
HETATM    4  C4  BCR A 409     -31.908 127.750   4.957  1.00 29.61     0.034 C 
HETATM    5  C5  BCR A 409     -32.498 128.539   6.122  1.00 28.91    -0.077 C 
HETATM    6  C6  BCR A 409     -33.497 128.051   6.886  1.00 28.39    -0.048 C 
HETATM    7  C7  BCR A 409     -34.078 128.829   8.036  1.00 26.60     0.009 C 
HETATM    8  C8  BCR A 409     -34.671 130.032   7.834  1.00 26.69     0.007 C 
HETATM    9  C9  BCR A 409     -35.292 130.779   8.985  1.00 26.50    -0.062 C 
HETATM   10  C10 BCR A 409     -35.963 131.929   8.683  1.00 23.70     0.007 C 
HETATM   11  C11 BCR A 409     -36.644 132.826   9.637  1.00 23.45     0.001 C 
HETATM   12  C33 BCR A 409     -31.891 129.895   6.358  1.00 28.66     0.044 C 
HETATM   13  C31 BCR A 409     -34.107 125.889   7.972  1.00 29.02     0.020 C 
HETATM   14  C32 BCR A 409     -35.576 126.788   6.218  1.00 26.94     0.020 C 
HETATM   15  C34 BCR A 409     -35.184 130.204  10.386  1.00 25.47     0.048 C 
HETATM   16  C12 BCR A 409     -37.314 133.880   9.084  1.00 22.47     0.007 C 
HETATM   17  C13 BCR A 409     -38.057 134.873   9.874  1.00 24.00    -0.062 C 
HETATM   18  C14 BCR A 409     -38.802 135.803   9.248  1.00 23.35     0.007 C 
HETATM   19  C15 BCR A 409     -39.602 136.851   9.938  1.00 23.49     0.001 C 
HETATM   20  C16 BCR A 409     -40.207 137.834   9.226  1.00 21.92     0.001 C 
HETATM   21  C17 BCR A 409     -41.038 138.776   9.974  1.00 20.40     0.007 C 
HETATM   22  C18 BCR A 409     -41.862 139.730   9.476  1.00 24.23    -0.062 C 
HETATM   23  C19 BCR A 409     -42.677 140.549  10.462  1.00 21.16     0.007 C 
HETATM   24  C20 BCR A 409     -43.224 141.693  10.084  1.00 20.36     0.001 C 
HETATM   25  C21 BCR A 409     -43.953 142.560  10.993  1.00 21.69     0.007 C 
HETATM   26  C22 BCR A 409     -44.307 143.854  10.842  1.00 22.36    -0.062 C 
HETATM   27  C23 BCR A 409     -45.098 144.502  11.938  1.00 21.97     0.007 C 
HETATM   28  C24 BCR A 409     -45.397 145.813  11.936  1.00 20.30     0.009 C 
HETATM   29  C25 BCR A 409     -46.154 146.468  13.021  1.00 19.83    -0.048 C 
HETATM   30  C26 BCR A 409     -47.416 146.034  13.347  1.00 20.22    -0.077 C 
HETATM   31  C27 BCR A 409     -48.265 146.635  14.462  1.00 20.64     0.034 C 
HETATM   32  C28 BCR A 409     -47.360 147.419  15.423  1.00 22.68     0.005 C 
HETATM   33  C29 BCR A 409     -46.537 148.412  14.595  1.00 20.94     0.014 C 
HETATM   34  C30 BCR A 409     -45.513 147.661  13.713  1.00 20.28    -0.020 C 
HETATM   35  C35 BCR A 409     -37.923 134.853  11.379  1.00 25.40     0.048 C 
HETATM   36  C36 BCR A 409     -41.921 140.038   7.991  1.00 22.76     0.048 C 
HETATM   37  C37 BCR A 409     -43.980 144.706   9.647  1.00 25.07     0.048 C 
HETATM   38  C38 BCR A 409     -48.040 144.916  12.586  1.00 20.82     0.044 C 
HETATM   39  C39 BCR A 409     -44.377 147.116  14.568  1.00 22.71     0.020 C 
HETATM   40  C40 BCR A 409     -44.968 148.654  12.663  1.00 21.64     0.020 C 
ENDROOT
TORSDOF 10
