REMARK VINA RESULT:    -9.330      0.000      0.000
REMARK INTER + INTRA:         -16.217
REMARK INTER:                  -9.330
REMARK INTRA:                  -6.888
REMARK UNBOUND:                -6.888
REMARK  0 active torsions:
REMARK  status: ('A' for Active; 'I' for Inactive)
REMARK       I    between atoms: C6_6  and  C7_7 
REMARK       I    between atoms: C8_8  and  C9_9 
REMARK       I    between atoms: C10_10  and  C11_11 
REMARK       I    between atoms: C12_16  and  C13_17 
REMARK       I    between atoms: C14_18  and  C15_19 
REMARK       I    between atoms: C16_20  and  C17_21 
REMARK       I    between atoms: C18_22  and  C19_23 
REMARK       I    between atoms: C20_24  and  C21_25 
REMARK       I    between atoms: C22_26  and  C23_27 
REMARK       I    between atoms: C24_28  and  C25_29 
ROOT
HETATM    1  C1  BCR C 516     -35.220 131.212   8.420  1.00 60.14    -0.020 C 
HETATM    2  C2  BCR C 516     -34.147 130.279   8.979  1.00 60.11     0.014 C 
HETATM    3  C3  BCR C 516     -33.787 130.649  10.407  1.00 65.61     0.005 C 
HETATM    4  C4  BCR C 516     -35.003 130.510  11.305  1.00 64.39     0.034 C 
HETATM    5  C5  BCR C 516     -36.156 131.306  10.750  1.00 60.08    -0.077 C 
HETATM    6  C6  BCR C 516     -36.254 131.627   9.449  1.00 62.75    -0.048 C 
HETATM    7  C7  BCR C 516     -37.428 132.416   8.992  1.00 64.37     0.009 C 
HETATM    8  C8  BCR C 516     -37.483 133.748   9.117  1.00 59.25     0.007 C 
HETATM    9  C9  BCR C 516     -38.671 134.507   8.671  1.00 54.91    -0.062 C 
HETATM   10  C10 BCR C 516     -38.869 135.761   9.115  1.00 64.34     0.007 C 
HETATM   11  C11 BCR C 516     -40.033 136.581   8.750  1.00 58.58     0.001 C 
HETATM   12  C33 BCR C 516     -37.218 131.735  11.726  1.00 50.21     0.044 C 
HETATM   13  C31 BCR C 516     -35.941 130.506   7.279  1.00 59.78     0.020 C 
HETATM   14  C32 BCR C 516     -34.536 132.469   7.910  1.00 52.24     0.020 C 
HETATM   15  C34 BCR C 516     -39.648 133.865   7.734  1.00 59.08     0.048 C 
HETATM   16  C12 BCR C 516     -40.193 137.761   9.360  1.00 54.83     0.007 C 
HETATM   17  C13 BCR C 516     -41.328 138.686   9.114  1.00 56.98    -0.062 C 
HETATM   18  C14 BCR C 516     -41.189 139.994   9.428  1.00 63.19     0.007 C 
HETATM   19  C15 BCR C 516     -42.249 140.993   9.251  1.00 55.13     0.001 C 
HETATM   20  C16 BCR C 516     -42.042 142.275   9.587  1.00 53.01     0.001 C 
HETATM   21  C17 BCR C 516     -43.130 143.244   9.427  1.00 50.24     0.007 C 
HETATM   22  C18 BCR C 516     -43.075 144.553   9.755  1.00 50.44    -0.062 C 
HETATM   23  C19 BCR C 516     -44.300 145.354   9.537  1.00 50.82     0.007 C 
HETATM   24  C20 BCR C 516     -44.446 146.672   9.703  1.00 48.76     0.001 C 
HETATM   25  C21 BCR C 516     -45.789 147.199   9.442  1.00 50.02     0.007 C 
HETATM   26  C22 BCR C 516     -46.168 148.472   9.663  1.00 64.03    -0.062 C 
HETATM   27  C23 BCR C 516     -47.451 148.816   9.407  1.00 59.34     0.007 C 
HETATM   28  C24 BCR C 516     -47.946 150.003   9.767  1.00 49.95     0.009 C 
HETATM   29  C25 BCR C 516     -49.357 150.413   9.550  1.00 53.30    -0.048 C 
HETATM   30  C26 BCR C 516     -49.882 150.704   8.332  1.00 60.66    -0.077 C 
HETATM   31  C27 BCR C 516     -51.322 151.127   8.164  1.00 54.48     0.034 C 
HETATM   32  C28 BCR C 516     -52.139 150.610   9.327  1.00 45.55     0.005 C 
HETATM   33  C29 BCR C 516     -51.516 151.173  10.584  1.00 43.16     0.014 C 
HETATM   34  C30 BCR C 516     -50.171 150.504  10.835  1.00 51.35    -0.020 C 
HETATM   35  C35 BCR C 516     -42.621 138.157   8.553  1.00 47.12     0.048 C 
HETATM   36  C36 BCR C 516     -41.839 145.167  10.345  1.00 50.52     0.048 C 
HETATM   37  C37 BCR C 516     -45.186 149.472  10.209  1.00 47.56     0.048 C 
HETATM   38  C38 BCR C 516     -49.087 150.635   7.053  1.00 50.70     0.044 C 
HETATM   39  C39 BCR C 516     -50.382 149.122  11.465  1.00 39.43     0.020 C 
HETATM   40  C40 BCR C 516     -49.367 151.350  11.812  1.00 46.79     0.020 C 
ENDROOT
TORSDOF 10
