REMARK VINA RESULT:    -8.058      3.327      5.186
REMARK INTER + INTRA:         -14.951
REMARK INTER:                 -12.457
REMARK INTRA:                  -2.494
REMARK UNBOUND:                -6.893
REMARK  0 active torsions:
REMARK  status: ('A' for Active; 'I' for Inactive)
REMARK       I    between atoms: C6_6  and  C7_7 
REMARK       I    between atoms: C8_8  and  C9_9 
REMARK       I    between atoms: C10_10  and  C11_11 
REMARK       I    between atoms: C12_16  and  C13_17 
REMARK       I    between atoms: C14_18  and  C15_19 
REMARK       I    between atoms: C16_20  and  C17_21 
REMARK       I    between atoms: C18_22  and  C19_23 
REMARK       I    between atoms: C20_24  and  C21_25 
REMARK       I    between atoms: C22_26  and  C23_27 
REMARK       I    between atoms: C24_28  and  C25_29 
ROOT
HETATM    1  C1  BCR A 406     -34.061 126.769   6.668  1.00 36.20    -0.020 C 
HETATM    2  C2  BCR A 406     -33.280 125.861   5.698  1.00 35.59     0.014 C 
HETATM    3  C3  BCR A 406     -32.787 126.616   4.494  1.00 39.53     0.005 C 
HETATM    4  C4  BCR A 406     -31.898 127.739   4.944  1.00 31.69     0.034 C 
HETATM    5  C5  BCR A 406     -32.484 128.525   6.055  1.00 27.77    -0.077 C 
HETATM    6  C6  BCR A 406     -33.469 128.118   6.865  1.00 33.79    -0.048 C 
HETATM    7  C7  BCR A 406     -33.992 128.932   7.989  1.00 29.83     0.009 C 
HETATM    8  C8  BCR A 406     -34.873 129.933   7.802  1.00 31.65     0.007 C 
HETATM    9  C9  BCR A 406     -35.266 130.869   8.845  1.00 32.29    -0.062 C 
HETATM   10  C10 BCR A 406     -36.013 131.937   8.526  1.00 27.54     0.007 C 
HETATM   11  C11 BCR A 406     -36.418 132.976   9.442  1.00 33.59     0.001 C 
HETATM   12  C33 BCR A 406     -31.816 129.818   6.212  1.00 32.64     0.044 C 
HETATM   13  C31 BCR A 406     -34.150 126.085   8.013  1.00 30.33     0.020 C 
HETATM   14  C32 BCR A 406     -35.465 126.873   6.144  1.00 39.96     0.020 C 
HETATM   15  C34 BCR A 406     -35.232 130.344  10.215  1.00 32.57     0.048 C 
HETATM   16  C12 BCR A 406     -37.451 133.756   9.094  1.00 30.76     0.007 C 
HETATM   17  C13 BCR A 406     -38.132 134.691   9.961  1.00 32.78    -0.062 C 
HETATM   18  C14 BCR A 406     -38.680 135.772   9.371  1.00 29.28     0.007 C 
HETATM   19  C15 BCR A 406     -39.539 136.726  10.020  1.00 28.52     0.001 C 
HETATM   20  C16 BCR A 406     -40.038 137.788   9.356  1.00 29.07     0.001 C 
HETATM   21  C17 BCR A 406     -41.004 138.620  10.026  1.00 23.66     0.007 C 
HETATM   22  C18 BCR A 406     -41.738 139.593   9.472  1.00 29.00    -0.062 C 
HETATM   23  C19 BCR A 406     -42.424 140.501  10.396  1.00 33.02     0.007 C 
HETATM   24  C20 BCR A 406     -43.152 141.578  10.061  1.00 25.51     0.001 C 
HETATM   25  C21 BCR A 406     -43.434 142.579  11.077  1.00 28.80     0.007 C 
HETATM   26  C22 BCR A 406     -44.072 143.739  10.880  1.00 25.36    -0.062 C 
HETATM   27  C23 BCR A 406     -44.464 144.532  12.049  1.00 34.30     0.007 C 
HETATM   28  C24 BCR A 406     -45.239 145.631  12.002  1.00 25.99     0.009 C 
HETATM   29  C25 BCR A 406     -45.858 146.336  13.134  1.00 30.20    -0.048 C 
HETATM   30  C26 BCR A 406     -47.147 146.120  13.467  1.00 33.40    -0.077 C 
HETATM   31  C27 BCR A 406     -47.932 146.778  14.543  1.00 29.94     0.034 C 
HETATM   32  C28 BCR A 406     -47.084 147.616  15.471  1.00 29.32     0.005 C 
HETATM   33  C29 BCR A 406     -45.907 148.254  14.775  1.00 29.90     0.014 C 
HETATM   34  C30 BCR A 406     -45.053 147.363  13.871  1.00 29.21    -0.020 C 
HETATM   35  C35 BCR A 406     -37.952 134.585  11.438  1.00 30.52     0.048 C 
HETATM   36  C36 BCR A 406     -41.469 139.992   8.071  1.00 29.79     0.048 C 
HETATM   37  C37 BCR A 406     -43.901 144.436   9.595  1.00 34.36     0.048 C 
HETATM   38  C38 BCR A 406     -47.998 145.152  12.747  1.00 29.54     0.044 C 
HETATM   39  C39 BCR A 406     -43.910 146.744  14.622  1.00 30.51     0.020 C 
HETATM   40  C40 BCR A 406     -44.405 148.357  12.933  1.00 35.85     0.020 C 
ENDROOT
TORSDOF 10
