REMARK VINA RESULT:   -10.979      1.634      2.074
REMARK INTER + INTRA:         -13.256
REMARK INTER:                 -10.436
REMARK INTRA:                  -2.821
REMARK UNBOUND:                -2.277
REMARK  0 active torsions:
REMARK  status: ('A' for Active; 'I' for Inactive)
REMARK       I    between atoms: C6_6  and  C7_7 
REMARK       I    between atoms: C8_8  and  C9_9 
REMARK       I    between atoms: C10_10  and  C11_11 
REMARK       I    between atoms: C12_16  and  C13_17 
REMARK       I    between atoms: C14_18  and  C15_19 
REMARK       I    between atoms: C16_20  and  C17_21 
REMARK       I    between atoms: C18_22  and  C19_23 
REMARK       I    between atoms: C20_24  and  C21_25 
REMARK       I    between atoms: C22_26  and  C23_27 
REMARK       I    between atoms: C24_28  and  C25_29 
ROOT
HETATM    1  C1  BCR C 516     -34.696 126.832   6.297  1.00 38.71    -0.020 C 
HETATM    2  C2  BCR C 516     -33.349 126.186   5.988  1.00 40.37     0.014 C 
HETATM    3  C3  BCR C 516     -32.335 127.190   5.473  1.00 39.69     0.005 C 
HETATM    4  C4  BCR C 516     -32.021 128.265   6.500  1.00 41.33     0.034 C 
HETATM    5  C5  BCR C 516     -33.314 128.826   7.059  1.00 43.22    -0.077 C 
HETATM    6  C6  BCR C 516     -34.522 128.187   6.943  1.00 38.85    -0.048 C 
HETATM    7  C7  BCR C 516     -35.701 128.843   7.562  1.00 37.25     0.009 C 
HETATM    8  C8  BCR C 516     -36.171 130.025   7.167  1.00 33.22     0.007 C 
HETATM    9  C9  BCR C 516     -37.316 130.644   7.904  1.00 35.01    -0.062 C 
HETATM   10  C10 BCR C 516     -37.635 131.925   7.643  1.00 35.85     0.007 C 
HETATM   11  C11 BCR C 516     -38.706 132.694   8.302  1.00 37.17     0.001 C 
HETATM   12  C33 BCR C 516     -33.194 130.164   7.754  1.00 40.82     0.044 C 
HETATM   13  C31 BCR C 516     -35.362 125.850   7.251  1.00 36.16     0.020 C 
HETATM   14  C32 BCR C 516     -35.556 126.999   5.049  1.00 40.70     0.020 C 
HETATM   15  C34 BCR C 516     -38.011 129.890   9.007  1.00 34.02     0.048 C 
HETATM   16  C12 BCR C 516     -39.033 133.907   7.822  1.00 35.87     0.007 C 
HETATM   17  C13 BCR C 516     -40.095 134.768   8.404  1.00 34.56    -0.062 C 
HETATM   18  C14 BCR C 516     -40.510 135.847   7.711  1.00 35.22     0.007 C 
HETATM   19  C15 BCR C 516     -41.531 136.795   8.195  1.00 35.10     0.001 C 
HETATM   20  C16 BCR C 516     -41.985 137.838   7.476  1.00 33.14     0.001 C 
HETATM   21  C17 BCR C 516     -42.982 138.771   8.050  1.00 30.41     0.007 C 
HETATM   22  C18 BCR C 516     -43.602 139.787   7.377  1.00 33.67    -0.062 C 
HETATM   23  C19 BCR C 516     -44.570 140.649   8.108  1.00 30.53     0.007 C 
HETATM   24  C20 BCR C 516     -45.055 141.827   7.699  1.00 32.24     0.001 C 
HETATM   25  C21 BCR C 516     -45.980 142.581   8.564  1.00 31.30     0.007 C 
HETATM   26  C22 BCR C 516     -46.596 143.744   8.297  1.00 33.04    -0.062 C 
HETATM   27  C23 BCR C 516     -47.442 144.305   9.380  1.00 28.50     0.007 C 
HETATM   28  C24 BCR C 516     -47.876 145.564   9.374  1.00 30.95     0.009 C 
HETATM   29  C25 BCR C 516     -48.661 146.124  10.510  1.00 30.63    -0.048 C 
HETATM   30  C26 BCR C 516     -49.867 145.634  10.900  1.00 30.70    -0.077 C 
HETATM   31  C27 BCR C 516     -50.615 146.205  12.088  1.00 30.34     0.034 C 
HETATM   32  C28 BCR C 516     -49.750 147.104  12.981  1.00 30.27     0.005 C 
HETATM   33  C29 BCR C 516     -48.924 148.054  12.136  1.00 31.08     0.014 C 
HETATM   34  C30 BCR C 516     -47.963 147.255  11.222  1.00 31.36    -0.020 C 
HETATM   35  C35 BCR C 516     -40.673 134.425   9.760  1.00 39.88     0.048 C 
HETATM   36  C36 BCR C 516     -43.312 140.072   5.900  1.00 32.24     0.048 C 
HETATM   37  C37 BCR C 516     -46.395 144.443   6.966  1.00 34.59     0.048 C 
HETATM   38  C38 BCR C 516     -50.563 144.506  10.154  1.00 34.55     0.044 C 
HETATM   39  C39 BCR C 516     -46.757 146.681  12.004  1.00 33.09     0.020 C 
HETATM   40  C40 BCR C 516     -47.385 148.237  10.196  1.00 32.68     0.020 C 
ENDROOT
TORSDOF 10
