REMARK VINA RESULT:    -6.432      0.436     16.590
REMARK INTER + INTRA:         -12.710
REMARK INTER:                  -7.346
REMARK INTRA:                  -5.364
REMARK UNBOUND:                -6.278
REMARK  0 active torsions:
REMARK  status: ('A' for Active; 'I' for Inactive)
REMARK       I    between atoms: C6_6  and  C7_7 
REMARK       I    between atoms: C8_8  and  C9_9 
REMARK       I    between atoms: C10_10  and  C11_11 
REMARK       I    between atoms: C12_16  and  C13_17 
REMARK       I    between atoms: C14_18  and  C15_19 
REMARK       I    between atoms: C16_20  and  C17_21 
REMARK       I    between atoms: C18_22  and  C19_23 
REMARK       I    between atoms: C20_24  and  C21_25 
REMARK       I    between atoms: C22_26  and  C23_27 
REMARK       I    between atoms: C24_28  and  C25_29 
ROOT
HETATM    1  C1  BCR B 619     -50.068 150.566   8.208  1.00 27.66    -0.020 C 
HETATM    2  C2  BCR B 619     -51.264 151.350   7.673  1.00 27.98     0.014 C 
HETATM    3  C3  BCR B 619     -52.070 150.517   6.694  1.00 25.52     0.005 C 
HETATM    4  C4  BCR B 619     -52.590 149.262   7.385  1.00 19.63     0.034 C 
HETATM    5  C5  BCR B 619     -51.504 148.500   8.121  1.00 32.40    -0.077 C 
HETATM    6  C6  BCR B 619     -50.349 149.091   8.500  1.00 20.68    -0.048 C 
HETATM    7  C7  BCR B 619     -49.262 148.349   9.236  1.00 20.08     0.009 C 
HETATM    8  C8  BCR B 619     -48.665 147.247   8.746  1.00 22.81     0.007 C 
HETATM    9  C9  BCR B 619     -47.577 146.511   9.422  1.00 20.22    -0.062 C 
HETATM   10  C10 BCR B 619     -47.122 145.370   8.858  1.00 19.06     0.007 C 
HETATM   11  C11 BCR B 619     -46.025 144.553   9.393  1.00 16.29     0.001 C 
HETATM   12  C33 BCR B 619     -51.803 147.045   8.415  1.00 23.77     0.044 C 
HETATM   13  C31 BCR B 619     -49.592 151.248   9.487  1.00 21.20     0.020 C 
HETATM   14  C32 BCR B 619     -48.963 150.613   7.169  1.00 23.33     0.020 C 
HETATM   15  C34 BCR B 619     -46.970 147.088  10.670  1.00 16.40     0.048 C 
HETATM   16  C12 BCR B 619     -45.524 143.565   8.632  1.00 25.63     0.007 C 
HETATM   17  C13 BCR B 619     -44.406 142.668   9.042  1.00 24.60    -0.062 C 
HETATM   18  C14 BCR B 619     -44.186 141.517   8.341  1.00 21.11     0.007 C 
HETATM   19  C15 BCR B 619     -43.124 140.525   8.598  1.00 20.94     0.001 C 
HETATM   20  C16 BCR B 619     -43.038 139.320   7.986  1.00 19.81     0.001 C 
HETATM   21  C17 BCR B 619     -41.912 138.428   8.323  1.00 20.06     0.007 C 
HETATM   22  C18 BCR B 619     -41.633 137.245   7.726  1.00 27.17    -0.062 C 
HETATM   23  C19 BCR B 619     -40.455 136.461   8.172  1.00 20.29     0.007 C 
HETATM   24  C20 BCR B 619     -40.121 135.227   7.738  1.00 21.61     0.001 C 
HETATM   25  C21 BCR B 619     -38.913 134.591   8.303  1.00 24.02     0.007 C 
HETATM   26  C22 BCR B 619     -38.583 133.289   8.144  1.00 35.60    -0.062 C 
HETATM   27  C23 BCR B 619     -37.451 132.799   8.714  1.00 23.38     0.007 C 
HETATM   28  C24 BCR B 619     -37.054 131.521   8.599  1.00 28.64     0.009 C 
HETATM   29  C25 BCR B 619     -35.811 130.909   9.180  1.00 39.14    -0.048 C 
HETATM   30  C26 BCR B 619     -35.641 130.687  10.503  1.00 29.93    -0.077 C 
HETATM   31  C27 BCR B 619     -34.391 130.047  11.037  1.00 21.81     0.034 C 
HETATM   32  C28 BCR B 619     -33.196 130.511  10.235  1.00 31.07     0.005 C 
HETATM   33  C29 BCR B 619     -33.374 130.154   8.775  1.00 46.92     0.014 C 
HETATM   34  C30 BCR B 619     -34.739 130.507   8.180  1.00 37.04    -0.020 C 
HETATM   35  C35 BCR B 619     -43.556 143.068  10.220  1.00 15.93     0.048 C 
HETATM   36  C36 BCR B 619     -42.503 136.685   6.642  1.00 15.91     0.048 C 
HETATM   37  C37 BCR B 619     -39.474 132.403   7.323  1.00 38.85     0.048 C 
HETATM   38  C38 BCR B 619     -36.668 131.060  11.525  1.00 32.51     0.044 C 
HETATM   39  C39 BCR B 619     -35.241 129.284   7.421  1.00 49.08     0.020 C 
HETATM   40  C40 BCR B 619     -34.540 131.646   7.193  1.00 46.61     0.020 C 
ENDROOT
TORSDOF 10
