REMARK VINA RESULT:    -9.068      1.597     16.170
REMARK INTER + INTRA:         -12.304
REMARK INTER:                 -11.719
REMARK INTRA:                  -0.585
REMARK UNBOUND:                -3.236
REMARK  0 active torsions:
REMARK  status: ('A' for Active; 'I' for Inactive)
REMARK       I    between atoms: C6_6  and  C7_7 
REMARK       I    between atoms: C8_8  and  C9_9 
REMARK       I    between atoms: C10_10  and  C11_11 
REMARK       I    between atoms: C12_16  and  C13_17 
REMARK       I    between atoms: C14_18  and  C15_19 
REMARK       I    between atoms: C16_20  and  C17_21 
REMARK       I    between atoms: C18_22  and  C19_23 
REMARK       I    between atoms: C20_24  and  C21_25 
REMARK       I    between atoms: C22_26  and  C23_27 
REMARK       I    between atoms: C24_28  and  C25_29 
ROOT
HETATM    1  C1  BCR H 102     -48.129 146.727  12.581  1.00 48.43    -0.020 C 
HETATM    2  C2  BCR H 102     -48.854 147.183  13.830  1.00 45.30     0.014 C 
HETATM    3  C3  BCR H 102     -50.336 147.145  13.634  1.00 43.50     0.005 C 
HETATM    4  C4  BCR H 102     -50.739 145.727  13.369  1.00 33.84     0.034 C 
HETATM    5  C5  BCR H 102     -49.996 145.149  12.237  1.00 31.85    -0.077 C 
HETATM    6  C6  BCR H 102     -48.796 145.583  11.838  1.00 30.25    -0.048 C 
HETATM    7  C7  BCR H 102     -48.053 145.012  10.711  1.00 35.33     0.009 C 
HETATM    8  C8  BCR H 102     -47.835 143.695  10.543  1.00 43.57     0.007 C 
HETATM    9  C9  BCR H 102     -47.108 143.126   9.413  1.00 33.88    -0.062 C 
HETATM   10  C10 BCR H 102     -46.552 141.907   9.487  1.00 37.36     0.007 C 
HETATM   11  C11 BCR H 102     -45.490 141.410   8.637  1.00 39.57     0.001 C 
HETATM   12  C33 BCR H 102     -50.715 143.996  11.637  1.00 42.29     0.044 C 
HETATM   13  C31 BCR H 102     -46.746 146.340  13.056  1.00 39.85     0.020 C 
HETATM   14  C32 BCR H 102     -47.966 147.969  11.735  1.00 37.04     0.020 C 
HETATM   15  C34 BCR H 102     -46.732 144.051   8.325  1.00 43.60     0.048 C 
HETATM   16  C12 BCR H 102     -45.171 140.101   8.651  1.00 44.45     0.007 C 
HETATM   17  C13 BCR H 102     -43.954 139.525   8.104  1.00 40.33    -0.062 C 
HETATM   18  C14 BCR H 102     -43.438 138.413   8.650  1.00 40.69     0.007 C 
HETATM   19  C15 BCR H 102     -42.358 137.616   8.100  1.00 43.47     0.001 C 
HETATM   20  C16 BCR H 102     -41.916 136.572   8.811  1.00 39.77     0.001 C 
HETATM   21  C17 BCR H 102     -40.783 135.819   8.344  1.00 45.28     0.007 C 
HETATM   22  C18 BCR H 102     -40.055 134.951   9.062  1.00 40.17    -0.062 C 
HETATM   23  C19 BCR H 102     -39.032 134.181   8.372  1.00 43.20     0.007 C 
HETATM   24  C20 BCR H 102     -38.035 133.538   8.986  1.00 48.88     0.001 C 
HETATM   25  C21 BCR H 102     -37.232 132.583   8.239  1.00 49.74     0.007 C 
HETATM   26  C22 BCR H 102     -36.278 131.785   8.752  1.00 50.14    -0.062 C 
HETATM   27  C23 BCR H 102     -35.436 131.009   7.836  1.00 44.53     0.007 C 
HETATM   28  C24 BCR H 102     -34.330 130.351   8.222  1.00 55.23     0.009 C 
HETATM   29  C25 BCR H 102     -33.501 129.497   7.363  1.00 54.54    -0.048 C 
HETATM   30  C26 BCR H 102     -32.413 129.965   6.748  1.00 52.60    -0.077 C 
HETATM   31  C27 BCR H 102     -31.506 129.197   5.858  1.00 52.80     0.034 C 
HETATM   32  C28 BCR H 102     -31.635 127.697   5.995  1.00 54.83     0.005 C 
HETATM   33  C29 BCR H 102     -33.068 127.283   6.193  1.00 57.72     0.014 C 
HETATM   34  C30 BCR H 102     -33.892 128.067   7.218  1.00 53.00    -0.020 C 
HETATM   35  C35 BCR H 102     -43.370 140.044   6.856  1.00 52.18     0.048 C 
HETATM   36  C36 BCR H 102     -40.247 134.770  10.520  1.00 35.95     0.048 C 
HETATM   37  C37 BCR H 102     -36.141 131.640  10.227  1.00 46.70     0.048 C 
HETATM   38  C38 BCR H 102     -31.992 131.382   6.894  1.00 55.38     0.044 C 
HETATM   39  C39 BCR H 102     -33.884 127.397   8.572  1.00 45.73     0.020 C 
HETATM   40  C40 BCR H 102     -35.316 127.961   6.717  1.00 63.22     0.020 C 
ENDROOT
TORSDOF 10
