REMARK VINA RESULT:    -9.005      2.860     16.327
REMARK INTER + INTRA:         -11.676
REMARK INTER:                  -8.994
REMARK INTRA:                  -2.682
REMARK UNBOUND:                -2.671
REMARK  0 active torsions:
REMARK  status: ('A' for Active; 'I' for Inactive)
REMARK       I    between atoms: C6_6  and  C7_7 
REMARK       I    between atoms: C8_8  and  C9_9 
REMARK       I    between atoms: C10_10  and  C11_11 
REMARK       I    between atoms: C12_16  and  C13_17 
REMARK       I    between atoms: C14_18  and  C15_19 
REMARK       I    between atoms: C16_20  and  C17_21 
REMARK       I    between atoms: C18_22  and  C19_23 
REMARK       I    between atoms: C20_24  and  C21_25 
REMARK       I    between atoms: C22_26  and  C23_27 
REMARK       I    between atoms: C24_28  and  C25_29 
ROOT
HETATM    1  C1  BCR B 618     -46.046 150.100  11.827  1.00 25.69    -0.020 C 
HETATM    2  C2  BCR B 618     -46.873 151.330  11.576  1.00 30.07     0.014 C 
HETATM    3  C3  BCR B 618     -47.468 151.348  10.180  1.00 28.38     0.005 C 
HETATM    4  C4  BCR B 618     -46.480 151.218   9.053  1.00 25.71     0.034 C 
HETATM    5  C5  BCR B 618     -45.396 150.244   9.386  1.00 24.46    -0.077 C 
HETATM    6  C6  BCR B 618     -45.147 149.851  10.633  1.00 26.24    -0.048 C 
HETATM    7  C7  BCR B 618     -43.958 149.000  10.875  1.00 27.12     0.009 C 
HETATM    8  C8  BCR B 618     -44.130 147.643  10.873  1.00 26.98     0.007 C 
HETATM    9  C9  BCR B 618     -42.954 146.739  10.979  1.00 24.53    -0.062 C 
HETATM   10  C10 BCR B 618     -43.045 145.398  10.775  1.00 24.97     0.007 C 
HETATM   11  C11 BCR B 618     -41.982 144.414  10.840  1.00 25.62     0.001 C 
HETATM   12  C33 BCR B 618     -44.478 149.884   8.263  1.00 29.99     0.044 C 
HETATM   13  C31 BCR B 618     -46.916 148.913  12.134  1.00 31.89     0.020 C 
HETATM   14  C32 BCR B 618     -45.174 150.468  13.058  1.00 28.38     0.020 C 
HETATM   15  C34 BCR B 618     -41.647 147.341  11.320  1.00 33.15     0.048 C 
HETATM   16  C12 BCR B 618     -42.297 143.089  10.633  1.00 26.13     0.007 C 
HETATM   17  C13 BCR B 618     -41.260 142.037  10.624  1.00 22.67    -0.062 C 
HETATM   18  C14 BCR B 618     -41.609 140.741  10.320  1.00 24.59     0.007 C 
HETATM   19  C15 BCR B 618     -40.646 139.626  10.227  1.00 24.70     0.001 C 
HETATM   20  C16 BCR B 618     -41.135 138.434   9.792  1.00 24.56     0.001 C 
HETATM   21  C17 BCR B 618     -40.259 137.323   9.604  1.00 24.82     0.007 C 
HETATM   22  C18 BCR B 618     -40.543 136.078   9.096  1.00 24.84    -0.062 C 
HETATM   23  C19 BCR B 618     -39.438 135.080   9.008  1.00 26.41     0.007 C 
HETATM   24  C20 BCR B 618     -39.508 133.824   8.433  1.00 24.04     0.001 C 
HETATM   25  C21 BCR B 618     -38.297 133.032   8.389  1.00 21.42     0.007 C 
HETATM   26  C22 BCR B 618     -38.196 131.850   7.738  1.00 21.83    -0.062 C 
HETATM   27  C23 BCR B 618     -36.891 131.185   7.808  1.00 24.43     0.007 C 
HETATM   28  C24 BCR B 618     -36.694 129.956   7.329  1.00 24.88     0.009 C 
HETATM   29  C25 BCR B 618     -35.471 129.150   7.526  1.00 27.45    -0.048 C 
HETATM   30  C26 BCR B 618     -34.230 129.639   7.467  1.00 30.30    -0.077 C 
HETATM   31  C27 BCR B 618     -32.977 128.780   7.647  1.00 34.06     0.034 C 
HETATM   32  C28 BCR B 618     -33.246 127.300   7.633  1.00 34.26     0.005 C 
HETATM   33  C29 BCR B 618     -34.513 126.973   8.427  1.00 31.13     0.014 C 
HETATM   34  C30 BCR B 618     -35.732 127.682   7.869  1.00 27.47    -0.020 C 
HETATM   35  C35 BCR B 618     -39.832 142.398  10.927  1.00 24.37     0.048 C 
HETATM   36  C36 BCR B 618     -41.892 135.639   8.656  1.00 25.76     0.048 C 
HETATM   37  C37 BCR B 618     -39.319 131.295   6.949  1.00 22.43     0.048 C 
HETATM   38  C38 BCR B 618     -33.919 131.042   7.075  1.00 29.80     0.044 C 
HETATM   39  C39 BCR B 618     -36.735 127.576   9.028  1.00 24.87     0.020 C 
HETATM   40  C40 BCR B 618     -36.315 126.982   6.642  1.00 29.70     0.020 C 
ENDROOT
TORSDOF 10
