REMARK VINA RESULT:    -6.933      2.977      4.951
REMARK INTER + INTRA:         -13.865
REMARK INTER:                 -11.706
REMARK INTRA:                  -2.159
REMARK UNBOUND:                -6.933
REMARK  0 active torsions:
REMARK  status: ('A' for Active; 'I' for Inactive)
REMARK       I    between atoms: C6_6  and  C7_7 
REMARK       I    between atoms: C8_8  and  C9_9 
REMARK       I    between atoms: C10_10  and  C11_11 
REMARK       I    between atoms: C12_16  and  C13_17 
REMARK       I    between atoms: C14_18  and  C15_19 
REMARK       I    between atoms: C16_20  and  C17_21 
REMARK       I    between atoms: C18_22  and  C19_23 
REMARK       I    between atoms: C20_24  and  C21_25 
REMARK       I    between atoms: C22_26  and  C23_27 
REMARK       I    between atoms: C24_28  and  C25_29 
ROOT
HETATM    1  C1  BCR C 516     -34.772 127.275   5.564  1.00 26.01    -0.020 C 
HETATM    2  C2  BCR C 516     -33.512 126.579   5.099  1.00 26.00     0.014 C 
HETATM    3  C3  BCR C 516     -32.313 127.462   5.254  1.00 26.01     0.005 C 
HETATM    4  C4  BCR C 516     -32.140 127.814   6.706  1.00 26.06     0.034 C 
HETATM    5  C5  BCR C 516     -33.378 128.401   7.258  1.00 26.05    -0.077 C 
HETATM    6  C6  BCR C 516     -34.595 128.189   6.743  1.00 25.99    -0.048 C 
HETATM    7  C7  BCR C 516     -35.811 128.789   7.307  1.00 25.93     0.009 C 
HETATM    8  C8  BCR C 516     -36.196 130.057   7.099  1.00 25.79     0.007 C 
HETATM    9  C9  BCR C 516     -37.135 130.763   7.948  1.00 25.69    -0.062 C 
HETATM   10  C10 BCR C 516     -37.315 132.080   7.778  1.00 25.62     0.007 C 
HETATM   11  C11 BCR C 516     -38.122 132.896   8.655  1.00 25.56     0.001 C 
HETATM   12  C33 BCR C 516     -33.126 129.259   8.433  1.00 26.12     0.044 C 
HETATM   13  C31 BCR C 516     -35.740 126.158   5.894  1.00 25.98     0.020 C 
HETATM   14  C32 BCR C 516     -35.289 128.036   4.363  1.00 26.02     0.020 C 
HETATM   15  C34 BCR C 516     -38.061 129.947   8.748  1.00 25.63     0.048 C 
HETATM   16  C12 BCR C 516     -38.356 134.186   8.393  1.00 25.46     0.007 C 
HETATM   17  C13 BCR C 516     -39.382 134.980   9.038  1.00 25.42    -0.062 C 
HETATM   18  C14 BCR C 516     -39.504 136.282   8.734  1.00 25.36     0.007 C 
HETATM   19  C15 BCR C 516     -40.548 137.163   9.205  1.00 25.30     0.001 C 
HETATM   20  C16 BCR C 516     -40.616 138.441   8.798  1.00 25.21     0.001 C 
HETATM   21  C17 BCR C 516     -41.682 139.296   9.267  1.00 25.08     0.007 C 
HETATM   22  C18 BCR C 516     -41.924 140.573   8.935  1.00 24.90    -0.062 C 
HETATM   23  C19 BCR C 516     -42.712 141.389   9.849  1.00 24.65     0.007 C 
HETATM   24  C20 BCR C 516     -43.199 142.603   9.580  1.00 24.34     0.001 C 
HETATM   25  C21 BCR C 516     -43.934 143.283  10.620  1.00 24.01     0.007 C 
HETATM   26  C22 BCR C 516     -44.316 144.564  10.659  1.00 23.78    -0.062 C 
HETATM   27  C23 BCR C 516     -45.145 144.974  11.786  1.00 23.53     0.007 C 
HETATM   28  C24 BCR C 516     -45.664 146.191  11.987  1.00 23.23     0.009 C 
HETATM   29  C25 BCR C 516     -46.476 146.606  13.136  1.00 23.01    -0.048 C 
HETATM   30  C26 BCR C 516     -47.778 146.309  13.252  1.00 22.93    -0.077 C 
HETATM   31  C27 BCR C 516     -48.675 146.683  14.368  1.00 22.89     0.034 C 
HETATM   32  C28 BCR C 516     -47.929 147.150  15.588  1.00 22.87     0.005 C 
HETATM   33  C29 BCR C 516     -46.778 148.021  15.194  1.00 22.93     0.014 C 
HETATM   34  C30 BCR C 516     -45.794 147.380  14.229  1.00 22.97    -0.020 C 
HETATM   35  C35 BCR C 516     -40.074 134.416  10.206  1.00 25.42     0.048 C 
HETATM   36  C36 BCR C 516     -41.394 141.183   7.701  1.00 24.91     0.048 C 
HETATM   37  C37 BCR C 516     -43.597 145.579   9.861  1.00 23.74     0.048 C 
HETATM   38  C38 BCR C 516     -48.552 145.569  12.239  1.00 22.86     0.044 C 
HETATM   39  C39 BCR C 516     -44.797 146.526  14.985  1.00 22.94     0.020 C 
HETATM   40  C40 BCR C 516     -45.005 148.563  13.683  1.00 22.96     0.020 C 
ENDROOT
TORSDOF 10
