REMARK VINA RESULT:    -6.627      2.466     16.591
REMARK INTER + INTRA:         -13.052
REMARK INTER:                 -10.761
REMARK INTRA:                  -2.291
REMARK UNBOUND:                -6.424
REMARK  0 active torsions:
REMARK  status: ('A' for Active; 'I' for Inactive)
REMARK       I    between atoms: C6_6  and  C7_7 
REMARK       I    between atoms: C8_8  and  C9_9 
REMARK       I    between atoms: C10_10  and  C11_11 
REMARK       I    between atoms: C12_16  and  C13_17 
REMARK       I    between atoms: C14_18  and  C15_19 
REMARK       I    between atoms: C16_20  and  C17_21 
REMARK       I    between atoms: C18_22  and  C19_23 
REMARK       I    between atoms: C20_24  and  C21_25 
REMARK       I    between atoms: C22_26  and  C23_27 
REMARK       I    between atoms: C24_28  and  C25_29 
ROOT
HETATM    1  C1  BCR B 618     -46.104 148.838  10.919  1.00 40.46    -0.020 C 
HETATM    2  C2  BCR B 618     -47.382 149.588  11.304  1.00 38.19     0.014 C 
HETATM    3  C3  BCR B 618     -48.407 148.630  11.872  1.00 37.07     0.005 C 
HETATM    4  C4  BCR B 618     -47.869 147.959  13.106  1.00 35.92     0.034 C 
HETATM    5  C5  BCR B 618     -46.580 147.302  12.810  1.00 36.16    -0.077 C 
HETATM    6  C6  BCR B 618     -45.757 147.679  11.820  1.00 29.04    -0.048 C 
HETATM    7  C7  BCR B 618     -44.472 147.014  11.604  1.00 28.06     0.009 C 
HETATM    8  C8  BCR B 618     -44.395 145.715  11.300  1.00 32.09     0.007 C 
HETATM    9  C9  BCR B 618     -43.155 145.035  10.984  1.00 31.23    -0.062 C 
HETATM   10  C10 BCR B 618     -43.165 143.692  10.862  1.00 30.89     0.007 C 
HETATM   11  C11 BCR B 618     -42.085 142.895  10.315  1.00 28.43     0.001 C 
HETATM   12  C33 BCR B 618     -46.273 146.181  13.717  1.00 38.15     0.044 C 
HETATM   13  C31 BCR B 618     -44.963 149.838  10.865  1.00 41.07     0.020 C 
HETATM   14  C32 BCR B 618     -46.337 148.380   9.496  1.00 40.74     0.020 C 
HETATM   15  C34 BCR B 618     -42.046 145.883  10.485  1.00 31.69     0.048 C 
HETATM   16  C12 BCR B 618     -42.264 141.594  10.025  1.00 29.36     0.007 C 
HETATM   17  C13 BCR B 618     -41.194 140.669   9.655  1.00 25.32    -0.062 C 
HETATM   18  C14 BCR B 618     -41.473 139.384   9.371  1.00 31.04     0.007 C 
HETATM   19  C15 BCR B 618     -40.480 138.339   9.272  1.00 23.63     0.001 C 
HETATM   20  C16 BCR B 618     -40.745 137.151   8.684  1.00 31.26     0.001 C 
HETATM   21  C17 BCR B 618     -39.657 136.194   8.522  1.00 34.11     0.007 C 
HETATM   22  C18 BCR B 618     -39.711 134.845   8.503  1.00 31.18    -0.062 C 
HETATM   23  C19 BCR B 618     -38.520 134.065   8.207  1.00 30.29     0.007 C 
HETATM   24  C20 BCR B 618     -38.476 132.740   8.434  1.00 41.94     0.001 C 
HETATM   25  C21 BCR B 618     -37.599 131.885   7.658  1.00 35.48     0.007 C 
HETATM   26  C22 BCR B 618     -37.198 130.653   7.984  1.00 28.25    -0.062 C 
HETATM   27  C23 BCR B 618     -36.059 130.076   7.274  1.00 31.42     0.007 C 
HETATM   28  C24 BCR B 618     -35.528 128.862   7.537  1.00 38.15     0.009 C 
HETATM   29  C25 BCR B 618     -34.333 128.353   6.846  1.00 34.46    -0.048 C 
HETATM   30  C26 BCR B 618     -33.122 128.682   7.293  1.00 40.95    -0.077 C 
HETATM   31  C27 BCR B 618     -31.841 128.300   6.655  1.00 42.20     0.034 C 
HETATM   32  C28 BCR B 618     -31.920 127.043   5.840  1.00 33.45     0.005 C 
HETATM   33  C29 BCR B 618     -33.219 126.850   5.099  1.00 35.30     0.014 C 
HETATM   34  C30 BCR B 618     -34.501 127.503   5.630  1.00 37.08    -0.020 C 
HETATM   35  C35 BCR B 618     -39.858 141.203   9.335  1.00 27.05     0.048 C 
HETATM   36  C36 BCR B 618     -40.974 134.103   8.554  1.00 33.84     0.048 C 
HETATM   37  C37 BCR B 618     -38.171 129.724   8.589  1.00 39.76     0.048 C 
HETATM   38  C38 BCR B 618     -32.929 129.573   8.474  1.00 35.08     0.044 C 
HETATM   39  C39 BCR B 618     -35.614 126.515   5.880  1.00 43.92     0.020 C 
HETATM   40  C40 BCR B 618     -34.981 128.274   4.409  1.00 41.09     0.020 C 
ENDROOT
TORSDOF 10
