REMARK VINA RESULT:    -6.354      2.830      3.559
REMARK INTER + INTRA:          -9.780
REMARK INTER:                  -6.828
REMARK INTRA:                  -2.952
REMARK UNBOUND:                -3.425
REMARK  0 active torsions:
REMARK  status: ('A' for Active; 'I' for Inactive)
REMARK       I    between atoms: C6_6  and  C7_7 
REMARK       I    between atoms: C8_8  and  C9_9 
REMARK       I    between atoms: C10_10  and  C11_11 
REMARK       I    between atoms: C12_16  and  C13_17 
REMARK       I    between atoms: C14_18  and  C15_19 
REMARK       I    between atoms: C16_20  and  C17_21 
REMARK       I    between atoms: C18_22  and  C19_23 
REMARK       I    between atoms: C20_24  and  C21_25 
REMARK       I    between atoms: C22_26  and  C23_27 
REMARK       I    between atoms: C24_28  and  C25_29 
ROOT
HETATM    1  C1  BCR B 618     -48.904 147.188   9.779  1.00 32.17    -0.020 C 
HETATM    2  C2  BCR B 618     -50.151 148.018  10.066  1.00 31.21     0.014 C 
HETATM    3  C3  BCR B 618     -51.315 147.132  10.477  1.00 25.40     0.005 C 
HETATM    4  C4  BCR B 618     -51.702 146.192   9.343  1.00 32.46     0.034 C 
HETATM    5  C5  BCR B 618     -50.484 145.578   8.678  1.00 24.06    -0.077 C 
HETATM    6  C6  BCR B 618     -49.217 146.022   8.858  1.00 29.25    -0.048 C 
HETATM    7  C7  BCR B 618     -48.082 145.369   8.147  1.00 12.74     0.009 C 
HETATM    8  C8  BCR B 618     -47.389 144.330   8.653  1.00 19.92     0.007 C 
HETATM    9  C9  BCR B 618     -46.263 143.679   7.918  1.00 18.47    -0.062 C 
HETATM   10  C10 BCR B 618     -45.617 142.616   8.450  1.00 19.37     0.007 C 
HETATM   11  C11 BCR B 618     -44.515 141.886   7.792  1.00 24.83     0.001 C 
HETATM   12  C33 BCR B 618     -50.761 144.429   7.759  1.00 28.03     0.044 C 
HETATM   13  C31 BCR B 618     -48.323 146.643  11.082  1.00 29.30     0.020 C 
HETATM   14  C32 BCR B 618     -47.872 148.094   9.123  1.00 21.79     0.020 C 
HETATM   15  C34 BCR B 618     -45.858 144.188   6.564  1.00 26.35     0.048 C 
HETATM   16  C12 BCR B 618     -44.004 140.770   8.366  1.00 21.16     0.007 C 
HETATM   17  C13 BCR B 618     -42.918 139.942   7.762  1.00 24.62    -0.062 C 
HETATM   18  C14 BCR B 618     -42.439 138.849   8.421  1.00 15.54     0.007 C 
HETATM   19  C15 BCR B 618     -41.392 137.921   7.915  1.00 12.82     0.001 C 
HETATM   20  C16 BCR B 618     -41.013 136.819   8.612  1.00 24.30     0.001 C 
HETATM   21  C17 BCR B 618     -40.008 135.858   8.093  1.00 16.13     0.007 C 
HETATM   22  C18 BCR B 618     -39.733 134.651   8.660  1.00 18.31    -0.062 C 
HETATM   23  C19 BCR B 618     -38.735 133.736   8.039  1.00 25.80     0.007 C 
HETATM   24  C20 BCR B 618     -38.503 132.466   8.424  1.00 23.93     0.001 C 
HETATM   25  C21 BCR B 618     -37.483 131.726   7.673  1.00 21.34     0.007 C 
HETATM   26  C22 BCR B 618     -37.191 130.418   7.770  1.00 23.72    -0.062 C 
HETATM   27  C23 BCR B 618     -36.199 129.900   6.982  1.00 17.58     0.007 C 
HETATM   28  C24 BCR B 618     -35.823 128.601   7.000  1.00 13.80     0.009 C 
HETATM   29  C25 BCR B 618     -34.732 127.996   6.173  1.00 25.70    -0.048 C 
HETATM   30  C26 BCR B 618     -34.701 128.077   4.816  1.00 16.18    -0.077 C 
HETATM   31  C27 BCR B 618     -33.587 127.469   3.979  1.00 28.93     0.034 C 
HETATM   32  C28 BCR B 618     -32.776 126.437   4.742  1.00 35.11     0.005 C 
HETATM   33  C29 BCR B 618     -32.394 126.950   6.117  1.00 27.97     0.014 C 
HETATM   34  C30 BCR B 618     -33.640 127.251   6.943  1.00 27.33    -0.020 C 
HETATM   35  C35 BCR B 618     -42.414 140.322   6.391  1.00 11.92     0.048 C 
HETATM   36  C36 BCR B 618     -40.402 134.216   9.931  1.00 19.38     0.048 C 
HETATM   37  C37 BCR B 618     -37.933 129.569   8.764  1.00 13.28     0.048 C 
HETATM   38  C38 BCR B 618     -35.751 128.798   4.019  1.00 17.46     0.044 C 
HETATM   39  C39 BCR B 618     -33.191 128.107   8.116  1.00 25.99     0.020 C 
HETATM   40  C40 BCR B 618     -34.191 125.944   7.500  1.00 23.14     0.020 C 
ENDROOT
TORSDOF 10
