REMARK VINA RESULT:    -9.642      0.000      0.000
REMARK INTER + INTRA:         -15.492
REMARK INTER:                  -9.642
REMARK INTRA:                  -5.850
REMARK UNBOUND:                -5.850
REMARK  0 active torsions:
REMARK  status: ('A' for Active; 'I' for Inactive)
REMARK       I    between atoms: C6_6  and  C7_7 
REMARK       I    between atoms: C8_8  and  C9_9 
REMARK       I    between atoms: C10_10  and  C11_11 
REMARK       I    between atoms: C12_16  and  C13_17 
REMARK       I    between atoms: C14_18  and  C15_19 
REMARK       I    between atoms: C16_20  and  C17_21 
REMARK       I    between atoms: C18_22  and  C19_23 
REMARK       I    between atoms: C20_24  and  C21_25 
REMARK       I    between atoms: C22_26  and  C23_27 
REMARK       I    between atoms: C24_28  and  C25_29 
ROOT
HETATM    1  C1  BCR B 619     -34.614 130.173   7.882  1.00 30.41    -0.020 C 
HETATM    2  C2  BCR B 619     -33.433 129.356   8.470  1.00 29.63     0.014 C 
HETATM    3  C3  BCR B 619     -32.818 130.130   9.652  1.00 28.10     0.005 C 
HETATM    4  C4  BCR B 619     -33.852 130.314  10.783  1.00 30.58     0.034 C 
HETATM    5  C5  BCR B 619     -35.207 130.798  10.276  1.00 27.72    -0.077 C 
HETATM    6  C6  BCR B 619     -35.547 130.740   8.942  1.00 26.65    -0.048 C 
HETATM    7  C7  BCR B 619     -36.846 131.296   8.445  1.00 26.32     0.009 C 
HETATM    8  C8  BCR B 619     -37.257 132.560   8.758  1.00 23.77     0.007 C 
HETATM    9  C9  BCR B 619     -38.522 133.146   8.252  1.00 23.42    -0.062 C 
HETATM   10  C10 BCR B 619     -38.830 134.375   8.695  1.00 22.94     0.007 C 
HETATM   11  C11 BCR B 619     -39.993 135.182   8.279  1.00 21.56     0.001 C 
HETATM   12  C33 BCR B 619     -36.107 131.383  11.347  1.00 25.32     0.044 C 
HETATM   13  C31 BCR B 619     -35.409 129.271   6.956  1.00 32.57     0.020 C 
HETATM   14  C32 BCR B 619     -34.081 131.360   7.071  1.00 28.71     0.020 C 
HETATM   15  C34 BCR B 619     -39.353 132.357   7.241  1.00 22.58     0.048 C 
HETATM   16  C12 BCR B 619     -40.064 136.480   8.674  1.00 19.70     0.007 C 
HETATM   17  C13 BCR B 619     -41.195 137.338   8.266  1.00 21.87    -0.062 C 
HETATM   18  C14 BCR B 619     -41.311 138.555   8.845  1.00 20.70     0.007 C 
HETATM   19  C15 BCR B 619     -42.384 139.538   8.624  1.00 23.20     0.001 C 
HETATM   20  C16 BCR B 619     -42.414 140.806   9.163  1.00 22.02     0.001 C 
HETATM   21  C17 BCR B 619     -43.581 141.667   8.873  1.00 23.03     0.007 C 
HETATM   22  C18 BCR B 619     -43.813 142.910   9.402  1.00 21.71    -0.062 C 
HETATM   23  C19 BCR B 619     -45.008 143.688   8.979  1.00 23.57     0.007 C 
HETATM   24  C20 BCR B 619     -45.273 144.926   9.443  1.00 26.34     0.001 C 
HETATM   25  C21 BCR B 619     -46.457 145.646   8.963  1.00 25.97     0.007 C 
HETATM   26  C22 BCR B 619     -47.035 146.728   9.538  1.00 30.95    -0.062 C 
HETATM   27  C23 BCR B 619     -48.254 147.277   8.857  1.00 33.56     0.007 C 
HETATM   28  C24 BCR B 619     -48.952 148.377   9.249  1.00 40.35     0.009 C 
HETATM   29  C25 BCR B 619     -50.197 148.969   8.586  1.00 41.63    -0.048 C 
HETATM   30  C26 BCR B 619     -51.390 148.307   8.494  1.00 40.62    -0.077 C 
HETATM   31  C27 BCR B 619     -52.597 148.925   7.827  1.00 39.37     0.034 C 
HETATM   32  C28 BCR B 619     -52.177 149.857   6.703  1.00 37.91     0.005 C 
HETATM   33  C29 BCR B 619     -51.340 150.935   7.331  1.00 42.57     0.014 C 
HETATM   34  C30 BCR B 619     -50.087 150.399   8.041  1.00 42.87    -0.020 C 
HETATM   35  C35 BCR B 619     -42.220 136.756   7.265  1.00 21.20     0.048 C 
HETATM   36  C36 BCR B 619     -42.909 143.561  10.452  1.00 21.22     0.048 C 
HETATM   37  C37 BCR B 619     -46.457 147.383  10.803  1.00 32.33     0.048 C 
HETATM   38  C38 BCR B 619     -51.593 146.890   8.974  1.00 44.08     0.044 C 
HETATM   39  C39 BCR B 619     -49.691 151.350   9.208  1.00 45.77     0.020 C 
HETATM   40  C40 BCR B 619     -49.016 150.415   6.985  1.00 41.31     0.020 C 
ENDROOT
TORSDOF 10
