REMARK VINA RESULT:    -7.689      0.000      0.000
REMARK INTER + INTRA:         -14.667
REMARK INTER:                  -7.689
REMARK INTRA:                  -6.978
REMARK UNBOUND:                -6.978
REMARK  0 active torsions:
REMARK  status: ('A' for Active; 'I' for Inactive)
REMARK       I    between atoms: C6_6  and  C7_7 
REMARK       I    between atoms: C8_8  and  C9_9 
REMARK       I    between atoms: C10_10  and  C11_11 
REMARK       I    between atoms: C12_16  and  C13_17 
REMARK       I    between atoms: C14_18  and  C15_19 
REMARK       I    between atoms: C16_20  and  C17_21 
REMARK       I    between atoms: C18_22  and  C19_23 
REMARK       I    between atoms: C20_24  and  C21_25 
REMARK       I    between atoms: C22_26  and  C23_27 
REMARK       I    between atoms: C24_28  and  C25_29 
ROOT
HETATM    1  C1  BCR A 409     -34.985 131.097   8.207  1.00 15.04    -0.020 C 
HETATM    2  C2  BCR A 409     -33.795 130.273   8.670  1.00 15.03     0.014 C 
HETATM    3  C3  BCR A 409     -33.403 130.617  10.074  1.00 15.05     0.005 C 
HETATM    4  C4  BCR A 409     -34.542 130.312  11.003  1.00 15.05     0.034 C 
HETATM    5  C5  BCR A 409     -35.806 130.915  10.523  1.00 15.05    -0.077 C 
HETATM    6  C6  BCR A 409     -36.034 131.303   9.260  1.00 15.04    -0.048 C 
HETATM    7  C7  BCR A 409     -37.320 131.892   8.843  1.00 15.04     0.009 C 
HETATM    8  C8  BCR A 409     -37.634 133.189   8.987  1.00 15.04     0.007 C 
HETATM    9  C9  BCR A 409     -38.924 133.779   8.664  1.00 15.05    -0.062 C 
HETATM   10  C10 BCR A 409     -39.205 135.014   9.096  1.00 15.04     0.007 C 
HETATM   11  C11 BCR A 409     -40.450 135.715   8.874  1.00 15.04     0.001 C 
HETATM   12  C33 BCR A 409     -36.807 131.059  11.594  1.00 15.05     0.044 C 
HETATM   13  C31 BCR A 409     -35.544 130.347   7.018  1.00 15.03     0.020 C 
HETATM   14  C32 BCR A 409     -34.444 132.419   7.699  1.00 15.04     0.020 C 
HETATM   15  C34 BCR A 409     -39.742 133.139   7.619  1.00 15.07     0.048 C 
HETATM   16  C12 BCR A 409     -40.507 137.028   9.116  1.00 15.03     0.007 C 
HETATM   17  C13 BCR A 409     -41.631 137.891   8.832  1.00 15.02    -0.062 C 
HETATM   18  C14 BCR A 409     -41.526 139.200   9.101  1.00 15.00     0.007 C 
HETATM   19  C15 BCR A 409     -42.598 140.141   8.915  1.00 14.99     0.001 C 
HETATM   20  C16 BCR A 409     -42.521 141.354   9.470  1.00 14.98     0.001 C 
HETATM   21  C17 BCR A 409     -43.563 142.301   9.192  1.00 14.98     0.007 C 
HETATM   22  C18 BCR A 409     -43.561 143.607   9.482  1.00 14.98    -0.062 C 
HETATM   23  C19 BCR A 409     -44.676 144.400   9.014  1.00 14.98     0.007 C 
HETATM   24  C20 BCR A 409     -45.012 145.559   9.578  1.00 15.00     0.001 C 
HETATM   25  C21 BCR A 409     -45.973 146.422   8.933  1.00 14.99     0.007 C 
HETATM   26  C22 BCR A 409     -46.709 147.336   9.571  1.00 14.99    -0.062 C 
HETATM   27  C23 BCR A 409     -47.885 147.890   8.924  1.00 14.97     0.007 C 
HETATM   28  C24 BCR A 409     -48.438 149.036   9.338  1.00 14.93     0.009 C 
HETATM   29  C25 BCR A 409     -49.550 149.755   8.731  1.00 14.90    -0.048 C 
HETATM   30  C26 BCR A 409     -49.389 150.566   7.681  1.00 14.90    -0.077 C 
HETATM   31  C27 BCR A 409     -50.439 151.347   7.010  1.00 14.89     0.034 C 
HETATM   32  C28 BCR A 409     -51.814 150.827   7.334  1.00 14.90     0.005 C 
HETATM   33  C29 BCR A 409     -51.929 150.564   8.810  1.00 14.91     0.014 C 
HETATM   34  C30 BCR A 409     -50.899 149.591   9.365  1.00 14.90    -0.020 C 
HETATM   35  C35 BCR A 409     -42.812 137.374   8.119  1.00 15.02     0.048 C 
HETATM   36  C36 BCR A 409     -42.584 144.237  10.392  1.00 14.95     0.048 C 
HETATM   37  C37 BCR A 409     -46.221 147.968  10.810  1.00 15.00     0.048 C 
HETATM   38  C38 BCR A 409     -48.093 150.805   7.021  1.00 14.89     0.044 C 
HETATM   39  C39 BCR A 409     -51.407 148.166   9.253  1.00 14.93     0.020 C 
HETATM   40  C40 BCR A 409     -50.841 149.897  10.850  1.00 14.91     0.020 C 
ENDROOT
TORSDOF 10
