REMARK VINA RESULT:    -6.038      1.772      2.929
REMARK INTER + INTRA:          -8.525
REMARK INTER:                  -9.231
REMARK INTRA:                   0.706
REMARK UNBOUND:                -2.486
REMARK  0 active torsions:
REMARK  status: ('A' for Active; 'I' for Inactive)
REMARK       I    between atoms: C6_6  and  C7_7 
REMARK       I    between atoms: C8_8  and  C9_9 
REMARK       I    between atoms: C10_10  and  C11_11 
REMARK       I    between atoms: C12_16  and  C13_17 
REMARK       I    between atoms: C14_18  and  C15_19 
REMARK       I    between atoms: C16_20  and  C17_21 
REMARK       I    between atoms: C18_22  and  C19_23 
REMARK       I    between atoms: C20_24  and  C21_25 
REMARK       I    between atoms: C22_26  and  C23_27 
REMARK       I    between atoms: C24_28  and  C25_29 
ROOT
HETATM    1  C1  BCR B 616     -33.416 128.271   6.253  1.00 31.32    -0.020 C 
HETATM    2  C2  BCR B 616     -32.752 126.915   6.131  1.00 32.97     0.014 C 
HETATM    3  C3  BCR B 616     -33.754 125.850   6.515  1.00 29.93     0.005 C 
HETATM    4  C4  BCR B 616     -34.045 125.954   7.992  1.00 26.02     0.034 C 
HETATM    5  C5  BCR B 616     -34.309 127.387   8.393  1.00 31.50    -0.077 C 
HETATM    6  C6  BCR B 616     -34.056 128.445   7.601  1.00 32.71    -0.048 C 
HETATM    7  C7  BCR B 616     -34.436 129.791   8.088  1.00 27.07     0.009 C 
HETATM    8  C8  BCR B 616     -35.538 130.415   7.669  1.00 26.19     0.007 C 
HETATM    9  C9  BCR B 616     -35.962 131.734   8.186  1.00 26.80    -0.062 C 
HETATM   10  C10 BCR B 616     -37.159 132.230   7.870  1.00 24.87     0.007 C 
HETATM   11  C11 BCR B 616     -37.645 133.500   8.401  1.00 26.76     0.001 C 
HETATM   12  C33 BCR B 616     -34.876 127.584   9.765  1.00 25.10     0.044 C 
HETATM   13  C31 BCR B 616     -34.480 128.375   5.174  1.00 28.04     0.020 C 
HETATM   14  C32 BCR B 616     -32.373 129.352   6.101  1.00 25.30     0.020 C 
HETATM   15  C34 BCR B 616     -35.090 132.528   9.102  1.00 25.88     0.048 C 
HETATM   16  C12 BCR B 616     -38.844 133.913   8.002  1.00 27.03     0.007 C 
HETATM   17  C13 BCR B 616     -39.510 135.133   8.477  1.00 24.87    -0.062 C 
HETATM   18  C14 BCR B 616     -40.743 135.424   8.029  1.00 25.36     0.007 C 
HETATM   19  C15 BCR B 616     -41.481 136.594   8.495  1.00 24.12     0.001 C 
HETATM   20  C16 BCR B 616     -42.757 136.787   8.188  1.00 24.28     0.001 C 
HETATM   21  C17 BCR B 616     -43.462 137.947   8.706  1.00 25.58     0.007 C 
HETATM   22  C18 BCR B 616     -44.745 138.196   8.417  1.00 28.46    -0.062 C 
HETATM   23  C19 BCR B 616     -45.377 139.388   9.011  1.00 23.05     0.007 C 
HETATM   24  C20 BCR B 616     -46.671 139.673   8.972  1.00 21.86     0.001 C 
HETATM   25  C21 BCR B 616     -47.085 140.897   9.644  1.00 26.78     0.007 C 
HETATM   26  C22 BCR B 616     -48.350 141.261   9.889  1.00 25.31    -0.062 C 
HETATM   27  C23 BCR B 616     -48.615 142.536  10.587  1.00 19.67     0.007 C 
HETATM   28  C24 BCR B 616     -49.855 142.943  10.830  1.00 21.08     0.009 C 
HETATM   29  C25 BCR B 616     -50.213 144.211  11.505  1.00 24.69    -0.048 C 
HETATM   30  C26 BCR B 616     -49.734 144.532  12.705  1.00 24.70    -0.077 C 
HETATM   31  C27 BCR B 616     -49.750 145.958  13.180  1.00 28.87     0.034 C 
HETATM   32  C28 BCR B 616     -51.077 146.580  12.823  1.00 22.34     0.005 C 
HETATM   33  C29 BCR B 616     -51.178 146.567  11.318  1.00 23.43     0.014 C 
HETATM   34  C30 BCR B 616     -51.174 145.143  10.787  1.00 25.38    -0.020 C 
HETATM   35  C35 BCR B 616     -38.823 136.004   9.477  1.00 22.52     0.048 C 
HETATM   36  C36 BCR B 616     -45.516 137.288   7.511  1.00 21.22     0.048 C 
HETATM   37  C37 BCR B 616     -49.476 140.385   9.444  1.00 24.02     0.048 C 
HETATM   38  C38 BCR B 616     -49.179 143.517  13.653  1.00 26.85     0.044 C 
HETATM   39  C39 BCR B 616     -50.794 145.206   9.323  1.00 22.16     0.020 C 
HETATM   40  C40 BCR B 616     -52.583 144.606  10.892  1.00 23.21     0.020 C 
ENDROOT
TORSDOF 10
