REMARK VINA RESULT:    -6.363      2.186      4.034
REMARK INTER + INTRA:         -13.287
REMARK INTER:                 -10.819
REMARK INTRA:                  -2.468
REMARK UNBOUND:                -6.924
REMARK  0 active torsions:
REMARK  status: ('A' for Active; 'I' for Inactive)
REMARK       I    between atoms: C6_6  and  C7_7 
REMARK       I    between atoms: C8_8  and  C9_9 
REMARK       I    between atoms: C10_10  and  C11_11 
REMARK       I    between atoms: C12_16  and  C13_17 
REMARK       I    between atoms: C14_18  and  C15_19 
REMARK       I    between atoms: C16_20  and  C17_21 
REMARK       I    between atoms: C18_22  and  C19_23 
REMARK       I    between atoms: C20_24  and  C21_25 
REMARK       I    between atoms: C22_26  and  C23_27 
REMARK       I    between atoms: C24_28  and  C25_29 
ROOT
HETATM    1  C1  BCR A 610     -34.453 127.373   5.598  1.00 29.59    -0.020 C 
HETATM    2  C2  BCR A 610     -33.167 126.702   5.178  1.00 31.72     0.014 C 
HETATM    3  C3  BCR A 610     -32.066 127.719   5.094  1.00 27.94     0.005 C 
HETATM    4  C4  BCR A 610     -31.852 128.358   6.464  1.00 32.43     0.034 C 
HETATM    5  C5  BCR A 610     -33.135 128.798   7.130  1.00 29.29    -0.077 C 
HETATM    6  C6  BCR A 610     -34.318 128.325   6.767  1.00 25.73    -0.048 C 
HETATM    7  C7  BCR A 610     -35.599 128.844   7.363  1.00 25.66     0.009 C 
HETATM    8  C8  BCR A 610     -35.770 130.170   7.526  1.00 28.04     0.007 C 
HETATM    9  C9  BCR A 610     -37.081 130.724   7.974  1.00 26.85    -0.062 C 
HETATM   10  C10 BCR A 610     -37.323 132.055   7.888  1.00 26.33     0.007 C 
HETATM   11  C11 BCR A 610     -38.600 132.674   8.268  1.00 27.36     0.001 C 
HETATM   12  C33 BCR A 610     -32.929 129.631   8.329  1.00 35.13     0.044 C 
HETATM   13  C31 BCR A 610     -35.401 126.277   5.951  1.00 31.88     0.020 C 
HETATM   14  C32 BCR A 610     -34.981 128.182   4.406  1.00 31.60     0.020 C 
HETATM   15  C34 BCR A 610     -38.100 129.736   8.495  1.00 29.30     0.048 C 
HETATM   16  C12 BCR A 610     -38.720 134.020   8.194  1.00 26.07     0.007 C 
HETATM   17  C13 BCR A 610     -39.910 134.813   8.577  1.00 27.88    -0.062 C 
HETATM   18  C14 BCR A 610     -39.904 136.149   8.274  1.00 26.29     0.007 C 
HETATM   19  C15 BCR A 610     -41.038 137.050   8.515  1.00 24.17     0.001 C 
HETATM   20  C16 BCR A 610     -41.032 138.338   8.134  1.00 25.06     0.001 C 
HETATM   21  C17 BCR A 610     -42.229 139.138   8.373  1.00 23.08     0.007 C 
HETATM   22  C18 BCR A 610     -42.406 140.456   8.062  1.00 25.47    -0.062 C 
HETATM   23  C19 BCR A 610     -43.679 141.148   8.381  1.00 24.27     0.007 C 
HETATM   24  C20 BCR A 610     -43.801 142.457   8.531  1.00 22.34     0.001 C 
HETATM   25  C21 BCR A 610     -45.133 143.043   8.873  1.00 26.05     0.007 C 
HETATM   26  C22 BCR A 610     -45.313 144.389   9.164  1.00 27.30    -0.062 C 
HETATM   27  C23 BCR A 610     -46.705 144.848   9.519  1.00 23.16     0.007 C 
HETATM   28  C24 BCR A 610     -46.949 146.079   9.943  1.00 21.54     0.009 C 
HETATM   29  C25 BCR A 610     -48.274 146.474  10.377  1.00 21.54    -0.048 C 
HETATM   30  C26 BCR A 610     -49.317 146.287   9.535  1.00 20.62    -0.077 C 
HETATM   31  C27 BCR A 610     -50.757 146.664   9.855  1.00 20.11     0.034 C 
HETATM   32  C28 BCR A 610     -50.908 146.900  11.343  1.00 24.80     0.005 C 
HETATM   33  C29 BCR A 610     -49.743 147.739  11.889  1.00 24.65     0.014 C 
HETATM   34  C30 BCR A 610     -48.393 147.059  11.764  1.00 22.24    -0.020 C 
HETATM   35  C35 BCR A 610     -40.991 134.084   9.340  1.00 33.62     0.048 C 
HETATM   36  C36 BCR A 610     -41.340 141.242   7.395  1.00 23.31     0.048 C 
HETATM   37  C37 BCR A 610     -44.126 145.344   9.111  1.00 28.25     0.048 C 
HETATM   38  C38 BCR A 610     -49.140 145.880   8.114  1.00 20.57     0.044 C 
HETATM   39  C39 BCR A 610     -48.232 145.876  12.739  1.00 24.02     0.020 C 
HETATM   40  C40 BCR A 610     -47.354 148.097  11.974  1.00 22.78     0.020 C 
ENDROOT
TORSDOF 10
