REMARK VINA RESULT:    -8.292      2.865      4.822
REMARK INTER + INTRA:         -14.259
REMARK INTER:                 -11.858
REMARK INTRA:                  -2.402
REMARK UNBOUND:                -5.967
REMARK  0 active torsions:
REMARK  status: ('A' for Active; 'I' for Inactive)
REMARK       I    between atoms: C6_6  and  C7_7 
REMARK       I    between atoms: C8_8  and  C9_9 
REMARK       I    between atoms: C10_10  and  C11_11 
REMARK       I    between atoms: C12_16  and  C13_17 
REMARK       I    between atoms: C14_18  and  C15_19 
REMARK       I    between atoms: C16_20  and  C17_21 
REMARK       I    between atoms: C18_22  and  C19_23 
REMARK       I    between atoms: C20_24  and  C21_25 
REMARK       I    between atoms: C22_26  and  C23_27 
REMARK       I    between atoms: C24_28  and  C25_29 
ROOT
HETATM    1  C1  BCR B 618     -44.046 148.450  14.209  1.00 32.08    -0.020 C 
HETATM    2  C2  BCR B 618     -45.170 149.163  14.954  1.00 32.02     0.014 C 
HETATM    3  C3  BCR B 618     -46.069 148.223  15.736  1.00 30.00     0.005 C 
HETATM    4  C4  BCR B 618     -46.424 146.961  14.970  1.00 29.70     0.034 C 
HETATM    5  C5  BCR B 618     -45.903 147.068  13.566  1.00 32.08    -0.077 C 
HETATM    6  C6  BCR B 618     -44.617 147.336  13.389  1.00 29.52    -0.048 C 
HETATM    7  C7  BCR B 618     -43.743 146.608  12.454  1.00 26.64     0.009 C 
HETATM    8  C8  BCR B 618     -43.852 145.316  12.187  1.00 26.25     0.007 C 
HETATM    9  C9  BCR B 618     -42.910 144.713  11.227  1.00 28.38    -0.062 C 
HETATM   10  C10 BCR B 618     -42.677 143.401  11.258  1.00 28.10     0.007 C 
HETATM   11  C11 BCR B 618     -41.754 142.712  10.370  1.00 22.97     0.001 C 
HETATM   12  C33 BCR B 618     -46.851 146.931  12.421  1.00 36.33     0.044 C 
HETATM   13  C31 BCR B 618     -43.007 147.872  15.158  1.00 29.12     0.020 C 
HETATM   14  C32 BCR B 618     -43.396 149.446  13.274  1.00 31.50     0.020 C 
HETATM   15  C34 BCR B 618     -42.230 145.566  10.211  1.00 24.68     0.048 C 
HETATM   16  C12 BCR B 618     -41.762 141.393  10.471  1.00 27.25     0.007 C 
HETATM   17  C13 BCR B 618     -40.905 140.479   9.709  1.00 24.75    -0.062 C 
HETATM   18  C14 BCR B 618     -41.046 139.165   9.882  1.00 20.67     0.007 C 
HETATM   19  C15 BCR B 618     -40.189 138.225   9.187  1.00 20.47     0.001 C 
HETATM   20  C16 BCR B 618     -40.190 136.956   9.555  1.00 22.70     0.001 C 
HETATM   21  C17 BCR B 618     -39.301 136.017   8.906  1.00 22.25     0.007 C 
HETATM   22  C18 BCR B 618     -39.344 134.705   9.140  1.00 26.36    -0.062 C 
HETATM   23  C19 BCR B 618     -38.368 133.834   8.469  1.00 25.59     0.007 C 
HETATM   24  C20 BCR B 618     -38.374 132.513   8.561  1.00 24.27     0.001 C 
HETATM   25  C21 BCR B 618     -37.313 131.816   7.860  1.00 23.38     0.007 C 
HETATM   26  C22 BCR B 618     -37.134 130.493   7.860  1.00 27.07    -0.062 C 
HETATM   27  C23 BCR B 618     -35.980 129.950   7.118  1.00 25.86     0.007 C 
HETATM   28  C24 BCR B 618     -35.474 128.734   7.313  1.00 25.72     0.009 C 
HETATM   29  C25 BCR B 618     -34.284 128.242   6.575  1.00 30.28    -0.048 C 
HETATM   30  C26 BCR B 618     -33.073 128.635   6.971  1.00 31.25    -0.077 C 
HETATM   31  C27 BCR B 618     -31.848 127.895   6.526  1.00 29.22     0.034 C 
HETATM   32  C28 BCR B 618     -31.974 127.687   5.038  1.00 25.82     0.005 C 
HETATM   33  C29 BCR B 618     -33.140 126.758   4.810  1.00 26.07     0.014 C 
HETATM   34  C30 BCR B 618     -34.440 127.279   5.417  1.00 28.46    -0.020 C 
HETATM   35  C35 BCR B 618     -39.865 141.011   8.780  1.00 18.72     0.048 C 
HETATM   36  C36 BCR B 618     -40.346 134.130  10.085  1.00 23.59     0.048 C 
HETATM   37  C37 BCR B 618     -38.066 129.598   8.603  1.00 34.23     0.048 C 
HETATM   38  C38 BCR B 618     -32.866 129.816   7.864  1.00 29.70     0.044 C 
HETATM   39  C39 BCR B 618     -35.199 126.063   5.913  1.00 35.43     0.020 C 
HETATM   40  C40 BCR B 618     -35.216 127.985   4.328  1.00 25.20     0.020 C 
ENDROOT
TORSDOF 10
