REMARK VINA RESULT:   -11.554      1.506      2.428
REMARK INTER + INTRA:         -13.924
REMARK INTER:                 -10.778
REMARK INTRA:                  -3.146
REMARK UNBOUND:                -2.370
REMARK  0 active torsions:
REMARK  status: ('A' for Active; 'I' for Inactive)
REMARK       I    between atoms: C6_6  and  C7_7 
REMARK       I    between atoms: C8_8  and  C9_9 
REMARK       I    between atoms: C10_10  and  C11_11 
REMARK       I    between atoms: C12_16  and  C13_17 
REMARK       I    between atoms: C14_18  and  C15_19 
REMARK       I    between atoms: C16_20  and  C17_21 
REMARK       I    between atoms: C18_22  and  C19_23 
REMARK       I    between atoms: C20_24  and  C21_25 
REMARK       I    between atoms: C22_26  and  C23_27 
REMARK       I    between atoms: C24_28  and  C25_29 
ROOT
HETATM    1  C1  BCR B 620     -43.559 149.040  12.102  1.00 39.28    -0.020 C 
HETATM    2  C2  BCR B 620     -43.664 150.116  13.210  1.00 40.89     0.014 C 
HETATM    3  C3  BCR B 620     -43.635 149.583  14.637  1.00 44.35     0.005 C 
HETATM    4  C4  BCR B 620     -44.711 148.517  14.794  1.00 42.84     0.034 C 
HETATM    5  C5  BCR B 620     -44.692 147.459  13.704  1.00 41.10    -0.077 C 
HETATM    6  C6  BCR B 620     -44.165 147.684  12.473  1.00 36.33    -0.048 C 
HETATM    7  C7  BCR B 620     -44.162 146.615  11.425  1.00 36.01     0.009 C 
HETATM    8  C8  BCR B 620     -43.509 145.435  11.599  1.00 32.86     0.007 C 
HETATM    9  C9  BCR B 620     -43.444 144.402  10.524  1.00 29.92    -0.062 C 
HETATM   10  C10 BCR B 620     -42.731 143.270  10.767  1.00 29.24     0.007 C 
HETATM   11  C11 BCR B 620     -42.469 142.159   9.815  1.00 31.72     0.001 C 
HETATM   12  C33 BCR B 620     -45.297 146.139  14.100  1.00 37.40     0.044 C 
HETATM   13  C31 BCR B 620     -42.089 148.916  11.656  1.00 36.18     0.020 C 
HETATM   14  C32 BCR B 620     -44.409 149.575  10.983  1.00 36.19     0.020 C 
HETATM   15  C34 BCR B 620     -44.105 144.711   9.210  1.00 28.93     0.048 C 
HETATM   16  C12 BCR B 620     -41.711 141.149  10.277  1.00 27.46     0.007 C 
HETATM   17  C13 BCR B 620     -41.279 139.999   9.466  1.00 29.36    -0.062 C 
HETATM   18  C14 BCR B 620     -40.661 138.942  10.086  1.00 27.29     0.007 C 
HETATM   19  C15 BCR B 620     -40.112 137.788   9.329  1.00 28.74     0.001 C 
HETATM   20  C16 BCR B 620     -39.389 136.861   9.986  1.00 28.84     0.001 C 
HETATM   21  C17 BCR B 620     -38.762 135.729   9.335  1.00 29.32     0.007 C 
HETATM   22  C18 BCR B 620     -38.091 134.744   9.985  1.00 29.55    -0.062 C 
HETATM   23  C19 BCR B 620     -37.474 133.688   9.136  1.00 22.58     0.007 C 
HETATM   24  C20 BCR B 620     -36.731 132.688   9.630  1.00 23.28     0.001 C 
HETATM   25  C21 BCR B 620     -36.167 131.715   8.672  1.00 23.94     0.007 C 
HETATM   26  C22 BCR B 620     -35.471 130.586   8.933  1.00 25.90    -0.062 C 
HETATM   27  C23 BCR B 620     -34.983 129.792   7.748  1.00 28.72     0.007 C 
HETATM   28  C24 BCR B 620     -33.983 128.895   7.921  1.00 28.32     0.009 C 
HETATM   29  C25 BCR B 620     -33.482 128.107   6.766  1.00 33.05    -0.048 C 
HETATM   30  C26 BCR B 620     -32.648 128.746   5.902  1.00 37.74    -0.077 C 
HETATM   31  C27 BCR B 620     -32.066 128.075   4.671  1.00 37.67     0.034 C 
HETATM   32  C28 BCR B 620     -32.856 126.799   4.279  1.00 35.24     0.005 C 
HETATM   33  C29 BCR B 620     -33.086 125.946   5.512  1.00 34.85     0.014 C 
HETATM   34  C30 BCR B 620     -33.904 126.645   6.629  1.00 34.25    -0.020 C 
HETATM   35  C35 BCR B 620     -41.475 140.068   7.952  1.00 27.99     0.048 C 
HETATM   36  C36 BCR B 620     -37.994 134.690  11.511  1.00 31.23     0.048 C 
HETATM   37  C37 BCR B 620     -35.170 130.034  10.321  1.00 27.96     0.048 C 
HETATM   38  C38 BCR B 620     -32.291 130.199   6.174  1.00 37.19     0.044 C 
HETATM   39  C39 BCR B 620     -33.646 125.918   7.972  1.00 34.55     0.020 C 
HETATM   40  C40 BCR B 620     -35.428 126.555   6.364  1.00 30.35     0.020 C 
ENDROOT
TORSDOF 10
