REMARK VINA RESULT:    -8.135      0.000      0.000
REMARK INTER + INTRA:         -12.708
REMARK INTER:                  -8.135
REMARK INTRA:                  -4.573
REMARK UNBOUND:                -4.573
REMARK  0 active torsions:
REMARK  status: ('A' for Active; 'I' for Inactive)
REMARK       I    between atoms: C6_6  and  C7_7 
REMARK       I    between atoms: C8_8  and  C9_9 
REMARK       I    between atoms: C10_10  and  C11_11 
REMARK       I    between atoms: C12_16  and  C13_17 
REMARK       I    between atoms: C14_18  and  C15_19 
REMARK       I    between atoms: C16_20  and  C17_21 
REMARK       I    between atoms: C18_22  and  C19_23 
REMARK       I    between atoms: C20_24  and  C21_25 
REMARK       I    between atoms: C22_26  and  C23_27 
REMARK       I    between atoms: C24_28  and  C25_29 
ROOT
HETATM    1  C1  BCR C 514     -48.133 147.983  10.119  1.00 35.58    -0.020 C 
HETATM    2  C2  BCR C 514     -49.199 148.843  10.711  1.00 41.22     0.014 C 
HETATM    3  C3  BCR C 514     -49.889 148.253  11.906  1.00 43.51     0.005 C 
HETATM    4  C4  BCR C 514     -50.435 146.874  11.645  1.00 41.68     0.034 C 
HETATM    5  C5  BCR C 514     -49.608 146.041  10.693  1.00 42.53    -0.077 C 
HETATM    6  C6  BCR C 514     -48.593 146.555   9.944  1.00 37.16    -0.048 C 
HETATM    7  C7  BCR C 514     -47.829 145.705   9.018  1.00 40.52     0.009 C 
HETATM    8  C8  BCR C 514     -47.168 144.645   9.519  1.00 40.92     0.007 C 
HETATM    9  C9  BCR C 514     -46.282 143.825   8.613  1.00 42.01    -0.062 C 
HETATM   10  C10 BCR C 514     -45.613 142.832   9.133  1.00 37.28     0.007 C 
HETATM   11  C11 BCR C 514     -44.748 141.941   8.338  1.00 41.23     0.001 C 
HETATM   12  C33 BCR C 514     -50.179 144.669  10.502  1.00 40.30     0.044 C 
HETATM   13  C31 BCR C 514     -46.986 147.922  11.119  1.00 39.42     0.020 C 
HETATM   14  C32 BCR C 514     -47.770 148.611   8.751  1.00 41.23     0.020 C 
HETATM   15  C34 BCR C 514     -46.238 144.084   7.121  1.00 46.73     0.048 C 
HETATM   16  C12 BCR C 514     -44.138 140.906   8.916  1.00 43.50     0.007 C 
HETATM   17  C13 BCR C 514     -43.306 139.933   8.205  1.00 41.12    -0.062 C 
HETATM   18  C14 BCR C 514     -42.715 138.945   8.918  1.00 37.55     0.007 C 
HETATM   19  C15 BCR C 514     -41.852 137.872   8.329  1.00 39.88     0.001 C 
HETATM   20  C16 BCR C 514     -41.248 136.979   9.117  1.00 39.12     0.001 C 
HETATM   21  C17 BCR C 514     -40.414 135.908   8.585  1.00 41.68     0.007 C 
HETATM   22  C18 BCR C 514     -39.615 135.023   9.248  1.00 39.37    -0.062 C 
HETATM   23  C19 BCR C 514     -38.834 134.020   8.459  1.00 44.12     0.007 C 
HETATM   24  C20 BCR C 514     -37.968 133.129   8.992  1.00 37.68     0.001 C 
HETATM   25  C21 BCR C 514     -37.237 132.196   8.104  1.00 39.34     0.007 C 
HETATM   26  C22 BCR C 514     -36.221 131.411   8.570  1.00 42.90    -0.062 C 
HETATM   27  C23 BCR C 514     -35.548 130.524   7.575  1.00 39.44     0.007 C 
HETATM   28  C24 BCR C 514     -34.445 129.783   7.964  1.00 55.37     0.009 C 
HETATM   29  C25 BCR C 514     -33.798 129.033   6.859  1.00 47.75    -0.048 C 
HETATM   30  C26 BCR C 514     -34.522 128.380   5.971  1.00 47.05    -0.077 C 
HETATM   31  C27 BCR C 514     -34.009 128.158   4.589  1.00 57.69     0.034 C 
HETATM   32  C28 BCR C 514     -32.717 127.431   4.726  1.00 50.11     0.005 C 
HETATM   33  C29 BCR C 514     -31.752 128.114   5.684  1.00 48.72     0.014 C 
HETATM   34  C30 BCR C 514     -32.329 129.173   6.614  1.00 46.83    -0.020 C 
HETATM   35  C35 BCR C 514     -43.232 140.023   6.710  1.00 42.11     0.048 C 
HETATM   36  C36 BCR C 514     -39.552 135.018  10.740  1.00 38.24     0.048 C 
HETATM   37  C37 BCR C 514     -35.864 131.373  10.034  1.00 31.50     0.048 C 
HETATM   38  C38 BCR C 514     -35.816 127.717   6.247  1.00 38.56     0.044 C 
HETATM   39  C39 BCR C 514     -32.139 130.565   5.983  1.00 46.44     0.020 C 
HETATM   40  C40 BCR C 514     -31.617 129.122   7.958  1.00 48.77     0.020 C 
ENDROOT
TORSDOF 10
