REMARK VINA RESULT:    -7.792      1.883      2.177
REMARK INTER + INTRA:         -12.365
REMARK INTER:                  -7.720
REMARK INTRA:                  -4.646
REMARK UNBOUND:                -4.573
REMARK  0 active torsions:
REMARK  status: ('A' for Active; 'I' for Inactive)
REMARK       I    between atoms: C6_6  and  C7_7 
REMARK       I    between atoms: C8_8  and  C9_9 
REMARK       I    between atoms: C10_10  and  C11_11 
REMARK       I    between atoms: C12_16  and  C13_17 
REMARK       I    between atoms: C14_18  and  C15_19 
REMARK       I    between atoms: C16_20  and  C17_21 
REMARK       I    between atoms: C18_22  and  C19_23 
REMARK       I    between atoms: C20_24  and  C21_25 
REMARK       I    between atoms: C22_26  and  C23_27 
REMARK       I    between atoms: C24_28  and  C25_29 
ROOT
HETATM    1  C1  BCR C 514     -45.043 148.019  12.048  1.00 35.58    -0.020 C 
HETATM    2  C2  BCR C 514     -45.830 148.990  12.863  1.00 41.22     0.014 C 
HETATM    3  C3  BCR C 514     -46.226 148.492  14.222  1.00 43.51     0.005 C 
HETATM    4  C4  BCR C 514     -46.944 147.169  14.173  1.00 41.68     0.034 C 
HETATM    5  C5  BCR C 514     -46.480 146.242  13.072  1.00 42.53    -0.077 C 
HETATM    6  C6  BCR C 514     -45.661 146.641  12.061  1.00 37.16    -0.048 C 
HETATM    7  C7  BCR C 514     -45.252 145.705  11.002  1.00 40.52     0.009 C 
HETATM    8  C8  BCR C 514     -44.580 144.593  11.356  1.00 40.92     0.007 C 
HETATM    9  C9  BCR C 514     -44.046 143.675  10.284  1.00 42.01    -0.062 C 
HETATM   10  C10 BCR C 514     -43.355 142.629  10.650  1.00 37.28     0.007 C 
HETATM   11  C11 BCR C 514     -42.818 141.645   9.693  1.00 41.23     0.001 C 
HETATM   12  C33 BCR C 514     -47.204 144.931  13.098  1.00 40.30     0.044 C 
HETATM   13  C31 BCR C 514     -43.680 147.863  12.710  1.00 39.42     0.020 C 
HETATM   14  C32 BCR C 514     -45.003 148.586  10.607  1.00 41.23     0.020 C 
HETATM   15  C34 BCR C 514     -44.379 143.903   8.824  1.00 46.73     0.048 C 
HETATM   16  C12 BCR C 514     -42.173 140.563  10.133  1.00 43.50     0.007 C 
HETATM   17  C13 BCR C 514     -41.652 139.502   9.270  1.00 41.12    -0.062 C 
HETATM   18  C14 BCR C 514     -40.985 138.472   9.842  1.00 37.55     0.007 C 
HETATM   19  C15 BCR C 514     -40.411 137.310   9.092  1.00 39.88     0.001 C 
HETATM   20  C16 BCR C 514     -39.702 136.375   9.730  1.00 39.12     0.001 C 
HETATM   21  C17 BCR C 514     -39.141 135.218   9.043  1.00 41.68     0.007 C 
HETATM   22  C18 BCR C 514     -38.278 134.270   9.508  1.00 39.37    -0.062 C 
HETATM   23  C19 BCR C 514     -37.830 133.182   8.584  1.00 44.12     0.007 C 
HETATM   24  C20 BCR C 514     -36.937 132.219   8.906  1.00 37.68     0.001 C 
HETATM   25  C21 BCR C 514     -36.557 131.203   7.897  1.00 39.34     0.007 C 
HETATM   26  C22 BCR C 514     -35.530 130.330   8.111  1.00 42.90    -0.062 C 
HETATM   27  C23 BCR C 514     -35.230 129.364   7.012  1.00 39.44     0.007 C 
HETATM   28  C24 BCR C 514     -34.135 128.524   7.127  1.00 55.37     0.009 C 
HETATM   29  C25 BCR C 514     -33.878 127.696   5.923  1.00 47.75    -0.048 C 
HETATM   30  C26 BCR C 514     -34.869 127.103   5.286  1.00 47.05    -0.077 C 
HETATM   31  C27 BCR C 514     -34.766 126.808   3.829  1.00 57.69     0.034 C 
HETATM   32  C28 BCR C 514     -33.556 125.959   3.650  1.00 50.11     0.005 C 
HETATM   33  C29 BCR C 514     -32.312 126.560   4.289  1.00 48.72     0.014 C 
HETATM   34  C30 BCR C 514     -32.521 127.686   5.292  1.00 46.83    -0.020 C 
HETATM   35  C35 BCR C 514     -41.972 139.559   7.806  1.00 42.11     0.048 C 
HETATM   36  C36 BCR C 514     -37.819 134.284  10.929  1.00 38.24     0.048 C 
HETATM   37  C37 BCR C 514     -34.800 130.281   9.429  1.00 31.50     0.048 C 
HETATM   38  C38 BCR C 514     -36.096 126.575   5.923  1.00 38.56     0.044 C 
HETATM   39  C39 BCR C 514     -32.381 129.042   4.575  1.00 46.44     0.020 C 
HETATM   40  C40 BCR C 514     -31.484 127.588   6.402  1.00 48.77     0.020 C 
ENDROOT
TORSDOF 10
