REMARK VINA RESULT:   -10.945      1.523      2.354
REMARK INTER + INTRA:         -13.982
REMARK INTER:                 -10.771
REMARK INTRA:                  -3.212
REMARK UNBOUND:                -3.037
REMARK  0 active torsions:
REMARK  status: ('A' for Active; 'I' for Inactive)
REMARK       I    between atoms: C6_6  and  C7_7 
REMARK       I    between atoms: C8_8  and  C9_9 
REMARK       I    between atoms: C10_10  and  C11_11 
REMARK       I    between atoms: C12_16  and  C13_17 
REMARK       I    between atoms: C14_18  and  C15_19 
REMARK       I    between atoms: C16_20  and  C17_21 
REMARK       I    between atoms: C18_22  and  C19_23 
REMARK       I    between atoms: C20_24  and  C21_25 
REMARK       I    between atoms: C22_26  and  C23_27 
REMARK       I    between atoms: C24_28  and  C25_29 
ROOT
HETATM    1  C1  BCR A 407     -34.705 127.015   5.387  1.00 28.23    -0.020 C 
HETATM    2  C2  BCR A 407     -33.479 126.395   4.734  1.00 26.63     0.014 C 
HETATM    3  C3  BCR A 407     -32.319 127.367   4.718  1.00 25.93     0.005 C 
HETATM    4  C4  BCR A 407     -31.953 127.636   6.153  1.00 23.77     0.034 C 
HETATM    5  C5  BCR A 407     -33.118 128.248   6.869  1.00 26.68    -0.077 C 
HETATM    6  C6  BCR A 407     -34.386 127.974   6.515  1.00 30.50    -0.048 C 
HETATM    7  C7  BCR A 407     -35.507 128.590   7.258  1.00 26.48     0.009 C 
HETATM    8  C8  BCR A 407     -35.948 129.829   7.031  1.00 26.44     0.007 C 
HETATM    9  C9  BCR A 407     -37.066 130.413   7.812  1.00 31.91    -0.062 C 
HETATM   10  C10 BCR A 407     -37.235 131.746   7.837  1.00 26.39     0.007 C 
HETATM   11  C11 BCR A 407     -38.266 132.486   8.563  1.00 23.46     0.001 C 
HETATM   12  C33 BCR A 407     -32.806 129.152   8.015  1.00 20.48     0.044 C 
HETATM   13  C31 BCR A 407     -35.569 125.907   5.956  1.00 26.58     0.020 C 
HETATM   14  C32 BCR A 407     -35.443 127.776   4.305  1.00 24.38     0.020 C 
HETATM   15  C34 BCR A 407     -37.993 129.513   8.562  1.00 31.33     0.048 C 
HETATM   16  C12 BCR A 407     -38.376 133.791   8.319  1.00 19.64     0.007 C 
HETATM   17  C13 BCR A 407     -39.359 134.681   8.958  1.00 19.50    -0.062 C 
HETATM   18  C14 BCR A 407     -39.493 135.936   8.517  1.00 21.08     0.007 C 
HETATM   19  C15 BCR A 407     -40.445 136.898   9.059  1.00 20.35     0.001 C 
HETATM   20  C16 BCR A 407     -40.429 138.179   8.689  1.00 19.61     0.001 C 
HETATM   21  C17 BCR A 407     -41.430 139.097   9.220  1.00 24.39     0.007 C 
HETATM   22  C18 BCR A 407     -41.469 140.402   8.917  1.00 24.75    -0.062 C 
HETATM   23  C19 BCR A 407     -42.549 141.247   9.484  1.00 22.75     0.007 C 
HETATM   24  C20 BCR A 407     -42.684 142.562   9.302  1.00 20.02     0.001 C 
HETATM   25  C21 BCR A 407     -43.825 143.228   9.924  1.00 24.21     0.007 C 
HETATM   26  C22 BCR A 407     -44.024 144.547  10.085  1.00 23.81    -0.062 C 
HETATM   27  C23 BCR A 407     -45.282 145.025  10.731  1.00 24.49     0.007 C 
HETATM   28  C24 BCR A 407     -45.554 146.307  11.010  1.00 22.45     0.009 C 
HETATM   29  C25 BCR A 407     -46.810 146.807  11.629  1.00 22.37    -0.048 C 
HETATM   30  C26 BCR A 407     -47.863 147.053  10.840  1.00 25.07    -0.077 C 
HETATM   31  C27 BCR A 407     -49.117 147.694  11.380  1.00 22.42     0.034 C 
HETATM   32  C28 BCR A 407     -49.417 147.144  12.753  1.00 19.60     0.005 C 
HETATM   33  C29 BCR A 407     -48.262 147.416  13.688  1.00 23.51     0.014 C 
HETATM   34  C30 BCR A 407     -46.873 147.103  13.118  1.00 25.52    -0.020 C 
HETATM   35  C35 BCR A 407     -40.169 134.187  10.108  1.00 19.07     0.048 C 
HETATM   36  C36 BCR A 407     -40.414 140.970   8.022  1.00 14.49     0.048 C 
HETATM   37  C37 BCR A 407     -42.994 145.520   9.613  1.00 19.80     0.048 C 
HETATM   38  C38 BCR A 407     -47.842 146.726   9.381  1.00 20.56     0.044 C 
HETATM   39  C39 BCR A 407     -46.330 145.902  13.860  1.00 27.97     0.020 C 
HETATM   40  C40 BCR A 407     -46.025 148.308  13.446  1.00 17.98     0.020 C 
ENDROOT
TORSDOF 10
