REMARK VINA RESULT:    -3.761      2.068      2.674
REMARK INTER + INTRA:          -7.464
REMARK INTER:                  -4.577
REMARK INTRA:                  -2.887
REMARK UNBOUND:                -3.702
REMARK  0 active torsions:
REMARK  status: ('A' for Active; 'I' for Inactive)
REMARK       I    between atoms: C6_6  and  C7_7 
REMARK       I    between atoms: C8_8  and  C9_9 
REMARK       I    between atoms: C10_10  and  C11_11 
REMARK       I    between atoms: C12_16  and  C13_17 
REMARK       I    between atoms: C14_18  and  C15_19 
REMARK       I    between atoms: C16_20  and  C17_21 
REMARK       I    between atoms: C18_22  and  C19_23 
REMARK       I    between atoms: C20_24  and  C21_25 
REMARK       I    between atoms: C22_26  and  C23_27 
REMARK       I    between atoms: C24_28  and  C25_29 
ROOT
HETATM    1  C1  BCR D 404     -49.908 144.977  12.291  1.00 52.80    -0.020 C 
HETATM    2  C2  BCR D 404     -51.181 145.107  13.121  1.00 67.63     0.014 C 
HETATM    3  C3  BCR D 404     -51.156 144.224  14.351  1.00 57.68     0.005 C 
HETATM    4  C4  BCR D 404     -51.116 142.775  13.918  1.00 46.23     0.034 C 
HETATM    5  C5  BCR D 404     -49.985 142.555  12.942  1.00 56.25    -0.077 C 
HETATM    6  C6  BCR D 404     -49.427 143.535  12.196  1.00 49.41    -0.048 C 
HETATM    7  C7  BCR D 404     -48.324 143.125  11.270  1.00 51.33     0.009 C 
HETATM    8  C8  BCR D 404     -47.015 142.988  11.559  1.00 42.68     0.007 C 
HETATM    9  C9  BCR D 404     -46.087 142.510  10.504  1.00 49.43    -0.062 C 
HETATM   10  C10 BCR D 404     -44.992 141.815  10.873  1.00 48.79     0.007 C 
HETATM   11  C11 BCR D 404     -44.020 141.230   9.942  1.00 45.83     0.001 C 
HETATM   12  C33 BCR D 404     -49.497 141.141  12.814  1.00 38.15     0.044 C 
HETATM   13  C31 BCR D 404     -48.802 145.807  12.920  1.00 54.77     0.020 C 
HETATM   14  C32 BCR D 404     -50.247 145.545  10.919  1.00 49.36     0.020 C 
HETATM   15  C34 BCR D 404     -46.371 142.781   9.051  1.00 48.18     0.048 C 
HETATM   16  C12 BCR D 404     -43.064 140.451  10.463  1.00 46.75     0.007 C 
HETATM   17  C13 BCR D 404     -42.063 139.720   9.653  1.00 48.81    -0.062 C 
HETATM   18  C14 BCR D 404     -41.197 138.859  10.253  1.00 49.17     0.007 C 
HETATM   19  C15 BCR D 404     -40.227 138.021   9.531  1.00 46.20     0.001 C 
HETATM   20  C16 BCR D 404     -39.500 137.078  10.162  1.00 44.61     0.001 C 
HETATM   21  C17 BCR D 404     -38.587 136.174   9.431  1.00 52.55     0.007 C 
HETATM   22  C18 BCR D 404     -37.933 135.123   9.994  1.00 48.76    -0.062 C 
HETATM   23  C19 BCR D 404     -37.109 134.213   9.160  1.00 42.03     0.007 C 
HETATM   24  C20 BCR D 404     -36.396 133.164   9.614  1.00 44.86     0.001 C 
HETATM   25  C21 BCR D 404     -35.721 132.347   8.591  1.00 53.52     0.007 C 
HETATM   26  C22 BCR D 404     -35.096 131.161   8.771  1.00 55.83    -0.062 C 
HETATM   27  C23 BCR D 404     -34.592 130.522   7.688  1.00 57.08     0.007 C 
HETATM   28  C24 BCR D 404     -34.593 129.174   7.628  1.00 83.14     0.009 C 
HETATM   29  C25 BCR D 404     -34.123 128.339   6.477  1.00 93.70    -0.048 C 
HETATM   30  C26 BCR D 404     -34.966 128.120   5.457  1.00 98.17    -0.077 C 
HETATM   31  C27 BCR D 404     -34.573 127.286   4.261  1.00 88.54     0.034 C 
HETATM   32  C28 BCR D 404     -33.093 127.485   3.992  1.00 81.02     0.005 C 
HETATM   33  C29 BCR D 404     -32.344 126.983   5.211  1.00 74.51     0.014 C 
HETATM   34  C30 BCR D 404     -32.729 127.735   6.480  1.00 76.53    -0.020 C 
HETATM   35  C35 BCR D 404     -42.097 139.902   8.167  1.00 41.10     0.048 C 
HETATM   36  C36 BCR D 404     -38.081 134.809  11.452  1.00 43.88     0.048 C 
HETATM   37  C37 BCR D 404     -34.988 130.560  10.143  1.00 57.34     0.048 C 
HETATM   38  C38 BCR D 404     -36.347 128.712   5.468  1.00 99.96     0.044 C 
HETATM   39  C39 BCR D 404     -31.754 128.885   6.657  1.00 71.47     0.020 C 
HETATM   40  C40 BCR D 404     -32.644 126.743   7.627  1.00 72.90     0.020 C 
ENDROOT
TORSDOF 10
