REMARK VINA RESULT:    -7.876      2.673      4.542
REMARK INTER + INTRA:         -13.920
REMARK INTER:                 -11.284
REMARK INTRA:                  -2.636
REMARK UNBOUND:                -6.044
REMARK  0 active torsions:
REMARK  status: ('A' for Active; 'I' for Inactive)
REMARK       I    between atoms: C6_6  and  C7_7 
REMARK       I    between atoms: C8_8  and  C9_9 
REMARK       I    between atoms: C10_10  and  C11_11 
REMARK       I    between atoms: C12_16  and  C13_17 
REMARK       I    between atoms: C14_18  and  C15_19 
REMARK       I    between atoms: C16_20  and  C17_21 
REMARK       I    between atoms: C18_22  and  C19_23 
REMARK       I    between atoms: C20_24  and  C21_25 
REMARK       I    between atoms: C22_26  and  C23_27 
REMARK       I    between atoms: C24_28  and  C25_29 
ROOT
HETATM    1  C1  BCR B 619     -33.919 126.894   6.862  1.00 28.89    -0.020 C 
HETATM    2  C2  BCR B 619     -33.050 126.150   5.830  1.00 28.87     0.014 C 
HETATM    3  C3  BCR B 619     -32.708 127.021   4.627  1.00 24.82     0.005 C 
HETATM    4  C4  BCR B 619     -31.998 128.326   5.044  1.00 26.55     0.034 C 
HETATM    5  C5  BCR B 619     -32.651 129.003   6.248  1.00 25.55    -0.077 C 
HETATM    6  C6  BCR B 619     -33.526 128.367   7.064  1.00 25.71    -0.048 C 
HETATM    7  C7  BCR B 619     -34.198 129.091   8.195  1.00 26.15     0.009 C 
HETATM    8  C8  BCR B 619     -34.862 130.255   7.979  1.00 24.62     0.007 C 
HETATM    9  C9  BCR B 619     -35.602 131.018   9.015  1.00 23.75    -0.062 C 
HETATM   10  C10 BCR B 619     -36.129 132.195   8.633  1.00 23.51     0.007 C 
HETATM   11  C11 BCR B 619     -36.924 133.069   9.532  1.00 22.91     0.001 C 
HETATM   12  C33 BCR B 619     -32.274 130.448   6.446  1.00 26.88     0.044 C 
HETATM   13  C31 BCR B 619     -33.737 126.107   8.165  1.00 28.47     0.020 C 
HETATM   14  C32 BCR B 619     -35.386 126.817   6.412  1.00 29.15     0.020 C 
HETATM   15  C34 BCR B 619     -35.801 130.426  10.425  1.00 23.47     0.048 C 
HETATM   16  C12 BCR B 619     -37.633 134.108   9.061  1.00 20.45     0.007 C 
HETATM   17  C13 BCR B 619     -38.477 134.990   9.887  1.00 21.99    -0.062 C 
HETATM   18  C14 BCR B 619     -39.029 136.112   9.340  1.00 22.06     0.007 C 
HETATM   19  C15 BCR B 619     -39.882 137.121  10.000  1.00 21.97     0.001 C 
HETATM   20  C16 BCR B 619     -40.210 138.324   9.448  1.00 20.65     0.001 C 
HETATM   21  C17 BCR B 619     -41.035 139.292  10.177  1.00 23.36     0.007 C 
HETATM   22  C18 BCR B 619     -41.512 140.476   9.747  1.00 22.90    -0.062 C 
HETATM   23  C19 BCR B 619     -42.369 141.274  10.669  1.00 24.93     0.007 C 
HETATM   24  C20 BCR B 619     -42.721 142.549  10.408  1.00 23.33     0.001 C 
HETATM   25  C21 BCR B 619     -43.538 143.330  11.327  1.00 25.92     0.007 C 
HETATM   26  C22 BCR B 619     -44.025 144.595  11.152  1.00 29.58    -0.062 C 
HETATM   27  C23 BCR B 619     -44.884 145.139  12.249  1.00 30.44     0.007 C 
HETATM   28  C24 BCR B 619     -45.283 146.435  12.368  1.00 37.61     0.009 C 
HETATM   29  C25 BCR B 619     -46.179 147.032  13.441  1.00 35.86    -0.048 C 
HETATM   30  C26 BCR B 619     -45.779 147.207  14.722  1.00 38.98    -0.077 C 
HETATM   31  C27 BCR B 619     -46.682 147.819  15.764  1.00 37.08     0.034 C 
HETATM   32  C28 BCR B 619     -48.129 147.419  15.513  1.00 38.77     0.005 C 
HETATM   33  C29 BCR B 619     -48.503 148.006  14.162  1.00 41.75     0.014 C 
HETATM   34  C30 BCR B 619     -47.574 147.526  13.020  1.00 42.71    -0.020 C 
HETATM   35  C35 BCR B 619     -38.755 134.552  11.326  1.00 20.47     0.048 C 
HETATM   36  C36 BCR B 619     -41.177 141.077   8.369  1.00 21.73     0.048 C 
HETATM   37  C37 BCR B 619     -43.759 145.455   9.900  1.00 28.12     0.048 C 
HETATM   38  C38 BCR B 619     -44.427 146.777  15.234  1.00 37.79     0.044 C 
HETATM   39  C39 BCR B 619     -47.356 148.719  12.048  1.00 45.59     0.020 C 
HETATM   40  C40 BCR B 619     -48.315 146.417  12.305  1.00 39.52     0.020 C 
ENDROOT
TORSDOF 10
