REMARK VINA RESULT:    -6.653      1.929      3.037
REMARK INTER + INTRA:          -9.369
REMARK INTER:                  -9.123
REMARK INTRA:                  -0.246
REMARK UNBOUND:                -2.716
REMARK  0 active torsions:
REMARK  status: ('A' for Active; 'I' for Inactive)
REMARK       I    between atoms: C6_6  and  C7_7 
REMARK       I    between atoms: C8_8  and  C9_9 
REMARK       I    between atoms: C10_10  and  C11_11 
REMARK       I    between atoms: C12_16  and  C13_17 
REMARK       I    between atoms: C14_18  and  C15_19 
REMARK       I    between atoms: C16_20  and  C17_21 
REMARK       I    between atoms: C18_22  and  C19_23 
REMARK       I    between atoms: C20_24  and  C21_25 
REMARK       I    between atoms: C22_26  and  C23_27 
REMARK       I    between atoms: C24_28  and  C25_29 
ROOT
HETATM    1  C1  BCR B 617     -33.420 128.298   6.428  1.00 16.64    -0.020 C 
HETATM    2  C2  BCR B 617     -32.826 126.920   6.223  1.00 16.66     0.014 C 
HETATM    3  C3  BCR B 617     -33.787 125.852   6.639  1.00 16.67     0.005 C 
HETATM    4  C4  BCR B 617     -34.127 125.993   8.096  1.00 16.65     0.034 C 
HETATM    5  C5  BCR B 617     -34.445 127.390   8.466  1.00 16.64    -0.077 C 
HETATM    6  C6  BCR B 617     -34.155 128.461   7.719  1.00 16.61    -0.048 C 
HETATM    7  C7  BCR B 617     -34.477 129.836   8.141  1.00 16.52     0.009 C 
HETATM    8  C8  BCR B 617     -35.646 130.428   7.890  1.00 16.42     0.007 C 
HETATM    9  C9  BCR B 617     -35.932 131.818   8.195  1.00 16.35    -0.062 C 
HETATM   10  C10 BCR B 617     -37.164 132.303   8.003  1.00 16.25     0.007 C 
HETATM   11  C11 BCR B 617     -37.677 133.528   8.567  1.00 16.13     0.001 C 
HETATM   12  C33 BCR B 617     -35.148 127.483   9.758  1.00 16.67     0.044 C 
HETATM   13  C31 BCR B 617     -34.305 128.550   5.222  1.00 16.64     0.020 C 
HETATM   14  C32 BCR B 617     -32.266 129.273   6.386  1.00 16.66     0.020 C 
HETATM   15  C34 BCR B 617     -34.821 132.666   8.653  1.00 16.38     0.048 C 
HETATM   16  C12 BCR B 617     -38.758 134.115   8.029  1.00 15.96     0.007 C 
HETATM   17  C13 BCR B 617     -39.450 135.252   8.593  1.00 15.83    -0.062 C 
HETATM   18  C14 BCR B 617     -40.660 135.586   8.114  1.00 15.70     0.007 C 
HETATM   19  C15 BCR B 617     -41.610 136.453   8.764  1.00 15.54     0.001 C 
HETATM   20  C16 BCR B 617     -42.811 136.700   8.220  1.00 15.40     0.001 C 
HETATM   21  C17 BCR B 617     -43.640 137.749   8.764  1.00 15.27     0.007 C 
HETATM   22  C18 BCR B 617     -44.924 138.029   8.491  1.00 15.19    -0.062 C 
HETATM   23  C19 BCR B 617     -45.535 139.182   9.132  1.00 15.12     0.007 C 
HETATM   24  C20 BCR B 617     -46.823 139.505   9.009  1.00 15.10     0.001 C 
HETATM   25  C21 BCR B 617     -47.352 140.584   9.805  1.00 15.07     0.007 C 
HETATM   26  C22 BCR B 617     -48.616 141.023   9.861  1.00 15.07    -0.062 C 
HETATM   27  C23 BCR B 617     -48.828 142.344  10.418  1.00 15.08     0.007 C 
HETATM   28  C24 BCR B 617     -49.950 142.786  10.997  1.00 15.19     0.009 C 
HETATM   29  C25 BCR B 617     -50.235 144.162  11.427  1.00 15.27    -0.048 C 
HETATM   30  C26 BCR B 617     -49.679 144.724  12.515  1.00 15.33    -0.077 C 
HETATM   31  C27 BCR B 617     -49.933 146.096  12.999  1.00 15.37     0.034 C 
HETATM   32  C28 BCR B 617     -50.374 147.004  11.883  1.00 15.36     0.005 C 
HETATM   33  C29 BCR B 617     -51.467 146.359  11.077  1.00 15.31     0.014 C 
HETATM   34  C30 BCR B 617     -51.213 144.947  10.585  1.00 15.29    -0.020 C 
HETATM   35  C35 BCR B 617     -38.751 136.109   9.565  1.00 15.82     0.048 C 
HETATM   36  C36 BCR B 617     -45.782 137.165   7.653  1.00 15.16     0.048 C 
HETATM   37  C37 BCR B 617     -49.776 140.144   9.620  1.00 15.01     0.048 C 
HETATM   38  C38 BCR B 617     -48.715 144.062  13.425  1.00 15.36     0.044 C 
HETATM   39  C39 BCR B 617     -50.810 144.976   9.116  1.00 15.27     0.020 C 
HETATM   40  C40 BCR B 617     -52.599 144.322  10.625  1.00 15.28     0.020 C 
ENDROOT
TORSDOF 10
