REMARK VINA RESULT:    -9.548      2.044     16.656
REMARK INTER + INTRA:         -12.122
REMARK INTER:                  -9.358
REMARK INTRA:                  -2.764
REMARK UNBOUND:                -2.573
REMARK  0 active torsions:
REMARK  status: ('A' for Active; 'I' for Inactive)
REMARK       I    between atoms: C6_6  and  C7_7 
REMARK       I    between atoms: C8_8  and  C9_9 
REMARK       I    between atoms: C10_10  and  C11_11 
REMARK       I    between atoms: C12_16  and  C13_17 
REMARK       I    between atoms: C14_18  and  C15_19 
REMARK       I    between atoms: C16_20  and  C17_21 
REMARK       I    between atoms: C18_22  and  C19_23 
REMARK       I    between atoms: C20_24  and  C21_25 
REMARK       I    between atoms: C22_26  and  C23_27 
REMARK       I    between atoms: C24_28  and  C25_29 
ROOT
HETATM    1  C1  BCR B 619     -50.176 146.442   8.980  1.00 43.68    -0.020 C 
HETATM    2  C2  BCR B 619     -51.163 147.335   9.742  1.00 34.01     0.014 C 
HETATM    3  C3  BCR B 619     -51.062 147.081  11.241  1.00 39.82     0.005 C 
HETATM    4  C4  BCR B 619     -49.639 147.306  11.762  1.00 35.97     0.034 C 
HETATM    5  C5  BCR B 619     -48.565 146.672  10.897  1.00 51.08    -0.077 C 
HETATM    6  C6  BCR B 619     -48.807 146.277   9.630  1.00 43.37    -0.048 C 
HETATM    7  C7  BCR B 619     -47.757 145.651   8.770  1.00 41.21     0.009 C 
HETATM    8  C8  BCR B 619     -47.234 144.446   9.023  1.00 35.08     0.007 C 
HETATM    9  C9  BCR B 619     -46.229 143.773   8.177  1.00 45.29    -0.062 C 
HETATM   10  C10 BCR B 619     -45.569 142.712   8.708  1.00 31.51     0.007 C 
HETATM   11  C11 BCR B 619     -44.569 141.854   8.040  1.00 35.87     0.001 C 
HETATM   12  C33 BCR B 619     -47.204 146.509  11.526  1.00 49.04     0.044 C 
HETATM   13  C31 BCR B 619     -49.928 147.025   7.602  1.00 38.43     0.020 C 
HETATM   14  C32 BCR B 619     -50.809 145.061   8.859  1.00 45.87     0.020 C 
HETATM   15  C34 BCR B 619     -46.040 144.256   6.757  1.00 32.59     0.048 C 
HETATM   16  C12 BCR B 619     -44.235 140.659   8.590  1.00 32.79     0.007 C 
HETATM   17  C13 BCR B 619     -43.244 139.730   7.962  1.00 41.33    -0.062 C 
HETATM   18  C14 BCR B 619     -42.751 138.673   8.669  1.00 31.13     0.007 C 
HETATM   19  C15 BCR B 619     -41.773 137.654   8.218  1.00 39.90     0.001 C 
HETATM   20  C16 BCR B 619     -41.269 136.669   9.009  1.00 29.90     0.001 C 
HETATM   21  C17 BCR B 619     -40.304 135.695   8.448  1.00 33.57     0.007 C 
HETATM   22  C18 BCR B 619     -39.660 134.697   9.116  1.00 38.90    -0.062 C 
HETATM   23  C19 BCR B 619     -38.731 133.818   8.358  1.00 36.01     0.007 C 
HETATM   24  C20 BCR B 619     -37.879 132.924   8.900  1.00 41.69     0.001 C 
HETATM   25  C21 BCR B 619     -37.026 132.130   7.997  1.00 46.52     0.007 C 
HETATM   26  C22 BCR B 619     -36.203 131.129   8.385  1.00 47.59    -0.062 C 
HETATM   27  C23 BCR B 619     -35.461 130.451   7.468  1.00 54.77     0.007 C 
HETATM   28  C24 BCR B 619     -34.546 129.517   7.795  1.00 45.04     0.009 C 
HETATM   29  C25 BCR B 619     -33.681 128.710   6.861  1.00 40.91    -0.048 C 
HETATM   30  C26 BCR B 619     -32.677 129.231   6.135  1.00 51.20    -0.077 C 
HETATM   31  C27 BCR B 619     -31.847 128.358   5.239  1.00 53.77     0.034 C 
HETATM   32  C28 BCR B 619     -32.773 127.394   4.538  1.00 56.12     0.005 C 
HETATM   33  C29 BCR B 619     -33.366 126.490   5.598  1.00 60.15     0.014 C 
HETATM   34  C30 BCR B 619     -33.972 127.228   6.796  1.00 51.25    -0.020 C 
HETATM   35  C35 BCR B 619     -42.825 140.004   6.533  1.00 33.87     0.048 C 
HETATM   36  C36 BCR B 619     -39.869 134.464  10.596  1.00 33.91     0.048 C 
HETATM   37  C37 BCR B 619     -36.139 130.771   9.839  1.00 55.50     0.048 C 
HETATM   38  C38 BCR B 619     -32.329 130.687   6.152  1.00 45.25     0.044 C 
HETATM   39  C39 BCR B 619     -33.467 126.607   8.102  1.00 56.99     0.020 C 
HETATM   40  C40 BCR B 619     -35.478 127.055   6.727  1.00 53.04     0.020 C 
ENDROOT
TORSDOF 10
