REMARK VINA RESULT:    -8.097      2.695     16.854
REMARK INTER + INTRA:         -13.980
REMARK INTER:                 -11.364
REMARK INTRA:                  -2.616
REMARK UNBOUND:                -5.883
REMARK  0 active torsions:
REMARK  status: ('A' for Active; 'I' for Inactive)
REMARK       I    between atoms: C6_6  and  C7_7 
REMARK       I    between atoms: C8_8  and  C9_9 
REMARK       I    between atoms: C10_10  and  C11_11 
REMARK       I    between atoms: C12_16  and  C13_17 
REMARK       I    between atoms: C14_18  and  C15_19 
REMARK       I    between atoms: C16_20  and  C17_21 
REMARK       I    between atoms: C18_22  and  C19_23 
REMARK       I    between atoms: C20_24  and  C21_25 
REMARK       I    between atoms: C22_26  and  C23_27 
REMARK       I    between atoms: C24_28  and  C25_29 
ROOT
HETATM    1  C1  BCR B 619     -46.278 149.289  11.303  1.00 29.78    -0.020 C 
HETATM    2  C2  BCR B 619     -47.473 150.025  11.894  1.00 32.88     0.014 C 
HETATM    3  C3  BCR B 619     -48.570 149.077  12.296  1.00 32.12     0.005 C 
HETATM    4  C4  BCR B 619     -48.129 148.084  13.336  1.00 29.37     0.034 C 
HETATM    5  C5  BCR B 619     -46.725 147.550  13.071  1.00 26.51    -0.077 C 
HETATM    6  C6  BCR B 619     -45.893 148.045  12.113  1.00 26.75    -0.048 C 
HETATM    7  C7  BCR B 619     -44.627 147.367  11.743  1.00 27.16     0.009 C 
HETATM    8  C8  BCR B 619     -44.438 146.049  11.715  1.00 26.20     0.007 C 
HETATM    9  C9  BCR B 619     -43.216 145.420  11.267  1.00 20.49    -0.062 C 
HETATM   10  C10 BCR B 619     -43.224 144.080  11.144  1.00 22.41     0.007 C 
HETATM   11  C11 BCR B 619     -42.129 143.275  10.622  1.00 20.79     0.001 C 
HETATM   12  C33 BCR B 619     -46.290 146.468  14.044  1.00 26.02     0.044 C 
HETATM   13  C31 BCR B 619     -45.133 150.256  11.246  1.00 32.38     0.020 C 
HETATM   14  C32 BCR B 619     -46.623 148.797   9.892  1.00 28.82     0.020 C 
HETATM   15  C34 BCR B 619     -42.034 146.312  10.991  1.00 20.53     0.048 C 
HETATM   16  C12 BCR B 619     -42.282 141.945  10.404  1.00 22.97     0.007 C 
HETATM   17  C13 BCR B 619     -41.187 141.067   9.881  1.00 24.26    -0.062 C 
HETATM   18  C14 BCR B 619     -41.413 139.723   9.732  1.00 21.19     0.007 C 
HETATM   19  C15 BCR B 619     -40.421 138.716   9.289  1.00 24.01     0.001 C 
HETATM   20  C16 BCR B 619     -40.719 137.381   9.247  1.00 22.73     0.001 C 
HETATM   21  C17 BCR B 619     -39.675 136.438   8.857  1.00 24.34     0.007 C 
HETATM   22  C18 BCR B 619     -39.816 135.053   8.809  1.00 23.72    -0.062 C 
HETATM   23  C19 BCR B 619     -38.647 134.224   8.370  1.00 24.63     0.007 C 
HETATM   24  C20 BCR B 619     -38.645 132.870   8.335  1.00 25.42     0.001 C 
HETATM   25  C21 BCR B 619     -37.449 132.128   7.951  1.00 24.42     0.007 C 
HETATM   26  C22 BCR B 619     -37.246 130.797   7.983  1.00 28.11    -0.062 C 
HETATM   27  C23 BCR B 619     -35.909 130.320   7.564  1.00 27.88     0.007 C 
HETATM   28  C24 BCR B 619     -35.610 129.011   7.379  1.00 48.58     0.009 C 
HETATM   29  C25 BCR B 619     -34.294 128.433   6.827  1.00 40.96    -0.048 C 
HETATM   30  C26 BCR B 619     -33.065 128.831   7.175  1.00 43.15    -0.077 C 
HETATM   31  C27 BCR B 619     -31.787 128.350   6.495  1.00 40.16     0.034 C 
HETATM   32  C28 BCR B 619     -32.045 127.671   5.181  1.00 50.45     0.005 C 
HETATM   33  C29 BCR B 619     -33.090 126.656   5.513  1.00 52.86     0.014 C 
HETATM   34  C30 BCR B 619     -34.438 127.289   5.836  1.00 49.52    -0.020 C 
HETATM   35  C35 BCR B 619     -39.808 141.734   9.620  1.00 23.42     0.048 C 
HETATM   36  C36 BCR B 619     -41.092 134.313   9.194  1.00 23.31     0.048 C 
HETATM   37  C37 BCR B 619     -38.353 129.835   8.442  1.00 31.17     0.048 C 
HETATM   38  C38 BCR B 619     -32.826 129.700   8.371  1.00 48.43     0.044 C 
HETATM   39  C39 BCR B 619     -35.367 126.135   6.291  1.00 62.11     0.020 C 
HETATM   40  C40 BCR B 619     -34.957 127.987   4.603  1.00 46.92     0.020 C 
ENDROOT
TORSDOF 10
