REMARK VINA RESULT:    -8.452      0.000      0.000
REMARK INTER + INTRA:         -15.724
REMARK INTER:                  -8.452
REMARK INTRA:                  -7.272
REMARK UNBOUND:                -7.272
REMARK  0 active torsions:
REMARK  status: ('A' for Active; 'I' for Inactive)
REMARK       I    between atoms: C6_6  and  C7_7 
REMARK       I    between atoms: C8_8  and  C9_9 
REMARK       I    between atoms: C10_10  and  C11_11 
REMARK       I    between atoms: C12_16  and  C13_17 
REMARK       I    between atoms: C14_18  and  C15_19 
REMARK       I    between atoms: C16_20  and  C17_21 
REMARK       I    between atoms: C18_22  and  C19_23 
REMARK       I    between atoms: C20_24  and  C21_25 
REMARK       I    between atoms: C22_26  and  C23_27 
REMARK       I    between atoms: C24_28  and  C25_29 
ROOT
HETATM    1  C1  BCR T 101     -36.655 132.986  10.031  1.00 32.60    -0.020 C 
HETATM    2  C2  BCR T 101     -35.783 131.764  10.227  1.00 30.90     0.014 C 
HETATM    3  C3  BCR T 101     -35.406 131.242   8.865  1.00 28.16     0.005 C 
HETATM    4  C4  BCR T 101     -36.663 130.691   8.232  1.00 29.77     0.034 C 
HETATM    5  C5  BCR T 101     -37.716 131.766   8.170  1.00 32.17    -0.077 C 
HETATM    6  C6  BCR T 101     -37.772 132.753   9.047  1.00 29.39    -0.048 C 
HETATM    7  C7  BCR T 101     -38.972 133.618   9.013  1.00 28.67     0.009 C 
HETATM    8  C8  BCR T 101     -38.927 134.903   8.671  1.00 29.80     0.007 C 
HETATM    9  C9  BCR T 101     -40.108 135.787   8.605  1.00 31.04    -0.062 C 
HETATM   10  C10 BCR T 101     -40.113 136.990   9.221  1.00 28.41     0.007 C 
HETATM   11  C11 BCR T 101     -41.249 137.918   9.181  1.00 26.93     0.001 C 
HETATM   12  C33 BCR T 101     -38.742 131.727   7.084  1.00 33.39     0.044 C 
HETATM   13  C31 BCR T 101     -35.747 134.093   9.524  1.00 27.27     0.020 C 
HETATM   14  C32 BCR T 101     -37.310 133.380  11.337  1.00 36.11     0.020 C 
HETATM   15  C34 BCR T 101     -41.286 135.355   7.797  1.00 28.67     0.048 C 
HETATM   16  C12 BCR T 101     -41.140 139.124   9.745  1.00 30.79     0.007 C 
HETATM   17  C13 BCR T 101     -42.234 140.125   9.765  1.00 29.61    -0.062 C 
HETATM   18  C14 BCR T 101     -42.193 141.119  10.661  1.00 22.63     0.007 C 
HETATM   19  C15 BCR T 101     -43.247 142.128  10.770  1.00 27.56     0.001 C 
HETATM   20  C16 BCR T 101     -43.089 143.183  11.574  1.00 31.88     0.001 C 
HETATM   21  C17 BCR T 101     -44.158 144.161  11.738  1.00 32.33     0.007 C 
HETATM   22  C18 BCR T 101     -44.047 145.300  12.444  1.00 31.34    -0.062 C 
HETATM   23  C19 BCR T 101     -45.213 146.186  12.568  1.00 29.71     0.007 C 
HETATM   24  C20 BCR T 101     -45.494 146.695  13.759  1.00 28.34     0.001 C 
HETATM   25  C21 BCR T 101     -46.642 147.573  13.924  1.00 28.44     0.007 C 
HETATM   26  C22 BCR T 101     -46.897 148.084  15.125  1.00 29.84    -0.062 C 
HETATM   27  C23 BCR T 101     -48.051 148.965  15.328  1.00 28.52     0.007 C 
HETATM   28  C24 BCR T 101     -48.828 148.741  16.379  1.00 29.55     0.009 C 
HETATM   29  C25 BCR T 101     -50.050 149.483  16.754  1.00 32.84    -0.048 C 
HETATM   30  C26 BCR T 101     -51.089 149.580  15.928  1.00 34.45    -0.077 C 
HETATM   31  C27 BCR T 101     -52.476 149.281  16.437  1.00 26.80     0.034 C 
HETATM   32  C28 BCR T 101     -52.454 149.117  17.942  1.00 27.07     0.005 C 
HETATM   33  C29 BCR T 101     -51.609 150.229  18.538  1.00 27.30     0.014 C 
HETATM   34  C30 BCR T 101     -50.158 150.031  18.145  1.00 29.51    -0.020 C 
HETATM   35  C35 BCR T 101     -43.369 140.045   8.796  1.00 26.61     0.048 C 
HETATM   36  C36 BCR T 101     -42.765 145.706  13.093  1.00 26.15     0.048 C 
HETATM   37  C37 BCR T 101     -46.003 147.736  16.268  1.00 37.78     0.048 C 
HETATM   38  C38 BCR T 101     -50.943 149.971  14.491  1.00 31.59     0.044 C 
HETATM   39  C39 BCR T 101     -49.543 149.028  19.102  1.00 30.31     0.020 C 
HETATM   40  C40 BCR T 101     -49.418 151.350  18.199  1.00 28.93     0.020 C 
ENDROOT
TORSDOF 10
