REMARK VINA RESULT:    -9.021      0.000      0.000
REMARK INTER + INTRA:         -15.914
REMARK INTER:                  -9.021
REMARK INTRA:                  -6.893
REMARK UNBOUND:                -6.893
REMARK  0 active torsions:
REMARK  status: ('A' for Active; 'I' for Inactive)
REMARK       I    between atoms: C6_6  and  C7_7 
REMARK       I    between atoms: C8_8  and  C9_9 
REMARK       I    between atoms: C10_10  and  C11_11 
REMARK       I    between atoms: C12_16  and  C13_17 
REMARK       I    between atoms: C14_18  and  C15_19 
REMARK       I    between atoms: C16_20  and  C17_21 
REMARK       I    between atoms: C18_22  and  C19_23 
REMARK       I    between atoms: C20_24  and  C21_25 
REMARK       I    between atoms: C22_26  and  C23_27 
REMARK       I    between atoms: C24_28  and  C25_29 
ROOT
HETATM    1  C1  BCR A 406     -35.022 131.023   8.183  1.00 36.20    -0.020 C 
HETATM    2  C2  BCR A 406     -33.850 130.143   8.659  1.00 35.59     0.014 C 
HETATM    3  C3  BCR A 406     -33.393 130.513  10.043  1.00 39.53     0.005 C 
HETATM    4  C4  BCR A 406     -34.541 130.368  10.999  1.00 31.69     0.034 C 
HETATM    5  C5  BCR A 406     -35.788 130.992  10.498  1.00 27.77    -0.077 C 
HETATM    6  C6  BCR A 406     -36.046 131.304   9.222  1.00 33.79    -0.048 C 
HETATM    7  C7  BCR A 406     -37.330 131.892   8.768  1.00 29.83     0.009 C 
HETATM    8  C8  BCR A 406     -37.608 133.202   8.904  1.00 31.65     0.007 C 
HETATM    9  C9  BCR A 406     -38.918 133.782   8.644  1.00 32.29    -0.062 C 
HETATM   10  C10 BCR A 406     -39.148 135.063   8.971  1.00 27.54     0.007 C 
HETATM   11  C11 BCR A 406     -40.413 135.744   8.832  1.00 33.59     0.001 C 
HETATM   12  C33 BCR A 406     -36.761 131.190  11.573  1.00 32.64     0.044 C 
HETATM   13  C31 BCR A 406     -35.699 130.346   7.014  1.00 30.33     0.020 C 
HETATM   14  C32 BCR A 406     -34.430 132.300   7.657  1.00 39.96     0.020 C 
HETATM   15  C34 BCR A 406     -39.726 133.097   7.629  1.00 32.57     0.048 C 
HETATM   16  C12 BCR A 406     -40.409 137.085   8.831  1.00 30.76     0.007 C 
HETATM   17  C13 BCR A 406     -41.530 137.931   8.488  1.00 32.78    -0.062 C 
HETATM   18  C14 BCR A 406     -41.583 139.136   9.090  1.00 29.28     0.007 C 
HETATM   19  C15 BCR A 406     -42.510 140.188   8.765  1.00 28.52     0.001 C 
HETATM   20  C16 BCR A 406     -42.500 141.362   9.425  1.00 29.07     0.001 C 
HETATM   21  C17 BCR A 406     -43.357 142.419   8.952  1.00 23.66     0.007 C 
HETATM   22  C18 BCR A 406     -43.346 143.695   9.357  1.00 29.00    -0.062 C 
HETATM   23  C19 BCR A 406     -44.497 144.515   8.965  1.00 33.02     0.007 C 
HETATM   24  C20 BCR A 406     -44.723 145.790   9.317  1.00 25.51     0.001 C 
HETATM   25  C21 BCR A 406     -46.066 146.329   9.178  1.00 28.80     0.007 C 
HETATM   26  C22 BCR A 406     -46.466 147.549   9.560  1.00 25.36    -0.062 C 
HETATM   27  C23 BCR A 406     -47.795 148.011   9.151  1.00 34.30     0.007 C 
HETATM   28  C24 BCR A 406     -48.258 149.262   9.333  1.00 25.99     0.009 C 
HETATM   29  C25 BCR A 406     -49.472 149.858   8.754  1.00 30.20    -0.048 C 
HETATM   30  C26 BCR A 406     -49.406 150.638   7.656  1.00 33.40    -0.077 C 
HETATM   31  C27 BCR A 406     -50.519 151.350   6.976  1.00 29.94     0.034 C 
HETATM   32  C28 BCR A 406     -51.883 150.946   7.488  1.00 29.32     0.005 C 
HETATM   33  C29 BCR A 406     -51.879 150.592   8.954  1.00 29.90     0.014 C 
HETATM   34  C30 BCR A 406     -50.782 149.647   9.449  1.00 29.21    -0.020 C 
HETATM   35  C35 BCR A 406     -42.687 137.350   7.748  1.00 30.52     0.048 C 
HETATM   36  C36 BCR A 406     -42.491 144.082  10.503  1.00 29.79     0.048 C 
HETATM   37  C37 BCR A 406     -45.857 148.155  10.755  1.00 34.36     0.048 C 
HETATM   38  C38 BCR A 406     -48.135 150.915   6.957  1.00 29.54     0.044 C 
HETATM   39  C39 BCR A 406     -51.219 148.212   9.395  1.00 30.51     0.020 C 
HETATM   40  C40 BCR A 406     -50.700 149.970  10.925  1.00 35.85     0.020 C 
ENDROOT
TORSDOF 10
