REMARK VINA RESULT:    -8.527      1.561     16.448
REMARK INTER + INTRA:         -11.013
REMARK INTER:                  -9.659
REMARK INTRA:                  -1.354
REMARK UNBOUND:                -2.486
REMARK  0 active torsions:
REMARK  status: ('A' for Active; 'I' for Inactive)
REMARK       I    between atoms: C6_6  and  C7_7 
REMARK       I    between atoms: C8_8  and  C9_9 
REMARK       I    between atoms: C10_10  and  C11_11 
REMARK       I    between atoms: C12_16  and  C13_17 
REMARK       I    between atoms: C14_18  and  C15_19 
REMARK       I    between atoms: C16_20  and  C17_21 
REMARK       I    between atoms: C18_22  and  C19_23 
REMARK       I    between atoms: C20_24  and  C21_25 
REMARK       I    between atoms: C22_26  and  C23_27 
REMARK       I    between atoms: C24_28  and  C25_29 
ROOT
HETATM    1  C1  BCR B 616     -50.927 146.944  10.228  1.00 31.32    -0.020 C 
HETATM    2  C2  BCR B 616     -51.554 148.180  10.839  1.00 32.97     0.014 C 
HETATM    3  C3  BCR B 616     -50.719 148.610  12.024  1.00 29.93     0.005 C 
HETATM    4  C4  BCR B 616     -50.851 147.583  13.122  1.00 26.02     0.034 C 
HETATM    5  C5  BCR B 616     -50.684 146.183  12.578  1.00 31.50    -0.077 C 
HETATM    6  C6  BCR B 616     -50.686 145.885  11.266  1.00 32.71    -0.048 C 
HETATM    7  C7  BCR B 616     -50.433 144.480  10.867  1.00 27.07     0.009 C 
HETATM    8  C8  BCR B 616     -49.247 144.072  10.415  1.00 26.19     0.007 C 
HETATM    9  C9  BCR B 616     -48.961 142.663  10.065  1.00 26.80    -0.062 C 
HETATM   10  C10 BCR B 616     -47.714 142.276   9.791  1.00 24.87     0.007 C 
HETATM   11  C11 BCR B 616     -47.374 140.887   9.497  1.00 26.76     0.001 C 
HETATM   12  C33 BCR B 616     -50.520 145.103  13.602  1.00 25.10     0.044 C 
HETATM   13  C31 BCR B 616     -49.601 147.346   9.604  1.00 28.04     0.020 C 
HETATM   14  C32 BCR B 616     -51.865 146.366   9.197  1.00 25.30     0.020 C 
HETATM   15  C34 BCR B 616     -50.040 141.632  10.046  1.00 25.88     0.048 C 
HETATM   16  C12 BCR B 616     -46.103 140.614   9.214  1.00 27.03     0.007 C 
HETATM   17  C13 BCR B 616     -45.575 139.268   8.951  1.00 24.87    -0.062 C 
HETATM   18  C14 BCR B 616     -44.262 139.114   8.717  1.00 25.36     0.007 C 
HETATM   19  C15 BCR B 616     -43.662 137.802   8.495  1.00 24.12     0.001 C 
HETATM   20  C16 BCR B 616     -42.348 137.631   8.436  1.00 24.28     0.001 C 
HETATM   21  C17 BCR B 616     -41.795 136.300   8.252  1.00 25.58     0.007 C 
HETATM   22  C18 BCR B 616     -40.479 136.074   8.174  1.00 28.46    -0.062 C 
HETATM   23  C19 BCR B 616     -40.017 134.684   8.009  1.00 23.05     0.007 C 
HETATM   24  C20 BCR B 616     -38.758 134.275   8.096  1.00 21.86     0.001 C 
HETATM   25  C21 BCR B 616     -38.528 132.848   7.919  1.00 26.78     0.007 C 
HETATM   26  C22 BCR B 616     -37.375 132.210   8.161  1.00 25.31    -0.062 C 
HETATM   27  C23 BCR B 616     -37.293 130.752   7.937  1.00 19.67     0.007 C 
HETATM   28  C24 BCR B 616     -36.163 130.086   8.145  1.00 21.08     0.009 C 
HETATM   29  C25 BCR B 616     -35.986 128.632   7.929  1.00 24.69    -0.048 C 
HETATM   30  C26 BCR B 616     -36.776 127.731   8.508  1.00 24.70    -0.077 C 
HETATM   31  C27 BCR B 616     -36.868 126.332   7.968  1.00 28.87     0.034 C 
HETATM   32  C28 BCR B 616     -35.483 125.850   7.613  1.00 22.34     0.005 C 
HETATM   33  C29 BCR B 616     -34.965 126.760   6.527  1.00 23.43     0.014 C 
HETATM   34  C30 BCR B 616     -34.846 128.189   7.028  1.00 25.38    -0.020 C 
HETATM   35  C35 BCR B 616     -46.499 138.095   8.989  1.00 22.52     0.048 C 
HETATM   36  C36 BCR B 616     -39.501 137.204   8.249  1.00 21.22     0.048 C 
HETATM   37  C37 BCR B 616     -36.186 132.979   8.639  1.00 24.02     0.048 C 
HETATM   38  C38 BCR B 616     -37.593 128.033   9.725  1.00 26.85     0.044 C 
HETATM   39  C39 BCR B 616     -34.800 129.093   5.815  1.00 22.16     0.020 C 
HETATM   40  C40 BCR B 616     -33.533 128.313   7.766  1.00 23.21     0.020 C 
ENDROOT
TORSDOF 10
