REMARK VINA RESULT:    -7.539      1.607     16.614
REMARK INTER + INTRA:         -10.415
REMARK INTER:                  -8.514
REMARK INTRA:                  -1.901
REMARK UNBOUND:                -2.876
REMARK  0 active torsions:
REMARK  status: ('A' for Active; 'I' for Inactive)
REMARK       I    between atoms: C6_6  and  C7_7 
REMARK       I    between atoms: C8_8  and  C9_9 
REMARK       I    between atoms: C10_10  and  C11_11 
REMARK       I    between atoms: C12_16  and  C13_17 
REMARK       I    between atoms: C14_18  and  C15_19 
REMARK       I    between atoms: C16_20  and  C17_21 
REMARK       I    between atoms: C18_22  and  C19_23 
REMARK       I    between atoms: C20_24  and  C21_25 
REMARK       I    between atoms: C22_26  and  C23_27 
REMARK       I    between atoms: C24_28  and  C25_29 
ROOT
HETATM    1  C1  BCR B 618     -51.132 147.094  10.164  1.00 29.97    -0.020 C 
HETATM    2  C2  BCR B 618     -51.783 148.356  10.751  1.00 30.11     0.014 C 
HETATM    3  C3  BCR B 618     -51.029 148.985  11.931  1.00 28.88     0.005 C 
HETATM    4  C4  BCR B 618     -50.689 148.009  13.042  1.00 28.77     0.034 C 
HETATM    5  C5  BCR B 618     -50.488 146.587  12.554  1.00 28.24    -0.077 C 
HETATM    6  C6  BCR B 618     -50.705 146.174  11.277  1.00 26.72    -0.048 C 
HETATM    7  C7  BCR B 618     -50.463 144.751  10.949  1.00 26.16     0.009 C 
HETATM    8  C8  BCR B 618     -49.323 144.302  10.402  1.00 23.90     0.007 C 
HETATM    9  C9  BCR B 618     -49.150 142.842  10.124  1.00 22.06    -0.062 C 
HETATM   10  C10 BCR B 618     -47.930 142.371   9.801  1.00 23.67     0.007 C 
HETATM   11  C11 BCR B 618     -47.567 140.977   9.554  1.00 23.73     0.001 C 
HETATM   12  C33 BCR B 618     -50.071 145.628  13.626  1.00 30.53     0.044 C 
HETATM   13  C31 BCR B 618     -49.911 147.404   9.274  1.00 30.85     0.020 C 
HETATM   14  C32 BCR B 618     -52.225 146.452   9.279  1.00 30.08     0.020 C 
HETATM   15  C34 BCR B 618     -50.333 141.905  10.162  1.00 25.71     0.048 C 
HETATM   16  C12 BCR B 618     -46.299 140.730   9.131  1.00 24.44     0.007 C 
HETATM   17  C13 BCR B 618     -45.777 139.364   8.920  1.00 23.39    -0.062 C 
HETATM   18  C14 BCR B 618     -44.430 139.216   8.607  1.00 20.98     0.007 C 
HETATM   19  C15 BCR B 618     -43.819 137.876   8.516  1.00 21.06     0.001 C 
HETATM   20  C16 BCR B 618     -42.479 137.780   8.373  1.00 22.19     0.001 C 
HETATM   21  C17 BCR B 618     -41.842 136.457   8.307  1.00 21.58     0.007 C 
HETATM   22  C18 BCR B 618     -40.491 136.220   8.255  1.00 20.96    -0.062 C 
HETATM   23  C19 BCR B 618     -40.040 134.819   8.176  1.00 19.82     0.007 C 
HETATM   24  C20 BCR B 618     -38.738 134.391   8.183  1.00 20.56     0.001 C 
HETATM   25  C21 BCR B 618     -38.524 132.932   8.042  1.00 20.57     0.007 C 
HETATM   26  C22 BCR B 618     -37.320 132.315   8.212  1.00 19.60    -0.062 C 
HETATM   27  C23 BCR B 618     -37.262 130.861   8.019  1.00 22.92     0.007 C 
HETATM   28  C24 BCR B 618     -36.099 130.177   7.985  1.00 24.17     0.009 C 
HETATM   29  C25 BCR B 618     -36.009 128.691   7.776  1.00 26.94    -0.048 C 
HETATM   30  C26 BCR B 618     -36.819 127.751   8.339  1.00 28.75    -0.077 C 
HETATM   31  C27 BCR B 618     -36.672 126.236   8.091  1.00 30.75     0.034 C 
HETATM   32  C28 BCR B 618     -35.354 125.850   7.411  1.00 33.35     0.005 C 
HETATM   33  C29 BCR B 618     -34.959 126.855   6.332  1.00 31.28     0.014 C 
HETATM   34  C30 BCR B 618     -34.845 128.297   6.860  1.00 29.59    -0.020 C 
HETATM   35  C35 BCR B 618     -46.754 138.228   9.114  1.00 23.27     0.048 C 
HETATM   36  C36 BCR B 618     -39.485 137.311   8.226  1.00 21.00     0.048 C 
HETATM   37  C37 BCR B 618     -36.083 133.114   8.627  1.00 20.72     0.048 C 
HETATM   38  C38 BCR B 618     -37.979 128.068   9.249  1.00 30.08     0.044 C 
HETATM   39  C39 BCR B 618     -34.839 129.197   5.621  1.00 28.53     0.020 C 
HETATM   40  C40 BCR B 618     -33.557 128.481   7.655  1.00 29.57     0.020 C 
ENDROOT
TORSDOF 10
