REMARK VINA RESULT:    -5.407      1.501     16.138
REMARK INTER + INTRA:          -9.321
REMARK INTER:                  -5.971
REMARK INTRA:                  -3.350
REMARK UNBOUND:                -3.915
REMARK  0 active torsions:
REMARK  status: ('A' for Active; 'I' for Inactive)
REMARK       I    between atoms: C6_6  and  C7_7 
REMARK       I    between atoms: C8_8  and  C9_9 
REMARK       I    between atoms: C10_10  and  C11_11 
REMARK       I    between atoms: C12_16  and  C13_17 
REMARK       I    between atoms: C14_18  and  C15_19 
REMARK       I    between atoms: C16_20  and  C17_21 
REMARK       I    between atoms: C18_22  and  C19_23 
REMARK       I    between atoms: C20_24  and  C21_25 
REMARK       I    between atoms: C22_26  and  C23_27 
REMARK       I    between atoms: C24_28  and  C25_29 
ROOT
HETATM    1  C1  BCR D 404     -49.269 144.760  12.468  1.00 29.33    -0.020 C 
HETATM    2  C2  BCR D 404     -50.707 144.855  12.923  1.00 25.95     0.014 C 
HETATM    3  C3  BCR D 404     -50.844 144.126  14.239  1.00 26.55     0.005 C 
HETATM    4  C4  BCR D 404     -50.691 142.648  13.969  1.00 23.72     0.034 C 
HETATM    5  C5  BCR D 404     -49.443 142.401  13.165  1.00 25.63    -0.077 C 
HETATM    6  C6  BCR D 404     -48.884 143.310  12.361  1.00 23.11    -0.048 C 
HETATM    7  C7  BCR D 404     -47.892 142.852  11.360  1.00 27.25     0.009 C 
HETATM    8  C8  BCR D 404     -46.563 142.746  11.552  1.00 31.75     0.007 C 
HETATM    9  C9  BCR D 404     -45.703 142.215  10.465  1.00 30.45    -0.062 C 
HETATM   10  C10 BCR D 404     -44.596 141.506  10.765  1.00 28.92     0.007 C 
HETATM   11  C11 BCR D 404     -43.697 140.891   9.776  1.00 28.53     0.001 C 
HETATM   12  C33 BCR D 404     -48.856 141.035  13.295  1.00 27.97     0.044 C 
HETATM   13  C31 BCR D 404     -48.389 145.459  13.484  1.00 31.59     0.020 C 
HETATM   14  C32 BCR D 404     -49.099 145.436  11.121  1.00 33.86     0.020 C 
HETATM   15  C34 BCR D 404     -46.072 142.454   9.037  1.00 24.62     0.048 C 
HETATM   16  C12 BCR D 404     -42.705 140.101  10.222  1.00 31.92     0.007 C 
HETATM   17  C13 BCR D 404     -41.738 139.330   9.394  1.00 28.09    -0.062 C 
HETATM   18  C14 BCR D 404     -40.881 138.474   9.986  1.00 31.13     0.007 C 
HETATM   19  C15 BCR D 404     -39.955 137.625   9.217  1.00 33.62     0.001 C 
HETATM   20  C16 BCR D 404     -39.405 136.549   9.795  1.00 32.82     0.001 C 
HETATM   21  C17 BCR D 404     -38.545 135.609   9.067  1.00 36.56     0.007 C 
HETATM   22  C18 BCR D 404     -37.906 134.577   9.654  1.00 38.25    -0.062 C 
HETATM   23  C19 BCR D 404     -37.128 133.629   8.827  1.00 39.93     0.007 C 
HETATM   24  C20 BCR D 404     -36.352 132.637   9.268  1.00 37.81     0.001 C 
HETATM   25  C21 BCR D 404     -35.752 131.803   8.225  1.00 37.37     0.007 C 
HETATM   26  C22 BCR D 404     -35.011 130.702   8.428  1.00 39.01    -0.062 C 
HETATM   27  C23 BCR D 404     -34.544 129.950   7.248  1.00 44.21     0.007 C 
HETATM   28  C24 BCR D 404     -34.519 128.620   7.332  1.00 45.60     0.009 C 
HETATM   29  C25 BCR D 404     -34.126 127.723   6.225  1.00 49.42    -0.048 C 
HETATM   30  C26 BCR D 404     -34.926 127.605   5.170  1.00 50.69    -0.077 C 
HETATM   31  C27 BCR D 404     -34.388 127.347   3.784  1.00 48.97     0.034 C 
HETATM   32  C28 BCR D 404     -33.079 126.570   3.846  1.00 45.61     0.005 C 
HETATM   33  C29 BCR D 404     -32.925 125.854   5.176  1.00 44.72     0.014 C 
HETATM   34  C30 BCR D 404     -32.884 126.878   6.292  1.00 44.79    -0.020 C 
HETATM   35  C35 BCR D 404     -41.728 139.457   7.907  1.00 26.94     0.048 C 
HETATM   36  C36 BCR D 404     -38.023 134.356  11.128  1.00 35.64     0.048 C 
HETATM   37  C37 BCR D 404     -34.679 130.233   9.809  1.00 34.59     0.048 C 
HETATM   38  C38 BCR D 404     -36.407 127.680   5.368  1.00 46.70     0.044 C 
HETATM   39  C39 BCR D 404     -31.684 127.785   6.115  1.00 50.31     0.020 C 
HETATM   40  C40 BCR D 404     -32.850 126.167   7.634  1.00 44.71     0.020 C 
ENDROOT
TORSDOF 10
