REMARK VINA RESULT:    -6.886      2.624     16.175
REMARK INTER + INTRA:          -9.602
REMARK INTER:                  -7.604
REMARK INTRA:                  -1.998
REMARK UNBOUND:                -2.716
REMARK  0 active torsions:
REMARK  status: ('A' for Active; 'I' for Inactive)
REMARK       I    between atoms: C6_6  and  C7_7 
REMARK       I    between atoms: C8_8  and  C9_9 
REMARK       I    between atoms: C10_10  and  C11_11 
REMARK       I    between atoms: C12_16  and  C13_17 
REMARK       I    between atoms: C14_18  and  C15_19 
REMARK       I    between atoms: C16_20  and  C17_21 
REMARK       I    between atoms: C18_22  and  C19_23 
REMARK       I    between atoms: C20_24  and  C21_25 
REMARK       I    between atoms: C22_26  and  C23_27 
REMARK       I    between atoms: C24_28  and  C25_29 
ROOT
HETATM    1  C1  BCR B 617     -46.109 150.168  11.494  1.00 16.64    -0.020 C 
HETATM    2  C2  BCR B 617     -47.007 151.350  11.193  1.00 16.66     0.014 C 
HETATM    3  C3  BCR B 617     -47.534 151.283   9.795  1.00 16.67     0.005 C 
HETATM    4  C4  BCR B 617     -46.402 151.304   8.807  1.00 16.65     0.034 C 
HETATM    5  C5  BCR B 617     -45.314 150.372   9.179  1.00 16.64    -0.077 C 
HETATM    6  C6  BCR B 617     -45.164 149.822  10.389  1.00 16.61    -0.048 C 
HETATM    7  C7  BCR B 617     -44.051 148.912  10.716  1.00 16.52     0.009 C 
HETATM    8  C8  BCR B 617     -44.096 147.593  10.520  1.00 16.42     0.007 C 
HETATM    9  C9  BCR B 617     -43.056 146.675  10.946  1.00 16.35    -0.062 C 
HETATM   10  C10 BCR B 617     -43.134 145.380  10.618  1.00 16.25     0.007 C 
HETATM   11  C11 BCR B 617     -42.042 144.438  10.667  1.00 16.13     0.001 C 
HETATM   12  C33 BCR B 617     -44.406 150.090   8.054  1.00 16.67     0.044 C 
HETATM   13  C31 BCR B 617     -47.038 149.021  11.842  1.00 16.64     0.020 C 
HETATM   14  C32 BCR B 617     -45.318 150.534  12.728  1.00 16.66     0.020 C 
HETATM   15  C34 BCR B 617     -41.971 147.203  11.787  1.00 16.38     0.048 C 
HETATM   16  C12 BCR B 617     -42.292 143.119  10.690  1.00 15.96     0.007 C 
HETATM   17  C13 BCR B 617     -41.289 142.084  10.586  1.00 15.83    -0.062 C 
HETATM   18  C14 BCR B 617     -41.675 140.818  10.359  1.00 15.70     0.007 C 
HETATM   19  C15 BCR B 617     -40.822 139.749   9.905  1.00 15.54     0.001 C 
HETATM   20  C16 BCR B 617     -41.311 138.521   9.672  1.00 15.40     0.001 C 
HETATM   21  C17 BCR B 617     -40.403 137.420   9.453  1.00 15.27     0.007 C 
HETATM   22  C18 BCR B 617     -40.680 136.178   9.028  1.00 15.19    -0.062 C 
HETATM   23  C19 BCR B 617     -39.592 135.217   8.934  1.00 15.12     0.007 C 
HETATM   24  C20 BCR B 617     -39.729 133.985   8.443  1.00 15.10     0.001 C 
HETATM   25  C21 BCR B 617     -38.554 133.170   8.263  1.00 15.07     0.007 C 
HETATM   26  C22 BCR B 617     -38.479 131.938   7.743  1.00 15.07    -0.062 C 
HETATM   27  C23 BCR B 617     -37.276 131.180   8.023  1.00 15.08     0.007 C 
HETATM   28  C24 BCR B 617     -36.773 130.191   7.275  1.00 15.19     0.009 C 
HETATM   29  C25 BCR B 617     -35.646 129.314   7.619  1.00 15.27    -0.048 C 
HETATM   30  C26 BCR B 617     -34.364 129.719   7.604  1.00 15.33    -0.077 C 
HETATM   31  C27 BCR B 617     -33.192 128.882   7.932  1.00 15.37     0.034 C 
HETATM   32  C28 BCR B 617     -33.563 127.747   8.849  1.00 15.36     0.005 C 
HETATM   33  C29 BCR B 617     -34.783 127.032   8.339  1.00 15.31     0.014 C 
HETATM   34  C30 BCR B 617     -35.985 127.889   7.994  1.00 15.29    -0.020 C 
HETATM   35  C35 BCR B 617     -39.885 142.411  10.887  1.00 15.82     0.048 C 
HETATM   36  C36 BCR B 617     -42.016 135.761   8.552  1.00 15.16     0.048 C 
HETATM   37  C37 BCR B 617     -39.427 131.443   6.728  1.00 15.01     0.048 C 
HETATM   38  C38 BCR B 617     -33.899 131.081   7.250  1.00 15.36     0.044 C 
HETATM   39  C39 BCR B 617     -37.009 127.822   9.119  1.00 15.27     0.020 C 
HETATM   40  C40 BCR B 617     -36.604 127.145   6.821  1.00 15.28     0.020 C 
ENDROOT
TORSDOF 10
