REMARK VINA RESULT:    -8.833      2.108     16.403
REMARK INTER + INTRA:         -11.549
REMARK INTER:                  -7.242
REMARK INTRA:                  -4.307
REMARK UNBOUND:                -2.716
REMARK  0 active torsions:
REMARK  status: ('A' for Active; 'I' for Inactive)
REMARK       I    between atoms: C6_6  and  C7_7 
REMARK       I    between atoms: C8_8  and  C9_9 
REMARK       I    between atoms: C10_10  and  C11_11 
REMARK       I    between atoms: C12_16  and  C13_17 
REMARK       I    between atoms: C14_18  and  C15_19 
REMARK       I    between atoms: C16_20  and  C17_21 
REMARK       I    between atoms: C18_22  and  C19_23 
REMARK       I    between atoms: C20_24  and  C21_25 
REMARK       I    between atoms: C22_26  and  C23_27 
REMARK       I    between atoms: C24_28  and  C25_29 
ROOT
HETATM    1  C1  BCR B 617     -50.049 143.931  12.170  1.00 16.64    -0.020 C 
HETATM    2  C2  BCR B 617     -50.886 144.762  13.121  1.00 16.66     0.014 C 
HETATM    3  C3  BCR B 617     -50.748 144.274  14.528  1.00 16.67     0.005 C 
HETATM    4  C4  BCR B 617     -51.213 142.849  14.634  1.00 16.65     0.034 C 
HETATM    5  C5  BCR B 617     -50.669 141.998  13.552  1.00 16.64    -0.077 C 
HETATM    6  C6  BCR B 617     -50.115 142.460  12.426  1.00 16.61    -0.048 C 
HETATM    7  C7  BCR B 617     -49.604 141.570  11.368  1.00 16.52     0.009 C 
HETATM    8  C8  BCR B 617     -48.362 141.082  11.352  1.00 16.42     0.007 C 
HETATM    9  C9  BCR B 617     -47.812 140.304  10.258  1.00 16.35    -0.062 C 
HETATM   10  C10 BCR B 617     -46.590 139.768  10.369  1.00 16.25     0.007 C 
HETATM   11  C11 BCR B 617     -46.062 138.713   9.538  1.00 16.13     0.001 C 
HETATM   12  C33 BCR B 617     -50.785 140.561  13.856  1.00 16.67     0.044 C 
HETATM   13  C31 BCR B 617     -48.638 144.475  12.278  1.00 16.64     0.020 C 
HETATM   14  C32 BCR B 617     -50.568 144.217  10.780  1.00 16.66     0.020 C 
HETATM   15  C34 BCR B 617     -48.607 140.184   9.027  1.00 16.38     0.048 C 
HETATM   16  C12 BCR B 617     -44.736 138.510   9.471  1.00 15.96     0.007 C 
HETATM   17  C13 BCR B 617     -44.101 137.399   8.800  1.00 15.83    -0.062 C 
HETATM   18  C14 BCR B 617     -42.799 137.159   9.020  1.00 15.70     0.007 C 
HETATM   19  C15 BCR B 617     -42.107 135.933   8.709  1.00 15.54     0.001 C 
HETATM   20  C16 BCR B 617     -40.806 135.776   9.000  1.00 15.40     0.001 C 
HETATM   21  C17 BCR B 617     -40.087 134.644   8.466  1.00 15.27     0.007 C 
HETATM   22  C18 BCR B 617     -38.856 134.210   8.779  1.00 15.19    -0.062 C 
HETATM   23  C19 BCR B 617     -38.318 133.066   8.061  1.00 15.12     0.007 C 
HETATM   24  C20 BCR B 617     -37.148 132.492   8.345  1.00 15.10     0.001 C 
HETATM   25  C21 BCR B 617     -36.783 131.276   7.665  1.00 15.07     0.007 C 
HETATM   26  C22 BCR B 617     -35.686 130.529   7.844  1.00 15.07    -0.062 C 
HETATM   27  C23 BCR B 617     -35.350 129.591   6.792  1.00 15.08     0.007 C 
HETATM   28  C24 BCR B 617     -34.639 128.466   6.934  1.00 15.19     0.009 C 
HETATM   29  C25 BCR B 617     -34.163 127.586   5.859  1.00 15.27    -0.048 C 
HETATM   30  C26 BCR B 617     -34.969 126.762   5.167  1.00 15.33    -0.077 C 
HETATM   31  C27 BCR B 617     -34.545 125.852   4.084  1.00 15.37     0.034 C 
HETATM   32  C28 BCR B 617     -33.289 126.338   3.412  1.00 15.36     0.005 C 
HETATM   33  C29 BCR B 617     -32.249 126.702   4.435  1.00 15.31     0.014 C 
HETATM   34  C30 BCR B 617     -32.683 127.631   5.553  1.00 15.29    -0.020 C 
HETATM   35  C35 BCR B 617     -44.852 136.655   7.775  1.00 15.82     0.048 C 
HETATM   36  C36 BCR B 617     -38.056 134.770   9.889  1.00 15.16     0.048 C 
HETATM   37  C37 BCR B 617     -34.978 130.453   9.137  1.00 15.01     0.048 C 
HETATM   38  C38 BCR B 617     -36.429 126.619   5.374  1.00 15.36     0.044 C 
HETATM   39  C39 BCR B 617     -32.201 129.047   5.266  1.00 15.27     0.020 C 
HETATM   40  C40 BCR B 617     -31.861 127.142   6.735  1.00 15.28     0.020 C 
ENDROOT
TORSDOF 10
