REMARK VINA RESULT:    -8.792      1.271      1.629
REMARK INTER + INTRA:         -11.608
REMARK INTER:                  -7.038
REMARK INTRA:                  -4.570
REMARK UNBOUND:                -2.816
REMARK  0 active torsions:
REMARK  status: ('A' for Active; 'I' for Inactive)
REMARK       I    between atoms: C6_6  and  C7_7 
REMARK       I    between atoms: C8_8  and  C9_9 
REMARK       I    between atoms: C10_10  and  C11_11 
REMARK       I    between atoms: C12_16  and  C13_17 
REMARK       I    between atoms: C14_18  and  C15_19 
REMARK       I    between atoms: C16_20  and  C17_21 
REMARK       I    between atoms: C18_22  and  C19_23 
REMARK       I    between atoms: C20_24  and  C21_25 
REMARK       I    between atoms: C22_26  and  C23_27 
REMARK       I    between atoms: C24_28  and  C25_29 
ROOT
HETATM    1  C1  BCR K 101     -46.836 148.002  11.758  1.00 40.27    -0.020 C 
HETATM    2  C2  BCR K 101     -47.631 148.767  12.795  1.00 46.17     0.014 C 
HETATM    3  C3  BCR K 101     -49.105 148.520  12.708  1.00 46.00     0.005 C 
HETATM    4  C4  BCR K 101     -49.429 147.051  12.707  1.00 50.16     0.034 C 
HETATM    5  C5  BCR K 101     -48.597 146.297  11.741  1.00 47.62    -0.077 C 
HETATM    6  C6  BCR K 101     -47.412 146.692  11.333  1.00 41.18    -0.048 C 
HETATM    7  C7  BCR K 101     -46.668 145.899  10.365  1.00 43.29     0.009 C 
HETATM    8  C8  BCR K 101     -46.220 144.672  10.620  1.00 42.58     0.007 C 
HETATM    9  C9  BCR K 101     -45.316 143.968   9.723  1.00 48.65    -0.062 C 
HETATM   10  C10 BCR K 101     -44.942 142.709   9.981  1.00 45.45     0.007 C 
HETATM   11  C11 BCR K 101     -43.678 142.175   9.547  1.00 51.34     0.001 C 
HETATM   12  C33 BCR K 101     -49.168 145.013  11.278  1.00 47.03     0.044 C 
HETATM   13  C31 BCR K 101     -45.436 147.891  12.359  1.00 48.55     0.020 C 
HETATM   14  C32 BCR K 101     -46.751 148.890  10.551  1.00 47.52     0.020 C 
HETATM   15  C34 BCR K 101     -44.657 144.764   8.663  1.00 49.90     0.048 C 
HETATM   16  C12 BCR K 101     -43.505 140.857   9.378  1.00 52.29     0.007 C 
HETATM   17  C13 BCR K 101     -42.185 140.266   9.299  1.00 57.82    -0.062 C 
HETATM   18  C14 BCR K 101     -42.069 138.927   9.318  1.00 56.99     0.007 C 
HETATM   19  C15 BCR K 101     -40.817 138.204   9.324  1.00 53.84     0.001 C 
HETATM   20  C16 BCR K 101     -40.778 136.905   9.657  1.00 48.03     0.001 C 
HETATM   21  C17 BCR K 101     -39.623 136.175   9.199  1.00 52.48     0.007 C 
HETATM   22  C18 BCR K 101     -38.984 135.192   9.849  1.00 57.46    -0.062 C 
HETATM   23  C19 BCR K 101     -38.402 134.106   9.062  1.00 53.57     0.007 C 
HETATM   24  C20 BCR K 101     -37.572 133.173   9.535  1.00 52.13     0.001 C 
HETATM   25  C21 BCR K 101     -36.669 132.505   8.624  1.00 54.30     0.007 C 
HETATM   26  C22 BCR K 101     -35.781 131.538   8.919  1.00 56.80    -0.062 C 
HETATM   27  C23 BCR K 101     -34.985 130.969   7.845  1.00 54.97     0.007 C 
HETATM   28  C24 BCR K 101     -34.223 129.890   8.005  1.00 52.41     0.009 C 
HETATM   29  C25 BCR K 101     -33.697 129.122   6.894  1.00 54.04    -0.048 C 
HETATM   30  C26 BCR K 101     -34.490 128.337   6.158  1.00 63.10    -0.077 C 
HETATM   31  C27 BCR K 101     -34.075 127.506   5.005  1.00 64.10     0.034 C 
HETATM   32  C28 BCR K 101     -32.684 127.857   4.534  1.00 68.43     0.005 C 
HETATM   33  C29 BCR K 101     -31.767 128.123   5.703  1.00 60.58     0.014 C 
HETATM   34  C30 BCR K 101     -32.246 129.249   6.599  1.00 50.92    -0.020 C 
HETATM   35  C35 BCR K 101     -41.035 141.132   9.654  1.00 62.47     0.048 C 
HETATM   36  C36 BCR K 101     -38.606 135.375  11.268  1.00 61.37     0.048 C 
HETATM   37  C37 BCR K 101     -35.379 131.199  10.302  1.00 59.71     0.048 C 
HETATM   38  C38 BCR K 101     -35.933 128.191   6.425  1.00 58.32     0.044 C 
HETATM   39  C39 BCR K 101     -31.971 130.596   5.950  1.00 63.29     0.020 C 
HETATM   40  C40 BCR K 101     -31.392 129.181   7.866  1.00 51.15     0.020 C 
ENDROOT
TORSDOF 10
