REMARK VINA RESULT:    -8.050      2.094      3.320
REMARK INTER + INTRA:         -10.478
REMARK INTER:                  -7.825
REMARK INTRA:                  -2.653
REMARK UNBOUND:                -2.428
REMARK  0 active torsions:
REMARK  status: ('A' for Active; 'I' for Inactive)
REMARK       I    between atoms: C6_6  and  C7_7 
REMARK       I    between atoms: C8_8  and  C9_9 
REMARK       I    between atoms: C10_10  and  C11_11 
REMARK       I    between atoms: C12_16  and  C13_17 
REMARK       I    between atoms: C14_18  and  C15_19 
REMARK       I    between atoms: C16_20  and  C17_21 
REMARK       I    between atoms: C18_22  and  C19_23 
REMARK       I    between atoms: C20_24  and  C21_25 
REMARK       I    between atoms: C22_26  and  C23_27 
REMARK       I    between atoms: C24_28  and  C25_29 
ROOT
HETATM    1  C1  BCR C 515     -45.390 148.407  13.518  1.00 38.64    -0.020 C 
HETATM    2  C2  BCR C 515     -46.499 149.440  13.738  1.00 35.63     0.014 C 
HETATM    3  C3  BCR C 515     -47.869 148.958  13.292  1.00 36.63     0.005 C 
HETATM    4  C4  BCR C 515     -47.884 148.476  11.873  1.00 37.53     0.034 C 
HETATM    5  C5  BCR C 515     -46.603 147.804  11.424  1.00 37.33    -0.077 C 
HETATM    6  C6  BCR C 515     -45.473 147.770  12.154  1.00 36.93    -0.048 C 
HETATM    7  C7  BCR C 515     -44.231 147.109  11.646  1.00 39.97     0.009 C 
HETATM    8  C8  BCR C 515     -44.180 145.794  11.431  1.00 43.71     0.007 C 
HETATM    9  C9  BCR C 515     -42.988 145.082  10.931  1.00 46.26    -0.062 C 
HETATM   10  C10 BCR C 515     -43.066 143.736  10.897  1.00 44.64     0.007 C 
HETATM   11  C11 BCR C 515     -41.963 142.874  10.437  1.00 42.43     0.001 C 
HETATM   12  C33 BCR C 515     -46.675 147.184  10.061  1.00 39.04     0.044 C 
HETATM   13  C31 BCR C 515     -45.480 147.312  14.603  1.00 36.17     0.020 C 
HETATM   14  C32 BCR C 515     -44.041 149.151  13.539  1.00 37.04     0.020 C 
HETATM   15  C34 BCR C 515     -41.760 145.834  10.453  1.00 45.26     0.048 C 
HETATM   16  C12 BCR C 515     -42.230 141.631  10.035  1.00 41.87     0.007 C 
HETATM   17  C13 BCR C 515     -41.179 140.711   9.568  1.00 44.10    -0.062 C 
HETATM   18  C14 BCR C 515     -41.441 139.379   9.519  1.00 43.10     0.007 C 
HETATM   19  C15 BCR C 515     -40.446 138.384   9.074  1.00 44.95     0.001 C 
HETATM   20  C16 BCR C 515     -40.676 137.066   9.129  1.00 42.57     0.001 C 
HETATM   21  C17 BCR C 515     -39.644 136.111   8.709  1.00 44.11     0.007 C 
HETATM   22  C18 BCR C 515     -39.849 134.772   8.590  1.00 45.12    -0.062 C 
HETATM   23  C19 BCR C 515     -38.683 133.933   8.188  1.00 42.40     0.007 C 
HETATM   24  C20 BCR C 515     -38.723 132.604   8.072  1.00 44.25     0.001 C 
HETATM   25  C21 BCR C 515     -37.517 131.856   7.696  1.00 44.77     0.007 C 
HETATM   26  C22 BCR C 515     -37.362 130.510   7.776  1.00 45.45    -0.062 C 
HETATM   27  C23 BCR C 515     -36.060 129.938   7.340  1.00 43.97     0.007 C 
HETATM   28  C24 BCR C 515     -35.920 128.654   6.972  1.00 46.37     0.009 C 
HETATM   29  C25 BCR C 515     -34.604 128.111   6.509  1.00 44.97    -0.048 C 
HETATM   30  C26 BCR C 515     -34.367 128.141   5.183  1.00 43.46    -0.077 C 
HETATM   31  C27 BCR C 515     -33.084 127.633   4.538  1.00 42.55     0.034 C 
HETATM   32  C28 BCR C 515     -31.963 127.327   5.535  1.00 44.37     0.005 C 
HETATM   33  C29 BCR C 515     -32.496 126.729   6.836  1.00 46.88     0.014 C 
HETATM   34  C30 BCR C 515     -33.602 127.559   7.503  1.00 44.50    -0.020 C 
HETATM   35  C35 BCR C 515     -39.855 141.303   9.127  1.00 43.98     0.048 C 
HETATM   36  C36 BCR C 515     -41.198 134.144   8.901  1.00 37.46     0.048 C 
HETATM   37  C37 BCR C 515     -38.452 129.594   8.285  1.00 40.96     0.048 C 
HETATM   38  C38 BCR C 515     -35.426 128.691   4.267  1.00 36.94     0.044 C 
HETATM   39  C39 BCR C 515     -32.991 128.695   8.334  1.00 44.31     0.020 C 
HETATM   40  C40 BCR C 515     -34.343 126.606   8.435  1.00 48.67     0.020 C 
ENDROOT
TORSDOF 10
