REMARK VINA RESULT:    -8.630      0.000      0.000
REMARK INTER + INTRA:         -11.234
REMARK INTER:                  -8.630
REMARK INTRA:                  -2.604
REMARK UNBOUND:                -2.604
REMARK  0 active torsions:
REMARK  status: ('A' for Active; 'I' for Inactive)
REMARK       I    between atoms: C6_6  and  C7_7 
REMARK       I    between atoms: C8_8  and  C9_9 
REMARK       I    between atoms: C10_10  and  C11_11 
REMARK       I    between atoms: C12_16  and  C13_17 
REMARK       I    between atoms: C14_18  and  C15_19 
REMARK       I    between atoms: C16_20  and  C17_21 
REMARK       I    between atoms: C18_22  and  C19_23 
REMARK       I    between atoms: C20_24  and  C21_25 
REMARK       I    between atoms: C22_26  and  C23_27 
REMARK       I    between atoms: C24_28  and  C25_29 
ROOT
HETATM    1  C1  BCR B 618     -32.196 129.988   7.456  1.00 27.36    -0.020 C 
HETATM    2  C2  BCR B 618     -31.373 128.898   6.753  1.00 29.24     0.014 C 
HETATM    3  C3  BCR B 618     -31.995 128.485   5.417  1.00 30.20     0.005 C 
HETATM    4  C4  BCR B 618     -33.427 128.004   5.518  1.00 26.75     0.034 C 
HETATM    5  C5  BCR B 618     -34.236 128.783   6.505  1.00 26.89    -0.077 C 
HETATM    6  C6  BCR B 618     -33.687 129.664   7.408  1.00 26.00    -0.048 C 
HETATM    7  C7  BCR B 618     -34.595 130.330   8.378  1.00 23.65     0.009 C 
HETATM    8  C8  BCR B 618     -35.130 131.561   8.132  1.00 23.63     0.007 C 
HETATM    9  C9  BCR B 618     -36.018 132.218   9.113  1.00 27.01    -0.062 C 
HETATM   10  C10 BCR B 618     -36.696 133.329   8.787  1.00 25.20     0.007 C 
HETATM   11  C11 BCR B 618     -37.604 134.045   9.677  1.00 28.58     0.001 C 
HETATM   12  C33 BCR B 618     -35.711 128.467   6.555  1.00 28.44     0.044 C 
HETATM   13  C31 BCR B 618     -31.917 131.361   6.843  1.00 28.24     0.020 C 
HETATM   14  C32 BCR B 618     -31.662 130.002   8.934  1.00 26.34     0.020 C 
HETATM   15  C34 BCR B 618     -36.106 131.665  10.529  1.00 27.67     0.048 C 
HETATM   16  C12 BCR B 618     -38.049 135.227   9.167  1.00 27.69     0.007 C 
HETATM   17  C13 BCR B 618     -39.088 136.023   9.847  1.00 26.09    -0.062 C 
HETATM   18  C14 BCR B 618     -39.620 137.141   9.243  1.00 26.27     0.007 C 
HETATM   19  C15 BCR B 618     -40.754 137.899   9.848  1.00 24.53     0.001 C 
HETATM   20  C16 BCR B 618     -41.226 138.949   9.156  1.00 25.46     0.001 C 
HETATM   21  C17 BCR B 618     -42.366 139.688   9.686  1.00 26.22     0.007 C 
HETATM   22  C18 BCR B 618     -43.051 140.666   9.041  1.00 26.11    -0.062 C 
HETATM   23  C19 BCR B 618     -44.193 141.308   9.751  1.00 24.69     0.007 C 
HETATM   24  C20 BCR B 618     -45.000 142.287   9.222  1.00 23.86     0.001 C 
HETATM   25  C21 BCR B 618     -46.079 142.808  10.060  1.00 20.93     0.007 C 
HETATM   26  C22 BCR B 618     -47.103 143.596   9.615  1.00 20.93    -0.062 C 
HETATM   27  C23 BCR B 618     -48.047 144.051  10.637  1.00 23.42     0.007 C 
HETATM   28  C24 BCR B 618     -49.032 144.917  10.344  1.00 24.63     0.009 C 
HETATM   29  C25 BCR B 618     -49.957 145.451  11.394  1.00 27.79    -0.048 C 
HETATM   30  C26 BCR B 618     -50.600 144.733  12.359  1.00 29.36    -0.077 C 
HETATM   31  C27 BCR B 618     -51.541 145.379  13.401  1.00 30.45     0.034 C 
HETATM   32  C28 BCR B 618     -51.973 146.833  13.103  1.00 28.93     0.005 C 
HETATM   33  C29 BCR B 618     -50.771 147.623  12.561  1.00 28.29     0.014 C 
HETATM   34  C30 BCR B 618     -50.144 147.000  11.288  1.00 29.32    -0.020 C 
HETATM   35  C35 BCR B 618     -39.643 135.465  11.092  1.00 23.34     0.048 C 
HETATM   36  C36 BCR B 618     -42.708 141.152   7.672  1.00 27.04     0.048 C 
HETATM   37  C37 BCR B 618     -47.327 143.990   8.144  1.00 22.71     0.048 C 
HETATM   38  C38 BCR B 618     -50.444 143.258  12.567  1.00 27.49     0.044 C 
HETATM   39  C39 BCR B 618     -48.768 147.681  11.168  1.00 24.52     0.020 C 
HETATM   40  C40 BCR B 618     -50.948 147.275  10.003  1.00 27.42     0.020 C 
ENDROOT
TORSDOF 10
