REMARK VINA RESULT:    -7.276      1.815      3.952
REMARK INTER + INTRA:         -13.922
REMARK INTER:                 -11.356
REMARK INTRA:                  -2.565
REMARK UNBOUND:                -6.646
REMARK  0 active torsions:
REMARK  status: ('A' for Active; 'I' for Inactive)
REMARK       I    between atoms: C6_6  and  C7_7 
REMARK       I    between atoms: C8_8  and  C9_9 
REMARK       I    between atoms: C10_10  and  C11_11 
REMARK       I    between atoms: C12_16  and  C13_17 
REMARK       I    between atoms: C14_18  and  C15_19 
REMARK       I    between atoms: C16_20  and  C17_21 
REMARK       I    between atoms: C18_22  and  C19_23 
REMARK       I    between atoms: C20_24  and  C21_25 
REMARK       I    between atoms: C22_26  and  C23_27 
REMARK       I    between atoms: C24_28  and  C25_29 
ROOT
HETATM    1  C1  BCR B 617     -34.439 127.278   6.262  1.00 26.29    -0.020 C 
HETATM    2  C2  BCR B 617     -33.097 126.586   6.079  1.00 24.49     0.014 C 
HETATM    3  C3  BCR B 617     -32.023 127.574   5.684  1.00 22.61     0.005 C 
HETATM    4  C4  BCR B 617     -31.855 128.665   6.712  1.00 25.50     0.034 C 
HETATM    5  C5  BCR B 617     -33.105 128.966   7.491  1.00 27.16    -0.077 C 
HETATM    6  C6  BCR B 617     -34.306 128.444   7.193  1.00 26.27    -0.048 C 
HETATM    7  C7  BCR B 617     -35.556 128.980   7.758  1.00 19.27     0.009 C 
HETATM    8  C8  BCR B 617     -36.021 130.176   7.400  1.00 21.60     0.007 C 
HETATM    9  C9  BCR B 617     -37.280 130.725   7.942  1.00 23.86    -0.062 C 
HETATM   10  C10 BCR B 617     -37.552 132.019   7.754  1.00 19.60     0.007 C 
HETATM   11  C11 BCR B 617     -38.750 132.694   8.225  1.00 18.33     0.001 C 
HETATM   12  C33 BCR B 617     -32.939 129.908   8.640  1.00 29.92     0.044 C 
HETATM   13  C31 BCR B 617     -35.434 126.281   6.835  1.00 24.31     0.020 C 
HETATM   14  C32 BCR B 617     -34.925 127.837   4.935  1.00 18.56     0.020 C 
HETATM   15  C34 BCR B 617     -38.239 129.838   8.668  1.00 23.81     0.048 C 
HETATM   16  C12 BCR B 617     -39.096 133.834   7.626  1.00 17.62     0.007 C 
HETATM   17  C13 BCR B 617     -40.278 134.622   8.005  1.00 18.11    -0.062 C 
HETATM   18  C14 BCR B 617     -40.460 135.842   7.452  1.00 18.92     0.007 C 
HETATM   19  C15 BCR B 617     -41.599 136.701   7.781  1.00 19.09     0.001 C 
HETATM   20  C16 BCR B 617     -41.620 138.009   7.511  1.00 23.01     0.001 C 
HETATM   21  C17 BCR B 617     -42.796 138.800   7.875  1.00 24.11     0.007 C 
HETATM   22  C18 BCR B 617     -42.974 140.111   7.642  1.00 19.95    -0.062 C 
HETATM   23  C19 BCR B 617     -44.223 140.736   8.068  1.00 21.01     0.007 C 
HETATM   24  C20 BCR B 617     -44.463 142.030   7.892  1.00 25.10     0.001 C 
HETATM   25  C21 BCR B 617     -45.764 142.522   8.334  1.00 22.05     0.007 C 
HETATM   26  C22 BCR B 617     -46.109 143.805   8.407  1.00 21.59    -0.062 C 
HETATM   27  C23 BCR B 617     -47.462 144.135   8.867  1.00 25.46     0.007 C 
HETATM   28  C24 BCR B 617     -47.795 145.384   9.168  1.00 27.51     0.009 C 
HETATM   29  C25 BCR B 617     -49.146 145.795   9.609  1.00 24.70    -0.048 C 
HETATM   30  C26 BCR B 617     -49.630 145.497  10.810  1.00 30.61    -0.077 C 
HETATM   31  C27 BCR B 617     -50.963 146.032  11.246  1.00 27.25     0.034 C 
HETATM   32  C28 BCR B 617     -51.880 145.802  10.069  1.00 25.90     0.005 C 
HETATM   33  C29 BCR B 617     -51.430 146.675   8.918  1.00 30.03     0.014 C 
HETATM   34  C30 BCR B 617     -49.933 146.636   8.641  1.00 27.09    -0.020 C 
HETATM   35  C35 BCR B 617     -41.266 134.077   8.988  1.00 15.67     0.048 C 
HETATM   36  C36 BCR B 617     -41.951 140.948   6.962  1.00 21.62     0.048 C 
HETATM   37  C37 BCR B 617     -45.165 144.898   8.017  1.00 24.04     0.048 C 
HETATM   38  C38 BCR B 617     -48.887 144.613  11.756  1.00 30.71     0.044 C 
HETATM   39  C39 BCR B 617     -49.339 148.030   8.718  1.00 28.41     0.020 C 
HETATM   40  C40 BCR B 617     -49.750 146.107   7.231  1.00 28.54     0.020 C 
ENDROOT
TORSDOF 10
