REMARK VINA RESULT:    -8.726      0.000      0.000
REMARK INTER + INTRA:         -13.136
REMARK INTER:                  -8.726
REMARK INTRA:                  -4.410
REMARK UNBOUND:                -4.410
REMARK  0 active torsions:
REMARK  status: ('A' for Active; 'I' for Inactive)
REMARK       I    between atoms: C6_6  and  C7_7 
REMARK       I    between atoms: C8_8  and  C9_9 
REMARK       I    between atoms: C10_10  and  C11_11 
REMARK       I    between atoms: C12_16  and  C13_17 
REMARK       I    between atoms: C14_18  and  C15_19 
REMARK       I    between atoms: C16_20  and  C17_21 
REMARK       I    between atoms: C18_22  and  C19_23 
REMARK       I    between atoms: C20_24  and  C21_25 
REMARK       I    between atoms: C22_26  and  C23_27 
REMARK       I    between atoms: C24_28  and  C25_29 
ROOT
HETATM    1  C1  BCR T 103     -33.904 128.537   5.767  1.00 55.01    -0.020 C 
HETATM    2  C2  BCR T 103     -32.873 127.562   5.204  1.00 54.78     0.014 C 
HETATM    3  C3  BCR T 103     -32.274 126.673   6.270  1.00 56.23     0.005 C 
HETATM    4  C4  BCR T 103     -33.372 125.850   6.914  1.00 54.38     0.034 C 
HETATM    5  C5  BCR T 103     -34.526 126.715   7.364  1.00 47.44    -0.077 C 
HETATM    6  C6  BCR T 103     -34.783 127.938   6.861  1.00 47.96    -0.048 C 
HETATM    7  C7  BCR T 103     -35.972 128.684   7.397  1.00 51.80     0.009 C 
HETATM    8  C8  BCR T 103     -36.150 130.023   7.400  1.00 51.28     0.007 C 
HETATM    9  C9  BCR T 103     -37.360 130.685   7.958  1.00 64.16    -0.062 C 
HETATM   10  C10 BCR T 103     -37.571 132.003   7.771  1.00 67.33     0.007 C 
HETATM   11  C11 BCR T 103     -38.736 132.682   8.348  1.00 59.85     0.001 C 
HETATM   12  C33 BCR T 103     -35.414 126.118   8.416  1.00 48.69     0.044 C 
HETATM   13  C31 BCR T 103     -34.786 128.955   4.596  1.00 45.31     0.020 C 
HETATM   14  C32 BCR T 103     -33.128 129.736   6.306  1.00 61.46     0.020 C 
HETATM   15  C34 BCR T 103     -38.371 129.900   8.745  1.00 54.20     0.048 C 
HETATM   16  C12 BCR T 103     -38.721 134.014   8.311  1.00 68.58     0.007 C 
HETATM   17  C13 BCR T 103     -39.729 134.937   8.885  1.00 64.03    -0.062 C 
HETATM   18  C14 BCR T 103     -39.454 136.246   8.725  1.00 47.03     0.007 C 
HETATM   19  C15 BCR T 103     -40.158 137.421   9.257  1.00 51.60     0.001 C 
HETATM   20  C16 BCR T 103     -40.525 138.529   8.609  1.00 44.47     0.001 C 
HETATM   21  C17 BCR T 103     -41.095 139.595   9.442  1.00 54.46     0.007 C 
HETATM   22  C18 BCR T 103     -41.301 140.863   9.019  1.00 50.22    -0.062 C 
HETATM   23  C19 BCR T 103     -41.787 141.856  10.012  1.00 41.36     0.007 C 
HETATM   24  C20 BCR T 103     -42.070 143.151   9.796  1.00 48.04     0.001 C 
HETATM   25  C21 BCR T 103     -42.452 143.938  10.982  1.00 44.16     0.007 C 
HETATM   26  C22 BCR T 103     -42.563 145.284  11.043  1.00 49.78    -0.062 C 
HETATM   27  C23 BCR T 103     -42.859 145.828  12.241  1.00 42.38     0.007 C 
HETATM   28  C24 BCR T 103     -43.005 147.143  12.489  1.00 34.76     0.009 C 
HETATM   29  C25 BCR T 103     -43.307 147.685  13.856  1.00 40.00    -0.048 C 
HETATM   30  C26 BCR T 103     -44.289 147.182  14.636  1.00 28.46    -0.077 C 
HETATM   31  C27 BCR T 103     -44.587 147.730  16.028  1.00 34.96     0.034 C 
HETATM   32  C28 BCR T 103     -43.373 148.452  16.606  1.00 30.67     0.005 C 
HETATM   33  C29 BCR T 103     -42.977 149.524  15.599  1.00 31.82     0.014 C 
HETATM   34  C30 BCR T 103     -42.439 148.863  14.336  1.00 43.83    -0.020 C 
HETATM   35  C35 BCR T 103     -40.959 134.448   9.606  1.00 48.93     0.048 C 
HETATM   36  C36 BCR T 103     -40.981 141.255   7.602  1.00 42.51     0.048 C 
HETATM   37  C37 BCR T 103     -42.341 146.161   9.833  1.00 33.12     0.048 C 
HETATM   38  C38 BCR T 103     -45.207 146.057  14.238  1.00 31.70     0.044 C 
HETATM   39  C39 BCR T 103     -41.013 148.418  14.645  1.00 33.53     0.020 C 
HETATM   40  C40 BCR T 103     -42.396 149.917  13.231  1.00 32.47     0.020 C 
ENDROOT
TORSDOF 10
