REMARK VINA RESULT:    -8.702      0.000      0.000
REMARK INTER + INTRA:         -15.221
REMARK INTER:                  -8.702
REMARK INTRA:                  -6.519
REMARK UNBOUND:                -6.519
REMARK  0 active torsions:
REMARK  status: ('A' for Active; 'I' for Inactive)
REMARK       I    between atoms: C6_6  and  C7_7 
REMARK       I    between atoms: C8_8  and  C9_9 
REMARK       I    between atoms: C10_10  and  C11_11 
REMARK       I    between atoms: C12_16  and  C13_17 
REMARK       I    between atoms: C14_18  and  C15_19 
REMARK       I    between atoms: C16_20  and  C17_21 
REMARK       I    between atoms: C18_22  and  C19_23 
REMARK       I    between atoms: C20_24  and  C21_25 
REMARK       I    between atoms: C22_26  and  C23_27 
REMARK       I    between atoms: C24_28  and  C25_29 
ROOT
HETATM    1  C1  BCR B 620     -49.970 150.182  12.655  1.00 36.91    -0.020 C 
HETATM    2  C2  BCR B 620     -51.407 150.710  12.546  1.00 39.67     0.014 C 
HETATM    3  C3  BCR B 620     -52.249 150.082  11.455  1.00 41.86     0.005 C 
HETATM    4  C4  BCR B 620     -51.511 150.183  10.125  1.00 42.68     0.034 C 
HETATM    5  C5  BCR B 620     -50.042 149.772  10.186  1.00 42.22    -0.077 C 
HETATM    6  C6  BCR B 620     -49.330 149.758  11.336  1.00 36.96    -0.048 C 
HETATM    7  C7  BCR B 620     -47.884 149.350  11.346  1.00 35.00     0.009 C 
HETATM    8  C8  BCR B 620     -47.496 148.157  10.852  1.00 29.58     0.007 C 
HETATM    9  C9  BCR B 620     -46.104 147.701  10.890  1.00 30.24    -0.062 C 
HETATM   10  C10 BCR B 620     -45.849 146.429  10.497  1.00 30.65     0.007 C 
HETATM   11  C11 BCR B 620     -44.535 145.786  10.557  1.00 27.17     0.001 C 
HETATM   12  C33 BCR B 620     -49.406 149.385   8.880  1.00 41.60     0.044 C 
HETATM   13  C31 BCR B 620     -49.970 149.038  13.672  1.00 38.82     0.020 C 
HETATM   14  C32 BCR B 620     -49.156 151.350  13.159  1.00 34.87     0.020 C 
HETATM   15  C34 BCR B 620     -45.063 148.630  11.446  1.00 28.50     0.048 C 
HETATM   16  C12 BCR B 620     -44.468 144.529  10.105  1.00 26.65     0.007 C 
HETATM   17  C13 BCR B 620     -43.245 143.691  10.185  1.00 25.82    -0.062 C 
HETATM   18  C14 BCR B 620     -43.248 142.467   9.575  1.00 25.50     0.007 C 
HETATM   19  C15 BCR B 620     -42.147 141.496   9.647  1.00 29.12     0.001 C 
HETATM   20  C16 BCR B 620     -42.300 140.281   9.084  1.00 29.64     0.001 C 
HETATM   21  C17 BCR B 620     -41.264 139.255   9.221  1.00 26.95     0.007 C 
HETATM   22  C18 BCR B 620     -41.301 138.047   8.608  1.00 26.10    -0.062 C 
HETATM   23  C19 BCR B 620     -40.188 137.082   8.886  1.00 22.51     0.007 C 
HETATM   24  C20 BCR B 620     -40.149 135.842   8.346  1.00 23.80     0.001 C 
HETATM   25  C21 BCR B 620     -38.983 134.964   8.686  1.00 21.77     0.007 C 
HETATM   26  C22 BCR B 620     -38.732 133.714   8.235  1.00 22.57    -0.062 C 
HETATM   27  C23 BCR B 620     -37.490 133.057   8.743  1.00 24.96     0.007 C 
HETATM   28  C24 BCR B 620     -37.272 131.735   8.607  1.00 25.87     0.009 C 
HETATM   29  C25 BCR B 620     -36.017 131.179   9.149  1.00 29.04    -0.048 C 
HETATM   30  C26 BCR B 620     -35.885 131.118  10.507  1.00 31.10    -0.077 C 
HETATM   31  C27 BCR B 620     -34.627 130.579  11.201  1.00 33.58     0.034 C 
HETATM   32  C28 BCR B 620     -33.424 130.496  10.239  1.00 31.33     0.005 C 
HETATM   33  C29 BCR B 620     -33.849 129.906   8.888  1.00 32.97     0.014 C 
HETATM   34  C30 BCR B 620     -34.963 130.700   8.173  1.00 32.21    -0.020 C 
HETATM   35  C35 BCR B 620     -42.065 144.201  11.003  1.00 27.05     0.048 C 
HETATM   36  C36 BCR B 620     -42.435 137.653   7.662  1.00 25.62     0.048 C 
HETATM   37  C37 BCR B 620     -39.592 132.914   7.258  1.00 24.21     0.048 C 
HETATM   38  C38 BCR B 620     -37.018 131.617  11.390  1.00 29.41     0.044 C 
HETATM   39  C39 BCR B 620     -35.646 129.770   7.131  1.00 35.26     0.020 C 
HETATM   40  C40 BCR B 620     -34.383 131.933   7.450  1.00 30.43     0.020 C 
ENDROOT
TORSDOF 10
