REMARK VINA RESULT:   -10.346      2.257     16.182
REMARK INTER + INTRA:         -10.627
REMARK INTER:                  -9.443
REMARK INTRA:                  -1.184
REMARK UNBOUND:                -0.281
REMARK  0 active torsions:
REMARK  status: ('A' for Active; 'I' for Inactive)
REMARK       I    between atoms: C6_6  and  C7_7 
REMARK       I    between atoms: C8_8  and  C9_9 
REMARK       I    between atoms: C10_10  and  C11_11 
REMARK       I    between atoms: C12_16  and  C13_17 
REMARK       I    between atoms: C14_18  and  C15_19 
REMARK       I    between atoms: C16_20  and  C17_21 
REMARK       I    between atoms: C18_22  and  C19_23 
REMARK       I    between atoms: C20_24  and  C21_25 
REMARK       I    between atoms: C22_26  and  C23_27 
REMARK       I    between atoms: C24_28  and  C25_29 
ROOT
HETATM    1  C1  BCR F 101     -34.812 128.106   7.100  1.00 41.36    -0.020 C 
HETATM    2  C2  BCR F 101     -34.810 126.606   6.866  1.00 46.22     0.014 C 
HETATM    3  C3  BCR F 101     -35.396 125.850   8.018  1.00 40.40     0.005 C 
HETATM    4  C4  BCR F 101     -36.798 126.318   8.282  1.00 37.04     0.034 C 
HETATM    5  C5  BCR F 101     -36.832 127.787   8.484  1.00 43.37    -0.077 C 
HETATM    6  C6  BCR F 101     -35.936 128.607   7.934  1.00 36.67    -0.048 C 
HETATM    7  C7  BCR F 101     -35.958 130.041   8.141  1.00 37.51     0.009 C 
HETATM    8  C8  BCR F 101     -36.965 130.770   7.684  1.00 40.99     0.007 C 
HETATM    9  C9  BCR F 101     -37.084 132.177   7.989  1.00 37.99    -0.062 C 
HETATM   10  C10 BCR F 101     -38.274 132.760   7.799  1.00 32.67     0.007 C 
HETATM   11  C11 BCR F 101     -38.583 134.158   8.030  1.00 30.31     0.001 C 
HETATM   12  C33 BCR F 101     -37.940 128.265   9.374  1.00 36.33     0.044 C 
HETATM   13  C31 BCR F 101     -34.828 128.762   5.748  1.00 51.06     0.020 C 
HETATM   14  C32 BCR F 101     -33.478 128.478   7.722  1.00 43.35     0.020 C 
HETATM   15  C34 BCR F 101     -35.955 132.792   8.720  1.00 39.55     0.048 C 
HETATM   16  C12 BCR F 101     -39.855 134.572   7.880  1.00 29.21     0.007 C 
HETATM   17  C13 BCR F 101     -40.294 135.909   8.207  1.00 31.53    -0.062 C 
HETATM   18  C14 BCR F 101     -41.604 136.129   8.369  1.00 36.47     0.007 C 
HETATM   19  C15 BCR F 101     -42.225 137.427   8.535  1.00 33.10     0.001 C 
HETATM   20  C16 BCR F 101     -43.573 137.530   8.488  1.00 33.82     0.001 C 
HETATM   21  C17 BCR F 101     -44.215 138.732   8.993  1.00 36.91     0.007 C 
HETATM   22  C18 BCR F 101     -45.530 138.982   9.147  1.00 32.34    -0.062 C 
HETATM   23  C19 BCR F 101     -45.913 140.246   9.746  1.00 30.12     0.007 C 
HETATM   24  C20 BCR F 101     -47.187 140.588   9.976  1.00 37.50     0.001 C 
HETATM   25  C21 BCR F 101     -47.512 141.681  10.871  1.00 38.83     0.007 C 
HETATM   26  C22 BCR F 101     -48.717 142.275  10.982  1.00 38.49    -0.062 C 
HETATM   27  C23 BCR F 101     -48.837 143.503  11.737  1.00 39.36     0.007 C 
HETATM   28  C24 BCR F 101     -49.937 144.265  11.674  1.00 56.86     0.009 C 
HETATM   29  C25 BCR F 101     -50.299 145.293  12.645  1.00 57.44    -0.048 C 
HETATM   30  C26 BCR F 101     -51.347 145.136  13.446  1.00 61.92    -0.077 C 
HETATM   31  C27 BCR F 101     -51.766 146.107  14.459  1.00 63.69     0.034 C 
HETATM   32  C28 BCR F 101     -50.542 146.827  14.946  1.00 63.72     0.005 C 
HETATM   33  C29 BCR F 101     -49.923 147.511  13.763  1.00 59.25     0.014 C 
HETATM   34  C30 BCR F 101     -49.474 146.544  12.687  1.00 65.60    -0.020 C 
HETATM   35  C35 BCR F 101     -39.300 136.857   8.764  1.00 33.23     0.048 C 
HETATM   36  C36 BCR F 101     -46.594 137.987   8.937  1.00 21.57     0.048 C 
HETATM   37  C37 BCR F 101     -49.969 141.610  10.599  1.00 27.86     0.048 C 
HETATM   38  C38 BCR F 101     -52.208 143.937  13.431  1.00 68.49     0.044 C 
HETATM   39  C39 BCR F 101     -47.998 146.231  12.852  1.00 75.29     0.020 C 
HETATM   40  C40 BCR F 101     -49.617 147.323  11.383  1.00 67.84     0.020 C 
ENDROOT
TORSDOF 10
