REMARK VINA RESULT:    -6.692      0.619     16.275
REMARK INTER + INTRA:         -11.656
REMARK INTER:                  -6.857
REMARK INTRA:                  -4.799
REMARK UNBOUND:                -4.964
REMARK  0 active torsions:
REMARK  status: ('A' for Active; 'I' for Inactive)
REMARK       I    between atoms: C6_6  and  C7_7 
REMARK       I    between atoms: C8_8  and  C9_9 
REMARK       I    between atoms: C10_10  and  C11_11 
REMARK       I    between atoms: C12_16  and  C13_17 
REMARK       I    between atoms: C14_18  and  C15_19 
REMARK       I    between atoms: C16_20  and  C17_21 
REMARK       I    between atoms: C18_22  and  C19_23 
REMARK       I    between atoms: C20_24  and  C21_25 
REMARK       I    between atoms: C22_26  and  C23_27 
REMARK       I    between atoms: C24_28  and  C25_29 
ROOT
HETATM    1  C1  BCR C 515     -47.945 147.553  10.083  1.00 33.76    -0.020 C 
HETATM    2  C2  BCR C 515     -48.910 148.663  10.444  1.00 33.74     0.014 C 
HETATM    3  C3  BCR C 515     -49.755 148.293  11.631  1.00 33.67     0.005 C 
HETATM    4  C4  BCR C 515     -50.477 146.981  11.462  1.00 33.69     0.034 C 
HETATM    5  C5  BCR C 515     -49.781 146.011  10.587  1.00 33.72    -0.077 C 
HETATM    6  C6  BCR C 515     -48.619 146.232   9.971  1.00 33.76    -0.048 C 
HETATM    7  C7  BCR C 515     -48.012 145.228   9.103  1.00 33.87     0.009 C 
HETATM    8  C8  BCR C 515     -47.060 144.381   9.492  1.00 34.01     0.007 C 
HETATM    9  C9  BCR C 515     -46.324 143.568   8.542  1.00 34.09    -0.062 C 
HETATM   10  C10 BCR C 515     -45.734 142.448   8.966  1.00 34.13     0.007 C 
HETATM   11  C11 BCR C 515     -44.734 141.713   8.230  1.00 34.14     0.001 C 
HETATM   12  C33 BCR C 515     -50.489 144.726  10.480  1.00 33.67     0.044 C 
HETATM   13  C31 BCR C 515     -46.861 147.543  11.147  1.00 33.78     0.020 C 
HETATM   14  C32 BCR C 515     -47.335 147.941   8.754  1.00 33.75     0.020 C 
HETATM   15  C34 BCR C 515     -46.510 143.864   7.107  1.00 34.15     0.048 C 
HETATM   16  C12 BCR C 515     -44.297 140.560   8.738  1.00 34.13     0.007 C 
HETATM   17  C13 BCR C 515     -43.346 139.663   8.123  1.00 34.08    -0.062 C 
HETATM   18  C14 BCR C 515     -42.926 138.601   8.820  1.00 33.92     0.007 C 
HETATM   19  C15 BCR C 515     -41.857 137.746   8.381  1.00 33.87     0.001 C 
HETATM   20  C16 BCR C 515     -41.452 136.728   9.140  1.00 33.76     0.001 C 
HETATM   21  C17 BCR C 515     -40.656 135.705   8.528  1.00 33.69     0.007 C 
HETATM   22  C18 BCR C 515     -39.719 134.976   9.137  1.00 33.60    -0.062 C 
HETATM   23  C19 BCR C 515     -38.953 134.034   8.348  1.00 33.52     0.007 C 
HETATM   24  C20 BCR C 515     -38.089 133.167   8.875  1.00 33.41     0.001 C 
HETATM   25  C21 BCR C 515     -37.261 132.375   8.001  1.00 33.33     0.007 C 
HETATM   26  C22 BCR C 515     -36.360 131.478   8.410  1.00 33.23    -0.062 C 
HETATM   27  C23 BCR C 515     -35.555 130.780   7.420  1.00 33.14     0.007 C 
HETATM   28  C24 BCR C 515     -34.880 129.653   7.663  1.00 33.02     0.009 C 
HETATM   29  C25 BCR C 515     -34.030 128.939   6.703  1.00 32.98    -0.048 C 
HETATM   30  C26 BCR C 515     -34.530 128.120   5.770  1.00 32.96    -0.077 C 
HETATM   31  C27 BCR C 515     -33.755 127.356   4.763  1.00 32.93     0.034 C 
HETATM   32  C28 BCR C 515     -32.341 127.863   4.636  1.00 32.96     0.005 C 
HETATM   33  C29 BCR C 515     -31.771 128.093   6.005  1.00 32.98     0.014 C 
HETATM   34  C30 BCR C 515     -32.542 129.134   6.800  1.00 33.02    -0.020 C 
HETATM   35  C35 BCR C 515     -43.063 139.758   6.679  1.00 34.12     0.048 C 
HETATM   36  C36 BCR C 515     -39.539 135.009  10.598  1.00 33.59     0.048 C 
HETATM   37  C37 BCR C 515     -36.146 131.230   9.845  1.00 33.23     0.048 C 
HETATM   38  C38 BCR C 515     -35.967 127.842   5.601  1.00 32.96     0.044 C 
HETATM   39  C39 BCR C 515     -32.132 130.529   6.368  1.00 33.04     0.020 C 
HETATM   40  C40 BCR C 515     -32.044 128.956   8.229  1.00 33.02     0.020 C 
ENDROOT
TORSDOF 10
