REMARK VINA RESULT:    -9.092      0.622     16.407
REMARK INTER + INTRA:         -15.516
REMARK INTER:                  -8.823
REMARK INTRA:                  -6.693
REMARK UNBOUND:                -6.424
REMARK  0 active torsions:
REMARK  status: ('A' for Active; 'I' for Inactive)
REMARK       I    between atoms: C6_6  and  C7_7 
REMARK       I    between atoms: C8_8  and  C9_9 
REMARK       I    between atoms: C10_10  and  C11_11 
REMARK       I    between atoms: C12_16  and  C13_17 
REMARK       I    between atoms: C14_18  and  C15_19 
REMARK       I    between atoms: C16_20  and  C17_21 
REMARK       I    between atoms: C18_22  and  C19_23 
REMARK       I    between atoms: C20_24  and  C21_25 
REMARK       I    between atoms: C22_26  and  C23_27 
REMARK       I    between atoms: C24_28  and  C25_29 
ROOT
HETATM    1  C1  BCR B 618     -50.051 150.587   7.778  1.00 40.46    -0.020 C 
HETATM    2  C2  BCR B 618     -51.212 151.350   7.133  1.00 38.19     0.014 C 
HETATM    3  C3  BCR B 618     -52.022 150.431   6.245  1.00 37.07     0.005 C 
HETATM    4  C4  BCR B 618     -52.598 149.298   7.051  1.00 35.92     0.034 C 
HETATM    5  C5  BCR B 618     -51.524 148.589   7.775  1.00 36.16    -0.077 C 
HETATM    6  C6  BCR B 618     -50.354 149.149   8.117  1.00 29.04    -0.048 C 
HETATM    7  C7  BCR B 618     -49.346 148.404   8.873  1.00 28.06     0.009 C 
HETATM    8  C8  BCR B 618     -48.780 147.296   8.387  1.00 32.09     0.007 C 
HETATM    9  C9  BCR B 618     -47.711 146.579   9.054  1.00 31.23    -0.062 C 
HETATM   10  C10 BCR B 618     -47.332 145.381   8.566  1.00 30.89     0.007 C 
HETATM   11  C11 BCR B 618     -46.135 144.662   8.957  1.00 28.43     0.001 C 
HETATM   12  C33 BCR B 618     -51.861 147.190   8.096  1.00 38.15     0.044 C 
HETATM   13  C31 BCR B 618     -49.608 151.350   9.013  1.00 41.07     0.020 C 
HETATM   14  C32 BCR B 618     -48.918 150.692   6.781  1.00 40.74     0.020 C 
HETATM   15  C34 BCR B 618     -46.890 147.360  10.009  1.00 31.69     0.048 C 
HETATM   16  C12 BCR B 618     -45.718 143.587   8.264  1.00 29.36     0.007 C 
HETATM   17  C13 BCR B 618     -44.645 142.689   8.689  1.00 25.32    -0.062 C 
HETATM   18  C14 BCR B 618     -44.290 141.642   7.921  1.00 31.04     0.007 C 
HETATM   19  C15 BCR B 618     -43.453 140.554   8.369  1.00 23.63     0.001 C 
HETATM   20  C16 BCR B 618     -42.863 139.699   7.503  1.00 31.26     0.001 C 
HETATM   21  C17 BCR B 618     -41.942 138.698   8.029  1.00 34.11     0.007 C 
HETATM   22  C18 BCR B 618     -41.669 137.465   7.550  1.00 31.18    -0.062 C 
HETATM   23  C19 BCR B 618     -40.621 136.657   8.155  1.00 30.29     0.007 C 
HETATM   24  C20 BCR B 618     -40.502 135.346   7.879  1.00 41.94     0.001 C 
HETATM   25  C21 BCR B 618     -39.215 134.684   7.978  1.00 35.48     0.007 C 
HETATM   26  C22 BCR B 618     -39.004 133.368   8.072  1.00 28.25    -0.062 C 
HETATM   27  C23 BCR B 618     -37.690 132.899   8.506  1.00 31.42     0.007 C 
HETATM   28  C24 BCR B 618     -37.361 131.601   8.685  1.00 38.15     0.009 C 
HETATM   29  C25 BCR B 618     -36.047 131.180   9.196  1.00 34.46    -0.048 C 
HETATM   30  C26 BCR B 618     -35.831 131.137  10.510  1.00 40.95    -0.077 C 
HETATM   31  C27 BCR B 618     -34.542 130.801  11.155  1.00 42.20     0.034 C 
HETATM   32  C28 BCR B 618     -33.651 129.933  10.316  1.00 33.45     0.005 C 
HETATM   33  C29 BCR B 618     -33.702 130.217   8.836  1.00 35.30     0.014 C 
HETATM   34  C30 BCR B 618     -34.964 130.840   8.226  1.00 37.08    -0.020 C 
HETATM   35  C35 BCR B 618     -43.780 143.082   9.815  1.00 27.05     0.048 C 
HETATM   36  C36 BCR B 618     -42.230 136.961   6.294  1.00 33.84     0.048 C 
HETATM   37  C37 BCR B 618     -39.822 132.454   7.254  1.00 39.76     0.048 C 
HETATM   38  C38 BCR B 618     -36.881 131.524  11.497  1.00 35.08     0.044 C 
HETATM   39  C39 BCR B 618     -35.555 130.016   7.108  1.00 43.92     0.020 C 
HETATM   40  C40 BCR B 618     -34.388 132.051   7.505  1.00 41.09     0.020 C 
ENDROOT
TORSDOF 10
