REMARK VINA RESULT:    -6.099      1.756     16.624
REMARK INTER + INTRA:          -8.975
REMARK INTER:                  -6.024
REMARK INTRA:                  -2.951
REMARK UNBOUND:                -2.876
REMARK  0 active torsions:
REMARK  status: ('A' for Active; 'I' for Inactive)
REMARK       I    between atoms: C6_6  and  C7_7 
REMARK       I    between atoms: C8_8  and  C9_9 
REMARK       I    between atoms: C10_10  and  C11_11 
REMARK       I    between atoms: C12_16  and  C13_17 
REMARK       I    between atoms: C14_18  and  C15_19 
REMARK       I    between atoms: C16_20  and  C17_21 
REMARK       I    between atoms: C18_22  and  C19_23 
REMARK       I    between atoms: C20_24  and  C21_25 
REMARK       I    between atoms: C22_26  and  C23_27 
REMARK       I    between atoms: C24_28  and  C25_29 
ROOT
HETATM    1  C1  BCR B 618     -48.788 147.090   9.841  1.00 29.97    -0.020 C 
HETATM    2  C2  BCR B 618     -50.055 147.905  10.144  1.00 30.11     0.014 C 
HETATM    3  C3  BCR B 618     -51.279 147.072  10.550  1.00 28.88     0.005 C 
HETATM    4  C4  BCR B 618     -51.604 145.938   9.594  1.00 28.77     0.034 C 
HETATM    5  C5  BCR B 618     -50.385 145.383   8.881  1.00 28.24    -0.077 C 
HETATM    6  C6  BCR B 618     -49.134 145.908   8.974  1.00 26.72    -0.048 C 
HETATM    7  C7  BCR B 618     -48.041 145.255   8.220  1.00 26.16     0.009 C 
HETATM    8  C8  BCR B 618     -47.198 144.363   8.763  1.00 23.90     0.007 C 
HETATM    9  C9  BCR B 618     -46.134 143.729   7.923  1.00 22.06    -0.062 C 
HETATM   10  C10 BCR B 618     -45.453 142.673   8.406  1.00 23.67     0.007 C 
HETATM   11  C11 BCR B 618     -44.428 141.900   7.708  1.00 23.73     0.001 C 
HETATM   12  C33 BCR B 618     -50.677 144.210   7.997  1.00 30.53     0.044 C 
HETATM   13  C31 BCR B 618     -48.077 146.587  11.114  1.00 30.85     0.020 C 
HETATM   14  C32 BCR B 618     -47.842 148.074   9.115  1.00 30.08     0.020 C 
HETATM   15  C34 BCR B 618     -45.792 144.289   6.563  1.00 25.71     0.048 C 
HETATM   16  C12 BCR B 618     -43.783 140.937   8.419  1.00 24.44     0.007 C 
HETATM   17  C13 BCR B 618     -42.782 140.032   7.817  1.00 23.39    -0.062 C 
HETATM   18  C14 BCR B 618     -42.273 139.001   8.601  1.00 20.98     0.007 C 
HETATM   19  C15 BCR B 618     -41.375 137.986   8.020  1.00 21.06     0.001 C 
HETATM   20  C16 BCR B 618     -41.035 136.912   8.768  1.00 22.19     0.001 C 
HETATM   21  C17 BCR B 618     -40.163 135.873   8.205  1.00 21.58     0.007 C 
HETATM   22  C18 BCR B 618     -39.817 134.695   8.821  1.00 20.96    -0.062 C 
HETATM   23  C19 BCR B 618     -38.915 133.780   8.101  1.00 19.82     0.007 C 
HETATM   24  C20 BCR B 618     -38.518 132.540   8.528  1.00 20.56     0.001 C 
HETATM   25  C21 BCR B 618     -37.562 131.818   7.657  1.00 20.57     0.007 C 
HETATM   26  C22 BCR B 618     -37.206 130.513   7.827  1.00 19.60    -0.062 C 
HETATM   27  C23 BCR B 618     -36.229 129.941   6.892  1.00 22.92     0.007 C 
HETATM   28  C24 BCR B 618     -35.673 128.724   7.073  1.00 24.17     0.009 C 
HETATM   29  C25 BCR B 618     -34.662 128.120   6.140  1.00 26.94    -0.048 C 
HETATM   30  C26 BCR B 618     -34.702 128.161   4.778  1.00 28.75    -0.077 C 
HETATM   31  C27 BCR B 618     -33.635 127.514   3.872  1.00 30.75     0.034 C 
HETATM   32  C28 BCR B 618     -32.696 126.558   4.615  1.00 33.35     0.005 C 
HETATM   33  C29 BCR B 618     -32.322 127.092   5.995  1.00 31.28     0.014 C 
HETATM   34  C30 BCR B 618     -33.544 127.382   6.884  1.00 29.59    -0.020 C 
HETATM   35  C35 BCR B 618     -42.431 140.278   6.369  1.00 23.27     0.048 C 
HETATM   36  C36 BCR B 618     -40.276 134.341  10.188  1.00 21.00     0.048 C 
HETATM   37  C37 BCR B 618     -37.836 129.668   8.936  1.00 20.72     0.048 C 
HETATM   38  C38 BCR B 618     -35.771 128.867   3.984  1.00 30.08     0.044 C 
HETATM   39  C39 BCR B 618     -33.028 128.254   8.033  1.00 28.53     0.020 C 
HETATM   40  C40 BCR B 618     -34.138 126.086   7.428  1.00 29.57     0.020 C 
ENDROOT
TORSDOF 10
