REMARK VINA RESULT:    -7.578      1.581     16.078
REMARK INTER + INTRA:         -10.917
REMARK INTER:                  -5.834
REMARK INTRA:                  -5.083
REMARK UNBOUND:                -3.339
REMARK  0 active torsions:
REMARK  status: ('A' for Active; 'I' for Inactive)
REMARK       I    between atoms: C6_6  and  C7_7 
REMARK       I    between atoms: C8_8  and  C9_9 
REMARK       I    between atoms: C10_10  and  C11_11 
REMARK       I    between atoms: C12_16  and  C13_17 
REMARK       I    between atoms: C14_18  and  C15_19 
REMARK       I    between atoms: C16_20  and  C17_21 
REMARK       I    between atoms: C18_22  and  C19_23 
REMARK       I    between atoms: C20_24  and  C21_25 
REMARK       I    between atoms: C22_26  and  C23_27 
REMARK       I    between atoms: C24_28  and  C25_29 
ROOT
HETATM    1  C1  BCR K 101     -50.384 144.824   8.753  1.00 61.74    -0.020 C 
HETATM    2  C2  BCR K 101     -51.764 145.186   9.301  1.00 63.47     0.014 C 
HETATM    3  C3  BCR K 101     -51.744 145.402  10.801  1.00 57.51     0.005 C 
HETATM    4  C4  BCR K 101     -50.807 146.551  11.116  1.00 60.11     0.034 C 
HETATM    5  C5  BCR K 101     -49.426 146.250  10.581  1.00 59.07    -0.077 C 
HETATM    6  C6  BCR K 101     -49.235 145.468   9.508  1.00 62.21    -0.048 C 
HETATM    7  C7  BCR K 101     -47.880 145.176   8.980  1.00 58.73     0.009 C 
HETATM    8  C8  BCR K 101     -47.016 144.380   9.606  1.00 55.67     0.007 C 
HETATM    9  C9  BCR K 101     -45.701 144.077   9.018  1.00 52.89    -0.062 C 
HETATM   10  C10 BCR K 101     -45.077 142.962   9.444  1.00 55.14     0.007 C 
HETATM   11  C11 BCR K 101     -43.795 142.466   8.943  1.00 61.50     0.001 C 
HETATM   12  C33 BCR K 101     -48.269 146.871  11.302  1.00 62.66     0.044 C 
HETATM   13  C31 BCR K 101     -50.340 145.249   7.292  1.00 50.75     0.020 C 
HETATM   14  C32 BCR K 101     -50.184 143.313   8.839  1.00 48.41     0.020 C 
HETATM   15  C34 BCR K 101     -45.099 144.974   7.981  1.00 53.75     0.048 C 
HETATM   16  C12 BCR K 101     -43.406 141.267   9.385  1.00 59.30     0.007 C 
HETATM   17  C13 BCR K 101     -42.184 140.558   8.947  1.00 63.72    -0.062 C 
HETATM   18  C14 BCR K 101     -41.900 139.350   9.487  1.00 56.40     0.007 C 
HETATM   19  C15 BCR K 101     -40.757 138.528   9.080  1.00 52.49     0.001 C 
HETATM   20  C16 BCR K 101     -40.495 137.343   9.646  1.00 54.34     0.001 C 
HETATM   21  C17 BCR K 101     -39.371 136.532   9.163  1.00 49.34     0.007 C 
HETATM   22  C18 BCR K 101     -39.053 135.317   9.658  1.00 62.88    -0.062 C 
HETATM   23  C19 BCR K 101     -37.927 134.563   9.040  1.00 60.90     0.007 C 
HETATM   24  C20 BCR K 101     -37.779 133.239   9.169  1.00 51.07     0.001 C 
HETATM   25  C21 BCR K 101     -36.667 132.572   8.484  1.00 47.75     0.007 C 
HETATM   26  C22 BCR K 101     -36.484 131.241   8.408  1.00 48.45    -0.062 C 
HETATM   27  C23 BCR K 101     -35.425 130.760   7.716  1.00 53.56     0.007 C 
HETATM   28  C24 BCR K 101     -35.242 129.438   7.514  1.00 50.64     0.009 C 
HETATM   29  C25 BCR K 101     -34.094 128.835   6.763  1.00 69.21    -0.048 C 
HETATM   30  C26 BCR K 101     -32.817 128.985   7.185  1.00 58.66    -0.077 C 
HETATM   31  C27 BCR K 101     -31.642 128.383   6.447  1.00 58.99     0.034 C 
HETATM   32  C28 BCR K 101     -31.960 128.223   4.977  1.00 47.83     0.005 C 
HETATM   33  C29 BCR K 101     -33.224 127.389   4.833  1.00 60.06     0.014 C 
HETATM   34  C30 BCR K 101     -34.432 128.026   5.516  1.00 65.44    -0.020 C 
HETATM   35  C35 BCR K 101     -41.323 141.157   7.875  1.00 53.57     0.048 C 
HETATM   36  C36 BCR K 101     -39.842 134.739  10.801  1.00 46.50     0.048 C 
HETATM   37  C37 BCR K 101     -37.433 130.280   9.087  1.00 47.91     0.048 C 
HETATM   38  C38 BCR K 101     -32.463 129.760   8.423  1.00 59.26     0.044 C 
HETATM   39  C39 BCR K 101     -35.375 126.895   5.919  1.00 43.58     0.020 C 
HETATM   40  C40 BCR K 101     -35.149 128.915   4.512  1.00 44.74     0.020 C 
ENDROOT
TORSDOF 10
