REMARK VINA RESULT:    -7.992      1.621     16.556
REMARK INTER + INTRA:         -10.663
REMARK INTER:                  -8.830
REMARK INTRA:                  -1.833
REMARK UNBOUND:                -2.671
REMARK  0 active torsions:
REMARK  status: ('A' for Active; 'I' for Inactive)
REMARK       I    between atoms: C6_6  and  C7_7 
REMARK       I    between atoms: C8_8  and  C9_9 
REMARK       I    between atoms: C10_10  and  C11_11 
REMARK       I    between atoms: C12_16  and  C13_17 
REMARK       I    between atoms: C14_18  and  C15_19 
REMARK       I    between atoms: C16_20  and  C17_21 
REMARK       I    between atoms: C18_22  and  C19_23 
REMARK       I    between atoms: C20_24  and  C21_25 
REMARK       I    between atoms: C22_26  and  C23_27 
REMARK       I    between atoms: C24_28  and  C25_29 
ROOT
HETATM    1  C1  BCR B 618     -51.119 146.982  10.022  1.00 25.69    -0.020 C 
HETATM    2  C2  BCR B 618     -51.717 148.248  10.570  1.00 30.07     0.014 C 
HETATM    3  C3  BCR B 618     -50.919 148.802  11.736  1.00 28.38     0.005 C 
HETATM    4  C4  BCR B 618     -50.709 147.855  12.887  1.00 25.71     0.034 C 
HETATM    5  C5  BCR B 618     -50.455 146.462  12.408  1.00 24.46    -0.077 C 
HETATM    6  C6  BCR B 618     -50.750 146.066  11.172  1.00 26.24    -0.048 C 
HETATM    7  C7  BCR B 618     -50.598 144.630  10.842  1.00 27.12     0.009 C 
HETATM    8  C8  BCR B 618     -49.413 144.219  10.296  1.00 26.98     0.007 C 
HETATM    9  C9  BCR B 618     -49.155 142.772  10.067  1.00 24.53    -0.062 C 
HETATM   10  C10 BCR B 618     -47.928 142.296   9.725  1.00 24.97     0.007 C 
HETATM   11  C11 BCR B 618     -47.544 140.919   9.482  1.00 25.62     0.001 C 
HETATM   12  C33 BCR B 618     -50.031 145.483  13.454  1.00 29.99     0.044 C 
HETATM   13  C31 BCR B 618     -49.941 147.275   9.135  1.00 31.89     0.020 C 
HETATM   14  C32 BCR B 618     -52.270 146.337   9.203  1.00 28.38     0.020 C 
HETATM   15  C34 BCR B 618     -50.288 141.834  10.222  1.00 33.15     0.048 C 
HETATM   16  C12 BCR B 618     -46.246 140.653   9.109  1.00 26.13     0.007 C 
HETATM   17  C13 BCR B 618     -45.765 139.271   8.903  1.00 22.67    -0.062 C 
HETATM   18  C14 BCR B 618     -44.436 139.049   8.622  1.00 24.59     0.007 C 
HETATM   19  C15 BCR B 618     -43.840 137.709   8.455  1.00 24.70     0.001 C 
HETATM   20  C16 BCR B 618     -42.490 137.658   8.307  1.00 24.56     0.001 C 
HETATM   21  C17 BCR B 618     -41.823 136.398   8.211  1.00 24.82     0.007 C 
HETATM   22  C18 BCR B 618     -40.476 136.140   8.147  1.00 24.84    -0.062 C 
HETATM   23  C19 BCR B 618     -40.032 134.719   8.045  1.00 26.41     0.007 C 
HETATM   24  C20 BCR B 618     -38.727 134.260   8.076  1.00 24.04     0.001 C 
HETATM   25  C21 BCR B 618     -38.512 132.829   8.032  1.00 21.42     0.007 C 
HETATM   26  C22 BCR B 618     -37.300 132.247   8.190  1.00 21.83    -0.062 C 
HETATM   27  C23 BCR B 618     -37.273 130.783   8.108  1.00 24.43     0.007 C 
HETATM   28  C24 BCR B 618     -36.132 130.094   8.109  1.00 24.88     0.009 C 
HETATM   29  C25 BCR B 618     -36.011 128.645   7.844  1.00 27.45    -0.048 C 
HETATM   30  C26 BCR B 618     -36.858 127.722   8.306  1.00 30.30    -0.077 C 
HETATM   31  C27 BCR B 618     -36.696 126.224   8.040  1.00 34.06     0.034 C 
HETATM   32  C28 BCR B 618     -35.368 125.850   7.441  1.00 34.26     0.005 C 
HETATM   33  C29 BCR B 618     -34.956 126.862   6.369  1.00 31.13     0.014 C 
HETATM   34  C30 BCR B 618     -34.846 128.268   6.926  1.00 27.47    -0.020 C 
HETATM   35  C35 BCR B 618     -46.728 138.123   9.022  1.00 24.37     0.048 C 
HETATM   36  C36 BCR B 618     -39.420 137.183   8.137  1.00 25.76     0.048 C 
HETATM   37  C37 BCR B 618     -36.087 133.039   8.493  1.00 22.43     0.048 C 
HETATM   38  C38 BCR B 618     -37.967 128.027   9.251  1.00 29.80     0.044 C 
HETATM   39  C39 BCR B 618     -34.869 129.129   5.654  1.00 24.87     0.020 C 
HETATM   40  C40 BCR B 618     -33.532 128.510   7.667  1.00 29.70     0.020 C 
ENDROOT
TORSDOF 10
