REMARK VINA RESULT:    -7.186      2.508     16.799
REMARK INTER + INTRA:         -13.036
REMARK INTER:                 -10.016
REMARK INTRA:                  -3.021
REMARK UNBOUND:                -5.850
REMARK  0 active torsions:
REMARK  status: ('A' for Active; 'I' for Inactive)
REMARK       I    between atoms: C6_6  and  C7_7 
REMARK       I    between atoms: C8_8  and  C9_9 
REMARK       I    between atoms: C10_10  and  C11_11 
REMARK       I    between atoms: C12_16  and  C13_17 
REMARK       I    between atoms: C14_18  and  C15_19 
REMARK       I    between atoms: C16_20  and  C17_21 
REMARK       I    between atoms: C18_22  and  C19_23 
REMARK       I    between atoms: C20_24  and  C21_25 
REMARK       I    between atoms: C22_26  and  C23_27 
REMARK       I    between atoms: C24_28  and  C25_29 
ROOT
HETATM    1  C1  BCR B 619     -46.324 149.011  11.230  1.00 30.41    -0.020 C 
HETATM    2  C2  BCR B 619     -47.504 149.791  11.868  1.00 29.63     0.014 C 
HETATM    3  C3  BCR B 619     -48.529 148.788  12.433  1.00 28.10     0.005 C 
HETATM    4  C4  BCR B 619     -47.897 147.929  13.548  1.00 30.58     0.034 C 
HETATM    5  C5  BCR B 619     -46.530 147.370  13.163  1.00 27.72    -0.077 C 
HETATM    6  C6  BCR B 619     -45.818 147.864  12.092  1.00 26.65    -0.048 C 
HETATM    7  C7  BCR B 619     -44.517 147.250  11.673  1.00 26.32     0.009 C 
HETATM    8  C8  BCR B 619     -44.385 145.906  11.469  1.00 23.77     0.007 C 
HETATM    9  C9  BCR B 619     -43.119 145.279  11.022  1.00 23.42    -0.062 C 
HETATM   10  C10 BCR B 619     -43.117 143.940  10.926  1.00 22.94     0.007 C 
HETATM   11  C11 BCR B 619     -42.001 143.106  10.439  1.00 21.56     0.001 C 
HETATM   12  C33 BCR B 619     -46.061 146.210  14.020  1.00 25.32     0.044 C 
HETATM   13  C31 BCR B 619     -45.184 149.981  10.981  1.00 32.57     0.020 C 
HETATM   14  C32 BCR B 619     -46.756 148.408   9.888  1.00 28.71     0.020 C 
HETATM   15  C34 BCR B 619     -41.935 146.174  10.656  1.00 22.58     0.048 C 
HETATM   16  C12 BCR B 619     -42.220 141.782  10.222  1.00 19.70     0.007 C 
HETATM   17  C13 BCR B 619     -41.145 140.907   9.714  1.00 21.87    -0.062 C 
HETATM   18  C14 BCR B 619     -41.363 139.572   9.704  1.00 20.70     0.007 C 
HETATM   19  C15 BCR B 619     -40.412 138.527   9.291  1.00 23.20     0.001 C 
HETATM   20  C16 BCR B 619     -40.708 137.183   9.205  1.00 22.02     0.001 C 
HETATM   21  C17 BCR B 619     -39.632 136.250   8.804  1.00 23.03     0.007 C 
HETATM   22  C18 BCR B 619     -39.729 134.884   8.762  1.00 21.71    -0.062 C 
HETATM   23  C19 BCR B 619     -38.577 134.070   8.288  1.00 23.57     0.007 C 
HETATM   24  C20 BCR B 619     -38.624 132.725   8.198  1.00 26.34     0.001 C 
HETATM   25  C21 BCR B 619     -37.459 131.988   7.698  1.00 25.97     0.007 C 
HETATM   26  C22 BCR B 619     -37.219 130.662   7.837  1.00 30.95    -0.062 C 
HETATM   27  C23 BCR B 619     -35.941 130.147   7.244  1.00 33.56     0.007 C 
HETATM   28  C24 BCR B 619     -35.538 128.847   7.240  1.00 40.35     0.009 C 
HETATM   29  C25 BCR B 619     -34.246 128.281   6.649  1.00 41.63    -0.048 C 
HETATM   30  C26 BCR B 619     -32.999 128.613   7.103  1.00 40.62    -0.077 C 
HETATM   31  C27 BCR B 619     -31.745 128.034   6.488  1.00 39.37     0.034 C 
HETATM   32  C28 BCR B 619     -31.947 127.753   5.010  1.00 37.91     0.005 C 
HETATM   33  C29 BCR B 619     -33.064 126.754   4.911  1.00 42.57     0.014 C 
HETATM   34  C30 BCR B 619     -34.384 127.254   5.517  1.00 42.87    -0.020 C 
HETATM   35  C35 BCR B 619     -39.808 141.567   9.304  1.00 21.20     0.048 C 
HETATM   36  C36 BCR B 619     -40.975 134.113   9.208  1.00 21.22     0.048 C 
HETATM   37  C37 BCR B 619     -38.218 129.724   8.536  1.00 32.33     0.048 C 
HETATM   38  C38 BCR B 619     -32.755 129.631   8.191  1.00 44.08     0.044 C 
HETATM   39  C39 BCR B 619     -35.222 126.049   6.034  1.00 45.77     0.020 C 
HETATM   40  C40 BCR B 619     -35.101 127.916   4.371  1.00 41.31     0.020 C 
ENDROOT
TORSDOF 10
