REMARK VINA RESULT:    -6.531      2.534      4.574
REMARK INTER + INTRA:         -13.509
REMARK INTER:                 -11.361
REMARK INTRA:                  -2.148
REMARK UNBOUND:                -6.978
REMARK  0 active torsions:
REMARK  status: ('A' for Active; 'I' for Inactive)
REMARK       I    between atoms: C6_6  and  C7_7 
REMARK       I    between atoms: C8_8  and  C9_9 
REMARK       I    between atoms: C10_10  and  C11_11 
REMARK       I    between atoms: C12_16  and  C13_17 
REMARK       I    between atoms: C14_18  and  C15_19 
REMARK       I    between atoms: C16_20  and  C17_21 
REMARK       I    between atoms: C18_22  and  C19_23 
REMARK       I    between atoms: C20_24  and  C21_25 
REMARK       I    between atoms: C22_26  and  C23_27 
REMARK       I    between atoms: C24_28  and  C25_29 
ROOT
HETATM    1  C1  BCR A 409     -33.969 127.060   6.987  1.00 15.04    -0.020 C 
HETATM    2  C2  BCR A 409     -33.071 126.203   6.108  1.00 15.03     0.014 C 
HETATM    3  C3  BCR A 409     -32.587 126.965   4.914  1.00 15.05     0.005 C 
HETATM    4  C4  BCR A 409     -31.772 128.142   5.365  1.00 15.05     0.034 C 
HETATM    5  C5  BCR A 409     -32.492 128.938   6.385  1.00 15.05    -0.077 C 
HETATM    6  C6  BCR A 409     -33.512 128.481   7.128  1.00 15.04    -0.048 C 
HETATM    7  C7  BCR A 409     -34.184 129.324   8.134  1.00 15.04     0.009 C 
HETATM    8  C8  BCR A 409     -35.166 130.194   7.850  1.00 15.04     0.007 C 
HETATM    9  C9  BCR A 409     -35.787 131.097   8.806  1.00 15.05    -0.062 C 
HETATM   10  C10 BCR A 409     -36.558 132.095   8.358  1.00 15.04     0.007 C 
HETATM   11  C11 BCR A 409     -37.216 133.080   9.186  1.00 15.04     0.001 C 
HETATM   12  C33 BCR A 409     -31.975 130.312   6.500  1.00 15.05     0.044 C 
HETATM   13  C31 BCR A 409     -33.992 126.358   8.327  1.00 15.03     0.020 C 
HETATM   14  C32 BCR A 409     -35.368 126.983   6.408  1.00 15.04     0.020 C 
HETATM   15  C34 BCR A 409     -35.811 130.702  10.226  1.00 15.07     0.048 C 
HETATM   16  C12 BCR A 409     -38.166 133.850   8.648  1.00 15.03     0.007 C 
HETATM   17  C13 BCR A 409     -38.998 134.791   9.363  1.00 15.02    -0.062 C 
HETATM   18  C14 BCR A 409     -39.935 135.471   8.688  1.00 15.00     0.007 C 
HETATM   19  C15 BCR A 409     -40.779 136.472   9.283  1.00 14.99     0.001 C 
HETATM   20  C16 BCR A 409     -41.475 137.303   8.504  1.00 14.98     0.001 C 
HETATM   21  C17 BCR A 409     -42.376 138.231   9.124  1.00 14.98     0.007 C 
HETATM   22  C18 BCR A 409     -43.296 138.990   8.517  1.00 14.98    -0.062 C 
HETATM   23  C19 BCR A 409     -44.173 139.780   9.352  1.00 14.98     0.007 C 
HETATM   24  C20 BCR A 409     -44.805 140.861   8.899  1.00 15.00     0.001 C 
HETATM   25  C21 BCR A 409     -45.845 141.474   9.692  1.00 14.99     0.007 C 
HETATM   26  C22 BCR A 409     -46.217 142.752   9.583  1.00 14.99    -0.062 C 
HETATM   27  C23 BCR A 409     -46.993 143.366  10.646  1.00 14.97     0.007 C 
HETATM   28  C24 BCR A 409     -47.691 144.489  10.445  1.00 14.93     0.009 C 
HETATM   29  C25 BCR A 409     -48.584 145.160  11.380  1.00 14.90    -0.048 C 
HETATM   30  C26 BCR A 409     -49.849 144.769  11.564  1.00 14.90    -0.077 C 
HETATM   31  C27 BCR A 409     -50.832 145.388  12.468  1.00 14.89     0.034 C 
HETATM   32  C28 BCR A 409     -50.169 146.250  13.507  1.00 14.90     0.005 C 
HETATM   33  C29 BCR A 409     -49.122 147.116  12.864  1.00 14.91     0.014 C 
HETATM   34  C30 BCR A 409     -48.043 146.355  12.107  1.00 14.90    -0.020 C 
HETATM   35  C35 BCR A 409     -38.924 134.890  10.831  1.00 15.02     0.048 C 
HETATM   36  C36 BCR A 409     -43.345 139.194   7.056  1.00 14.95     0.048 C 
HETATM   37  C37 BCR A 409     -46.066 143.477   8.310  1.00 15.00     0.048 C 
HETATM   38  C38 BCR A 409     -50.464 143.627  10.867  1.00 14.89     0.044 C 
HETATM   39  C39 BCR A 409     -46.906 145.983  13.040  1.00 14.93     0.020 C 
HETATM   40  C40 BCR A 409     -47.469 147.367  11.134  1.00 14.91     0.020 C 
ENDROOT
TORSDOF 10
