REMARK VINA RESULT:    -9.940      0.000      0.000
REMARK INTER + INTRA:         -16.821
REMARK INTER:                  -9.940
REMARK INTRA:                  -6.882
REMARK UNBOUND:                -6.882
REMARK  0 active torsions:
REMARK  status: ('A' for Active; 'I' for Inactive)
REMARK       I    between atoms: C6_6  and  C7_7 
REMARK       I    between atoms: C8_8  and  C9_9 
REMARK       I    between atoms: C10_10  and  C11_11 
REMARK       I    between atoms: C12_16  and  C13_17 
REMARK       I    between atoms: C14_18  and  C15_19 
REMARK       I    between atoms: C16_20  and  C17_21 
REMARK       I    between atoms: C18_22  and  C19_23 
REMARK       I    between atoms: C20_24  and  C21_25 
REMARK       I    between atoms: C22_26  and  C23_27 
REMARK       I    between atoms: C24_28  and  C25_29 
ROOT
HETATM    1  C1  BCR C 514     -35.181 131.310   8.332  1.00 46.03    -0.020 C 
HETATM    2  C2  BCR C 514     -34.206 130.221   8.682  1.00 36.42     0.014 C 
HETATM    3  C3  BCR C 514     -33.622 130.450  10.033  1.00 38.25     0.005 C 
HETATM    4  C4  BCR C 514     -34.715 130.418  11.059  1.00 35.91     0.034 C 
HETATM    5  C5  BCR C 514     -35.907 131.191  10.641  1.00 46.41    -0.077 C 
HETATM    6  C6  BCR C 514     -36.140 131.623   9.406  1.00 48.24    -0.048 C 
HETATM    7  C7  BCR C 514     -37.338 132.364   8.990  1.00 37.95     0.009 C 
HETATM    8  C8  BCR C 514     -37.612 133.614   9.360  1.00 29.80     0.007 C 
HETATM    9  C9  BCR C 514     -38.755 134.398   8.847  1.00 34.42    -0.062 C 
HETATM   10  C10 BCR C 514     -39.133 135.559   9.418  1.00 30.24     0.007 C 
HETATM   11  C11 BCR C 514     -40.194 136.425   8.945  1.00 33.35     0.001 C 
HETATM   12  C33 BCR C 514     -36.846 131.443  11.742  1.00 46.30     0.044 C 
HETATM   13  C31 BCR C 514     -35.921 130.786   7.136  1.00 39.84     0.020 C 
HETATM   14  C32 BCR C 514     -34.414 132.570   7.985  1.00 53.07     0.020 C 
HETATM   15  C34 BCR C 514     -39.514 133.874   7.695  1.00 30.46     0.048 C 
HETATM   16  C12 BCR C 514     -40.275 137.674   9.417  1.00 34.08     0.007 C 
HETATM   17  C13 BCR C 514     -41.407 138.579   9.290  1.00 43.06    -0.062 C 
HETATM   18  C14 BCR C 514     -41.242 139.878   9.623  1.00 44.33     0.007 C 
HETATM   19  C15 BCR C 514     -42.024 140.969   9.079  1.00 30.45     0.001 C 
HETATM   20  C16 BCR C 514     -42.378 142.007   9.836  1.00 31.93     0.001 C 
HETATM   21  C17 BCR C 514     -43.143 143.081   9.231  1.00 33.60     0.007 C 
HETATM   22  C18 BCR C 514     -43.090 144.386   9.571  1.00 30.74    -0.062 C 
HETATM   23  C19 BCR C 514     -44.309 145.168   9.601  1.00 33.81     0.007 C 
HETATM   24  C20 BCR C 514     -44.351 146.501   9.674  1.00 33.30     0.001 C 
HETATM   25  C21 BCR C 514     -45.614 147.161   9.407  1.00 26.27     0.007 C 
HETATM   26  C22 BCR C 514     -45.903 148.480   9.500  1.00 33.99    -0.062 C 
HETATM   27  C23 BCR C 514     -47.308 148.859   9.307  1.00 36.02     0.007 C 
HETATM   28  C24 BCR C 514     -47.851 150.049   9.609  1.00 32.82     0.009 C 
HETATM   29  C25 BCR C 514     -49.230 150.427   9.293  1.00 23.72    -0.048 C 
HETATM   30  C26 BCR C 514     -49.620 150.670   8.043  1.00 28.89    -0.077 C 
HETATM   31  C27 BCR C 514     -50.991 151.059   7.626  1.00 31.77     0.034 C 
HETATM   32  C28 BCR C 514     -52.028 150.762   8.685  1.00 32.56     0.005 C 
HETATM   33  C29 BCR C 514     -51.534 151.160  10.046  1.00 35.64     0.014 C 
HETATM   34  C30 BCR C 514     -50.205 150.516  10.429  1.00 36.04    -0.020 C 
HETATM   35  C35 BCR C 514     -42.573 138.186   8.468  1.00 31.96     0.048 C 
HETATM   36  C36 BCR C 514     -41.909 144.934  10.245  1.00 34.59     0.048 C 
HETATM   37  C37 BCR C 514     -44.971 149.475  10.108  1.00 38.91     0.048 C 
HETATM   38  C38 BCR C 514     -48.697 150.578   6.883  1.00 31.74     0.044 C 
HETATM   39  C39 BCR C 514     -50.453 149.134  10.987  1.00 32.31     0.020 C 
HETATM   40  C40 BCR C 514     -49.663 151.350  11.589  1.00 36.49     0.020 C 
ENDROOT
TORSDOF 10
