REMARK VINA RESULT:    -7.769      0.696      1.044
REMARK INTER + INTRA:         -14.693
REMARK INTER:                 -11.095
REMARK INTRA:                  -3.599
REMARK UNBOUND:                -6.924
REMARK  0 active torsions:
REMARK  status: ('A' for Active; 'I' for Inactive)
REMARK       I    between atoms: C6_6  and  C7_7 
REMARK       I    between atoms: C8_8  and  C9_9 
REMARK       I    between atoms: C10_10  and  C11_11 
REMARK       I    between atoms: C12_16  and  C13_17 
REMARK       I    between atoms: C14_18  and  C15_19 
REMARK       I    between atoms: C16_20  and  C17_21 
REMARK       I    between atoms: C18_22  and  C19_23 
REMARK       I    between atoms: C20_24  and  C21_25 
REMARK       I    between atoms: C22_26  and  C23_27 
REMARK       I    between atoms: C24_28  and  C25_29 
ROOT
HETATM    1  C1  BCR A 610     -34.321 130.795   7.840  1.00 29.59    -0.020 C 
HETATM    2  C2  BCR A 610     -33.135 129.947   8.233  1.00 31.72     0.014 C 
HETATM    3  C3  BCR A 610     -32.545 130.460   9.515  1.00 27.94     0.005 C 
HETATM    4  C4  BCR A 610     -33.586 130.379  10.627  1.00 32.43     0.034 C 
HETATM    5  C5  BCR A 610     -34.936 130.932  10.231  1.00 29.29    -0.077 C 
HETATM    6  C6  BCR A 610     -35.291 131.087   8.965  1.00 25.73    -0.048 C 
HETATM    7  C7  BCR A 610     -36.594 131.734   8.577  1.00 25.66     0.009 C 
HETATM    8  C8  BCR A 610     -36.997 132.853   9.210  1.00 28.04     0.007 C 
HETATM    9  C9  BCR A 610     -38.205 133.599   8.752  1.00 26.85    -0.062 C 
HETATM   10  C10 BCR A 610     -38.453 134.846   9.221  1.00 26.33     0.007 C 
HETATM   11  C11 BCR A 610     -39.596 135.663   8.789  1.00 27.36     0.001 C 
HETATM   12  C33 BCR A 610     -35.871 131.086  11.360  1.00 35.13     0.044 C 
HETATM   13  C31 BCR A 610     -35.023 130.054   6.752  1.00 31.88     0.020 C 
HETATM   14  C32 BCR A 610     -33.796 132.141   7.325  1.00 31.60     0.020 C 
HETATM   15  C34 BCR A 610     -39.096 132.907   7.746  1.00 29.30     0.048 C 
HETATM   16  C12 BCR A 610     -39.783 136.875   9.360  1.00 26.07     0.007 C 
HETATM   17  C13 BCR A 610     -40.899 137.808   9.082  1.00 27.88    -0.062 C 
HETATM   18  C14 BCR A 610     -40.829 139.060   9.634  1.00 26.29     0.007 C 
HETATM   19  C15 BCR A 610     -41.813 140.123   9.387  1.00 24.17     0.001 C 
HETATM   20  C16 BCR A 610     -41.674 141.364   9.878  1.00 25.06     0.001 C 
HETATM   21  C17 BCR A 610     -42.680 142.364   9.532  1.00 23.08     0.007 C 
HETATM   22  C18 BCR A 610     -42.710 143.667   9.938  1.00 25.47    -0.062 C 
HETATM   23  C19 BCR A 610     -43.811 144.569   9.519  1.00 24.27     0.007 C 
HETATM   24  C20 BCR A 610     -44.172 145.661  10.172  1.00 22.34     0.001 C 
HETATM   25  C21 BCR A 610     -45.313 146.484   9.666  1.00 26.05     0.007 C 
HETATM   26  C22 BCR A 610     -45.826 147.572  10.362  1.00 27.30    -0.062 C 
HETATM   27  C23 BCR A 610     -46.996 148.303   9.753  1.00 23.16     0.007 C 
HETATM   28  C24 BCR A 610     -47.637 149.262  10.404  1.00 21.54     0.009 C 
HETATM   29  C25 BCR A 610     -48.822 149.884   9.847  1.00 21.54    -0.048 C 
HETATM   30  C26 BCR A 610     -48.751 150.425   8.608  1.00 20.62    -0.077 C 
HETATM   31  C27 BCR A 610     -49.911 151.118   7.907  1.00 20.11     0.034 C 
HETATM   32  C28 BCR A 610     -51.211 150.775   8.603  1.00 24.80     0.005 C 
HETATM   33  C29 BCR A 610     -51.060 150.863  10.129  1.00 24.65     0.014 C 
HETATM   34  C30 BCR A 610     -50.068 149.867  10.700  1.00 22.24    -0.020 C 
HETATM   35  C35 BCR A 610     -42.053 137.261   8.276  1.00 33.62     0.048 C 
HETATM   36  C36 BCR A 610     -41.649 144.230  10.808  1.00 23.31     0.048 C 
HETATM   37  C37 BCR A 610     -45.201 147.990  11.688  1.00 28.25     0.048 C 
HETATM   38  C38 BCR A 610     -47.466 150.587   7.874  1.00 20.57     0.044 C 
HETATM   39  C39 BCR A 610     -50.591 148.417  10.657  1.00 24.02     0.020 C 
HETATM   40  C40 BCR A 610     -49.750 150.302  12.082  1.00 22.78     0.020 C 
ENDROOT
TORSDOF 10
