REMARK VINA RESULT:    -7.378      2.336     16.163
REMARK INTER + INTRA:         -10.920
REMARK INTER:                  -8.495
REMARK INTRA:                  -2.426
REMARK UNBOUND:                -3.542
REMARK  0 active torsions:
REMARK  status: ('A' for Active; 'I' for Inactive)
REMARK       I    between atoms: C6_6  and  C7_7 
REMARK       I    between atoms: C8_8  and  C9_9 
REMARK       I    between atoms: C10_10  and  C11_11 
REMARK       I    between atoms: C12_16  and  C13_17 
REMARK       I    between atoms: C14_18  and  C15_19 
REMARK       I    between atoms: C16_20  and  C17_21 
REMARK       I    between atoms: C18_22  and  C19_23 
REMARK       I    between atoms: C20_24  and  C21_25 
REMARK       I    between atoms: C22_26  and  C23_27 
REMARK       I    between atoms: C24_28  and  C25_29 
ROOT
HETATM    1  C1  BCR C 515     -49.019 147.728   9.947  1.00 39.71    -0.020 C 
HETATM    2  C2  BCR C 515     -50.195 148.561  10.414  1.00 40.37     0.014 C 
HETATM    3  C3  BCR C 515     -51.127 147.719  11.252  1.00 43.17     0.005 C 
HETATM    4  C4  BCR C 515     -51.711 146.641  10.367  1.00 48.98     0.034 C 
HETATM    5  C5  BCR C 515     -50.602 145.806   9.780  1.00 42.59    -0.077 C 
HETATM    6  C6  BCR C 515     -49.395 146.320   9.542  1.00 38.03    -0.048 C 
HETATM    7  C7  BCR C 515     -48.377 145.514   8.837  1.00 39.13     0.009 C 
HETATM    8  C8  BCR C 515     -47.689 144.501   9.360  1.00 40.01     0.007 C 
HETATM    9  C9  BCR C 515     -46.701 143.778   8.536  1.00 48.45    -0.062 C 
HETATM   10  C10 BCR C 515     -46.044 142.733   9.046  1.00 46.14     0.007 C 
HETATM   11  C11 BCR C 515     -45.059 141.978   8.277  1.00 42.52     0.001 C 
HETATM   12  C33 BCR C 515     -50.916 144.377   9.462  1.00 41.43     0.044 C 
HETATM   13  C31 BCR C 515     -48.000 147.662  11.066  1.00 36.91     0.020 C 
HETATM   14  C32 BCR C 515     -48.387 148.420   8.754  1.00 47.25     0.020 C 
HETATM   15  C34 BCR C 515     -46.412 144.220   7.132  1.00 41.23     0.048 C 
HETATM   16  C12 BCR C 515     -44.216 141.186   8.928  1.00 42.82     0.007 C 
HETATM   17  C13 BCR C 515     -43.196 140.351   8.265  1.00 44.74    -0.062 C 
HETATM   18  C14 BCR C 515     -42.688 139.332   8.966  1.00 43.56     0.007 C 
HETATM   19  C15 BCR C 515     -41.701 138.412   8.428  1.00 39.26     0.001 C 
HETATM   20  C16 BCR C 515     -41.260 137.426   9.199  1.00 40.16     0.001 C 
HETATM   21  C17 BCR C 515     -40.295 136.479   8.665  1.00 42.34     0.007 C 
HETATM   22  C18 BCR C 515     -39.653 135.583   9.419  1.00 44.22    -0.062 C 
HETATM   23  C19 BCR C 515     -38.719 134.671   8.742  1.00 48.96     0.007 C 
HETATM   24  C20 BCR C 515     -37.926 133.822   9.376  1.00 51.51     0.001 C 
HETATM   25  C21 BCR C 515     -37.083 132.996   8.528  1.00 48.83     0.007 C 
HETATM   26  C22 BCR C 515     -36.096 132.241   9.006  1.00 46.78    -0.062 C 
HETATM   27  C23 BCR C 515     -35.320 131.447   8.049  1.00 46.17     0.007 C 
HETATM   28  C24 BCR C 515     -34.541 130.447   8.438  1.00 45.08     0.009 C 
HETATM   29  C25 BCR C 515     -33.775 129.643   7.468  1.00 45.02    -0.048 C 
HETATM   30  C26 BCR C 515     -34.403 128.780   6.670  1.00 46.86    -0.077 C 
HETATM   31  C27 BCR C 515     -33.686 128.013   5.586  1.00 50.72     0.034 C 
HETATM   32  C28 BCR C 515     -32.391 128.703   5.226  1.00 55.86     0.005 C 
HETATM   33  C29 BCR C 515     -31.592 128.847   6.501  1.00 52.85     0.014 C 
HETATM   34  C30 BCR C 515     -32.281 129.820   7.444  1.00 52.22    -0.020 C 
HETATM   35  C35 BCR C 515     -42.743 140.612   6.860  1.00 45.43     0.048 C 
HETATM   36  C36 BCR C 515     -39.885 135.497  10.895  1.00 42.28     0.048 C 
HETATM   37  C37 BCR C 515     -35.793 132.214  10.469  1.00 46.03     0.048 C 
HETATM   38  C38 BCR C 515     -35.873 128.523   6.824  1.00 45.04     0.044 C 
HETATM   39  C39 BCR C 515     -31.974 131.243   7.005  1.00 52.25     0.020 C 
HETATM   40  C40 BCR C 515     -31.775 129.590   8.853  1.00 47.46     0.020 C 
ENDROOT
TORSDOF 10
