REMARK VINA RESULT:    -9.475      0.000      0.000
REMARK INTER + INTRA:         -15.899
REMARK INTER:                  -9.475
REMARK INTRA:                  -6.424
REMARK UNBOUND:                -6.424
REMARK  0 active torsions:
REMARK  status: ('A' for Active; 'I' for Inactive)
REMARK       I    between atoms: C6_6  and  C7_7 
REMARK       I    between atoms: C8_8  and  C9_9 
REMARK       I    between atoms: C10_10  and  C11_11 
REMARK       I    between atoms: C12_16  and  C13_17 
REMARK       I    between atoms: C14_18  and  C15_19 
REMARK       I    between atoms: C16_20  and  C17_21 
REMARK       I    between atoms: C18_22  and  C19_23 
REMARK       I    between atoms: C20_24  and  C21_25 
REMARK       I    between atoms: C22_26  and  C23_27 
REMARK       I    between atoms: C24_28  and  C25_29 
ROOT
HETATM    1  C1  BCR B 618     -34.973 130.679   8.136  1.00 40.46    -0.020 C 
HETATM    2  C2  BCR B 618     -33.738 129.959   8.684  1.00 38.19     0.014 C 
HETATM    3  C3  BCR B 618     -33.300 130.578   9.994  1.00 37.07     0.005 C 
HETATM    4  C4  BCR B 618     -34.397 130.468  11.017  1.00 35.92     0.034 C 
HETATM    5  C5  BCR B 618     -35.644 131.062  10.496  1.00 36.16    -0.077 C 
HETATM    6  C6  BCR B 618     -35.933 131.174   9.190  1.00 29.04    -0.048 C 
HETATM    7  C7  BCR B 618     -37.206 131.734   8.738  1.00 28.06     0.009 C 
HETATM    8  C8  BCR B 618     -37.561 132.991   9.019  1.00 32.09     0.007 C 
HETATM    9  C9  BCR B 618     -38.765 133.620   8.513  1.00 31.23    -0.062 C 
HETATM   10  C10 BCR B 618     -39.116 134.829   8.996  1.00 30.89     0.007 C 
HETATM   11  C11 BCR B 618     -40.134 135.691   8.428  1.00 28.43     0.001 C 
HETATM   12  C33 BCR B 618     -36.559 131.525  11.555  1.00 38.15     0.044 C 
HETATM   13  C31 BCR B 618     -35.675 129.749   7.164  1.00 41.07     0.020 C 
HETATM   14  C32 BCR B 618     -34.422 131.821   7.312  1.00 40.74     0.020 C 
HETATM   15  C34 BCR B 618     -39.333 133.050   7.269  1.00 31.69     0.048 C 
HETATM   16  C12 BCR B 618     -40.265 136.967   8.834  1.00 29.36     0.007 C 
HETATM   17  C13 BCR B 618     -41.372 137.847   8.465  1.00 25.32    -0.062 C 
HETATM   18  C14 BCR B 618     -41.411 139.115   8.914  1.00 31.04     0.007 C 
HETATM   19  C15 BCR B 618     -42.576 139.966   8.844  1.00 23.63     0.001 C 
HETATM   20  C16 BCR B 618     -42.497 141.306   9.005  1.00 31.26     0.001 C 
HETATM   21  C17 BCR B 618     -43.700 142.106   8.806  1.00 34.11     0.007 C 
HETATM   22  C18 BCR B 618     -44.048 143.272   9.391  1.00 31.18    -0.062 C 
HETATM   23  C19 BCR B 618     -45.245 143.980   8.966  1.00 30.29     0.007 C 
HETATM   24  C20 BCR B 618     -45.756 144.990   9.693  1.00 41.94     0.001 C 
HETATM   25  C21 BCR B 618     -46.534 146.037   9.058  1.00 35.48     0.007 C 
HETATM   26  C22 BCR B 618     -47.370 146.884   9.666  1.00 28.25    -0.062 C 
HETATM   27  C23 BCR B 618     -48.320 147.636   8.850  1.00 31.42     0.007 C 
HETATM   28  C24 BCR B 618     -49.245 148.489   9.341  1.00 38.15     0.009 C 
HETATM   29  C25 BCR B 618     -50.232 149.167   8.487  1.00 34.46    -0.048 C 
HETATM   30  C26 BCR B 618     -51.366 148.546   8.165  1.00 40.95    -0.077 C 
HETATM   31  C27 BCR B 618     -52.408 149.082   7.260  1.00 42.20     0.034 C 
HETATM   32  C28 BCR B 618     -52.438 150.581   7.189  1.00 33.45     0.005 C 
HETATM   33  C29 BCR B 618     -51.087 151.245   7.259  1.00 35.30     0.014 C 
HETATM   34  C30 BCR B 618     -49.926 150.533   7.965  1.00 37.08    -0.020 C 
HETATM   35  C35 BCR B 618     -42.297 137.433   7.396  1.00 27.05     0.048 C 
HETATM   36  C36 BCR B 618     -43.160 143.995  10.306  1.00 33.84     0.048 C 
HETATM   37  C37 BCR B 618     -46.982 147.456  10.969  1.00 39.76     0.048 C 
HETATM   38  C38 BCR B 618     -51.669 147.162   8.631  1.00 35.08     0.044 C 
HETATM   39  C39 BCR B 618     -49.312 151.350   9.075  1.00 43.92     0.020 C 
HETATM   40  C40 BCR B 618     -48.855 150.546   6.883  1.00 41.09     0.020 C 
ENDROOT
TORSDOF 10
