REMARK VINA RESULT:    -8.588      0.000      0.000
REMARK INTER + INTRA:         -11.383
REMARK INTER:                  -8.588
REMARK INTRA:                  -2.795
REMARK UNBOUND:                -2.795
REMARK  0 active torsions:
REMARK  status: ('A' for Active; 'I' for Inactive)
REMARK       I    between atoms: C6_6  and  C7_7 
REMARK       I    between atoms: C8_8  and  C9_9 
REMARK       I    between atoms: C10_10  and  C11_11 
REMARK       I    between atoms: C12_16  and  C13_17 
REMARK       I    between atoms: C14_18  and  C15_19 
REMARK       I    between atoms: C16_20  and  C17_21 
REMARK       I    between atoms: C18_22  and  C19_23 
REMARK       I    between atoms: C20_24  and  C21_25 
REMARK       I    between atoms: C22_26  and  C23_27 
REMARK       I    between atoms: C24_28  and  C25_29 
ROOT
HETATM    1  C1  BCR B 618     -46.029 150.140  11.982  1.00 52.27    -0.020 C 
HETATM    2  C2  BCR B 618     -46.912 151.349  11.679  1.00 40.31     0.014 C 
HETATM    3  C3  BCR B 618     -47.616 151.226  10.335  1.00 36.34     0.005 C 
HETATM    4  C4  BCR B 618     -46.590 151.136   9.219  1.00 43.90     0.034 C 
HETATM    5  C5  BCR B 618     -45.469 150.169   9.541  1.00 42.39    -0.077 C 
HETATM    6  C6  BCR B 618     -45.208 149.717  10.778  1.00 41.32    -0.048 C 
HETATM    7  C7  BCR B 618     -44.072 148.778  10.959  1.00 37.02     0.009 C 
HETATM    8  C8  BCR B 618     -44.192 147.447  10.854  1.00 40.38     0.007 C 
HETATM    9  C9  BCR B 618     -43.018 146.553  11.021  1.00 43.44    -0.062 C 
HETATM   10  C10 BCR B 618     -43.128 145.252  10.703  1.00 33.05     0.007 C 
HETATM   11  C11 BCR B 618     -42.032 144.278  10.794  1.00 38.44     0.001 C 
HETATM   12  C33 BCR B 618     -44.613 149.714   8.403  1.00 43.01     0.044 C 
HETATM   13  C31 BCR B 618     -46.892 148.950  12.399  1.00 47.24     0.020 C 
HETATM   14  C32 BCR B 618     -45.076 150.529  13.109  1.00 46.10     0.020 C 
HETATM   15  C34 BCR B 618     -41.719 147.089  11.533  1.00 38.09     0.048 C 
HETATM   16  C12 BCR B 618     -42.322 142.994  10.537  1.00 45.48     0.007 C 
HETATM   17  C13 BCR B 618     -41.296 141.931  10.545  1.00 46.67    -0.062 C 
HETATM   18  C14 BCR B 618     -41.660 140.653  10.263  1.00 36.87     0.007 C 
HETATM   19  C15 BCR B 618     -40.724 139.517  10.217  1.00 33.54     0.001 C 
HETATM   20  C16 BCR B 618     -41.058 138.365   9.621  1.00 30.58     0.001 C 
HETATM   21  C17 BCR B 618     -40.120 137.221   9.551  1.00 36.03     0.007 C 
HETATM   22  C18 BCR B 618     -40.446 136.000   9.061  1.00 37.55    -0.062 C 
HETATM   23  C19 BCR B 618     -39.414 134.926   9.043  1.00 41.57     0.007 C 
HETATM   24  C20 BCR B 618     -39.488 133.744   8.409  1.00 44.50     0.001 C 
HETATM   25  C21 BCR B 618     -38.320 132.852   8.532  1.00 27.16     0.007 C 
HETATM   26  C22 BCR B 618     -38.078 131.733   7.813  1.00 45.91    -0.062 C 
HETATM   27  C23 BCR B 618     -36.939 131.030   8.050  1.00 42.15     0.007 C 
HETATM   28  C24 BCR B 618     -36.587 129.991   7.277  1.00 36.90     0.009 C 
HETATM   29  C25 BCR B 618     -35.378 129.144   7.438  1.00 40.99    -0.048 C 
HETATM   30  C26 BCR B 618     -34.126 129.647   7.276  1.00 43.47    -0.077 C 
HETATM   31  C27 BCR B 618     -32.883 128.792   7.424  1.00 44.02     0.034 C 
HETATM   32  C28 BCR B 618     -33.205 127.303   7.347  1.00 46.97     0.005 C 
HETATM   33  C29 BCR B 618     -34.387 126.935   8.235  1.00 50.46     0.014 C 
HETATM   34  C30 BCR B 618     -35.640 127.663   7.767  1.00 44.40    -0.020 C 
HETATM   35  C35 BCR B 618     -39.872 142.339  10.801  1.00 29.80     0.048 C 
HETATM   36  C36 BCR B 618     -41.829 135.720   8.546  1.00 38.94     0.048 C 
HETATM   37  C37 BCR B 618     -39.058 131.236   6.780  1.00 32.34     0.048 C 
HETATM   38  C38 BCR B 618     -33.856 131.093   6.947  1.00 35.16     0.044 C 
HETATM   39  C39 BCR B 618     -36.705 127.544   8.852  1.00 36.65     0.020 C 
HETATM   40  C40 BCR B 618     -36.199 126.926   6.560  1.00 45.60     0.020 C 
ENDROOT
TORSDOF 10
