REMARK VINA RESULT:    -8.438      0.000      0.000
REMARK INTER + INTRA:         -13.648
REMARK INTER:                  -8.438
REMARK INTRA:                  -5.210
REMARK UNBOUND:                -5.210
REMARK  0 active torsions:
REMARK  status: ('A' for Active; 'I' for Inactive)
REMARK       I    between atoms: C6_6  and  C7_7 
REMARK       I    between atoms: C8_8  and  C9_9 
REMARK       I    between atoms: C10_10  and  C11_11 
REMARK       I    between atoms: C12_16  and  C13_17 
REMARK       I    between atoms: C14_18  and  C15_19 
REMARK       I    between atoms: C16_20  and  C17_21 
REMARK       I    between atoms: C18_22  and  C19_23 
REMARK       I    between atoms: C20_24  and  C21_25 
REMARK       I    between atoms: C22_26  and  C23_27 
REMARK       I    between atoms: C24_28  and  C25_29 
ROOT
HETATM    1  C1  BCR K 101     -34.687 127.157   4.949  1.00 39.81    -0.020 C 
HETATM    2  C2  BCR K 101     -34.058 125.945   4.254  1.00 38.79     0.014 C 
HETATM    3  C3  BCR K 101     -32.828 126.264   3.419  1.00 38.89     0.005 C 
HETATM    4  C4  BCR K 101     -31.750 126.975   4.206  1.00 39.76     0.034 C 
HETATM    5  C5  BCR K 101     -32.298 127.825   5.352  1.00 40.09    -0.077 C 
HETATM    6  C6  BCR K 101     -33.611 127.922   5.716  1.00 36.54    -0.048 C 
HETATM    7  C7  BCR K 101     -34.016 128.830   6.835  1.00 35.69     0.009 C 
HETATM    8  C8  BCR K 101     -35.216 129.441   6.880  1.00 32.09     0.007 C 
HETATM    9  C9  BCR K 101     -35.604 130.381   7.972  1.00 33.32    -0.062 C 
HETATM   10  C10 BCR K 101     -36.730 131.089   7.833  1.00 32.38     0.007 C 
HETATM   11  C11 BCR K 101     -37.223 132.097   8.789  1.00 32.77     0.001 C 
HETATM   12  C33 BCR K 101     -31.210 128.564   6.063  1.00 39.28     0.044 C 
HETATM   13  C31 BCR K 101     -35.787 126.616   5.877  1.00 37.09     0.020 C 
HETATM   14  C32 BCR K 101     -35.281 128.089   3.886  1.00 43.36     0.020 C 
HETATM   15  C34 BCR K 101     -34.769 130.514   9.219  1.00 32.01     0.048 C 
HETATM   16  C12 BCR K 101     -38.228 132.872   8.353  1.00 30.65     0.007 C 
HETATM   17  C13 BCR K 101     -38.791 134.005   9.140  1.00 35.62    -0.062 C 
HETATM   18  C14 BCR K 101     -39.737 134.743   8.524  1.00 31.41     0.007 C 
HETATM   19  C15 BCR K 101     -40.418 135.954   9.033  1.00 34.91     0.001 C 
HETATM   20  C16 BCR K 101     -41.236 136.705   8.236  1.00 32.35     0.001 C 
HETATM   21  C17 BCR K 101     -41.837 137.924   8.818  1.00 32.64     0.007 C 
HETATM   22  C18 BCR K 101     -42.548 138.861   8.135  1.00 35.55    -0.062 C 
HETATM   23  C19 BCR K 101     -43.063 140.054   8.840  1.00 34.55     0.007 C 
HETATM   24  C20 BCR K 101     -43.595 141.160   8.291  1.00 32.00     0.001 C 
HETATM   25  C21 BCR K 101     -44.081 142.206   9.204  1.00 31.85     0.007 C 
HETATM   26  C22 BCR K 101     -44.811 143.275   8.827  1.00 31.16    -0.062 C 
HETATM   27  C23 BCR K 101     -45.266 144.155   9.942  1.00 35.19     0.007 C 
HETATM   28  C24 BCR K 101     -46.322 144.982   9.845  1.00 36.06     0.009 C 
HETATM   29  C25 BCR K 101     -46.856 145.803  10.971  1.00 36.11    -0.048 C 
HETATM   30  C26 BCR K 101     -47.432 145.183  12.012  1.00 36.27    -0.077 C 
HETATM   31  C27 BCR K 101     -48.011 145.940  13.192  1.00 37.64     0.034 C 
HETATM   32  C28 BCR K 101     -47.360 147.306  13.341  1.00 40.01     0.005 C 
HETATM   33  C29 BCR K 101     -47.566 148.015  11.999  1.00 39.19     0.014 C 
HETATM   34  C30 BCR K 101     -46.769 147.313  10.901  1.00 40.55    -0.020 C 
HETATM   35  C35 BCR K 101     -38.238 134.357  10.506  1.00 33.01     0.048 C 
HETATM   36  C36 BCR K 101     -42.891 138.670   6.686  1.00 34.61     0.048 C 
HETATM   37  C37 BCR K 101     -45.172 143.454   7.376  1.00 31.53     0.048 C 
HETATM   38  C38 BCR K 101     -47.499 143.670  12.047  1.00 35.26     0.044 C 
HETATM   39  C39 BCR K 101     -45.288 147.669  11.061  1.00 41.14     0.020 C 
HETATM   40  C40 BCR K 101     -47.310 147.692   9.521  1.00 39.16     0.020 C 
ENDROOT
TORSDOF 10
