REMARK VINA RESULT:    -8.018      2.155      3.060
REMARK INTER + INTRA:         -12.982
REMARK INTER:                  -9.876
REMARK INTRA:                  -3.106
REMARK UNBOUND:                -4.964
REMARK  0 active torsions:
REMARK  status: ('A' for Active; 'I' for Inactive)
REMARK       I    between atoms: C6_6  and  C7_7 
REMARK       I    between atoms: C8_8  and  C9_9 
REMARK       I    between atoms: C10_10  and  C11_11 
REMARK       I    between atoms: C12_16  and  C13_17 
REMARK       I    between atoms: C14_18  and  C15_19 
REMARK       I    between atoms: C16_20  and  C17_21 
REMARK       I    between atoms: C18_22  and  C19_23 
REMARK       I    between atoms: C20_24  and  C21_25 
REMARK       I    between atoms: C22_26  and  C23_27 
REMARK       I    between atoms: C24_28  and  C25_29 
ROOT
HETATM    1  C1  BCR C 515     -33.834 127.463   7.401  1.00 33.76    -0.020 C 
HETATM    2  C2  BCR C 515     -33.011 126.297   6.895  1.00 33.74     0.014 C 
HETATM    3  C3  BCR C 515     -32.385 126.603   5.562  1.00 33.67     0.005 C 
HETATM    4  C4  BCR C 515     -33.382 127.053   4.525  1.00 33.69     0.034 C 
HETATM    5  C5  BCR C 515     -34.566 127.746   5.080  1.00 33.72    -0.077 C 
HETATM    6  C6  BCR C 515     -34.785 127.970   6.376  1.00 33.76    -0.048 C 
HETATM    7  C7  BCR C 515     -35.995 128.641   6.841  1.00 33.87     0.009 C 
HETATM    8  C8  BCR C 515     -36.067 129.940   7.128  1.00 34.01     0.007 C 
HETATM    9  C9  BCR C 515     -37.213 130.513   7.808  1.00 34.09    -0.062 C 
HETATM   10  C10 BCR C 515     -37.462 131.817   7.677  1.00 34.13     0.007 C 
HETATM   11  C11 BCR C 515     -38.359 132.575   8.515  1.00 34.14     0.001 C 
HETATM   12  C33 BCR C 515     -35.496 128.211   4.039  1.00 33.67     0.044 C 
HETATM   13  C31 BCR C 515     -32.857 128.539   7.843  1.00 33.78     0.020 C 
HETATM   14  C32 BCR C 515     -34.591 126.951   8.606  1.00 33.75     0.020 C 
HETATM   15  C34 BCR C 515     -38.208 129.575   8.369  1.00 34.15     0.048 C 
HETATM   16  C12 BCR C 515     -38.580 133.854   8.209  1.00 34.13     0.007 C 
HETATM   17  C13 BCR C 515     -39.482 134.751   8.893  1.00 34.08    -0.062 C 
HETATM   18  C14 BCR C 515     -39.500 136.039   8.531  1.00 33.92     0.007 C 
HETATM   19  C15 BCR C 515     -40.223 137.049   9.255  1.00 33.87     0.001 C 
HETATM   20  C16 BCR C 515     -40.167 138.324   8.872  1.00 33.76     0.001 C 
HETATM   21  C17 BCR C 515     -41.160 139.225   9.378  1.00 33.69     0.007 C 
HETATM   22  C18 BCR C 515     -40.988 140.528   9.607  1.00 33.60    -0.062 C 
HETATM   23  C19 BCR C 515     -42.079 141.278  10.195  1.00 33.52     0.007 C 
HETATM   24  C20 BCR C 515     -42.062 142.602  10.344  1.00 33.41     0.001 C 
HETATM   25  C21 BCR C 515     -43.125 143.244  11.076  1.00 33.33     0.007 C 
HETATM   26  C22 BCR C 515     -43.216 144.558  11.293  1.00 33.23    -0.062 C 
HETATM   27  C23 BCR C 515     -44.318 145.070  12.091  1.00 33.14     0.007 C 
HETATM   28  C24 BCR C 515     -44.706 146.349  12.102  1.00 33.02     0.009 C 
HETATM   29  C25 BCR C 515     -45.788 146.911  12.919  1.00 32.98    -0.048 C 
HETATM   30  C26 BCR C 515     -47.078 146.804  12.575  1.00 32.96    -0.077 C 
HETATM   31  C27 BCR C 515     -48.236 147.337  13.330  1.00 32.93     0.034 C 
HETATM   32  C28 BCR C 515     -47.864 147.714  14.741  1.00 32.96     0.005 C 
HETATM   33  C29 BCR C 515     -46.566 148.466  14.730  1.00 32.98     0.014 C 
HETATM   34  C30 BCR C 515     -45.412 147.646  14.175  1.00 33.02    -0.020 C 
HETATM   35  C35 BCR C 515     -40.545 134.214   9.763  1.00 34.12     0.048 C 
HETATM   36  C36 BCR C 515     -39.780 141.241   9.160  1.00 33.59     0.048 C 
HETATM   37  C37 BCR C 515     -42.190 145.478  10.774  1.00 33.23     0.048 C 
HETATM   38  C38 BCR C 515     -47.553 146.124  11.358  1.00 32.96     0.044 C 
HETATM   39  C39 BCR C 515     -44.885 146.702  15.239  1.00 33.04     0.020 C 
HETATM   40  C40 BCR C 515     -44.315 148.671  13.919  1.00 33.02     0.020 C 
ENDROOT
TORSDOF 10
