REMARK VINA RESULT:    -9.269      1.594     16.704
REMARK INTER + INTRA:         -11.842
REMARK INTER:                  -8.919
REMARK INTRA:                  -2.923
REMARK UNBOUND:                -2.573
REMARK  0 active torsions:
REMARK  status: ('A' for Active; 'I' for Inactive)
REMARK       I    between atoms: C6_6  and  C7_7 
REMARK       I    between atoms: C8_8  and  C9_9 
REMARK       I    between atoms: C10_10  and  C11_11 
REMARK       I    between atoms: C12_16  and  C13_17 
REMARK       I    between atoms: C14_18  and  C15_19 
REMARK       I    between atoms: C16_20  and  C17_21 
REMARK       I    between atoms: C18_22  and  C19_23 
REMARK       I    between atoms: C20_24  and  C21_25 
REMARK       I    between atoms: C22_26  and  C23_27 
REMARK       I    between atoms: C24_28  and  C25_29 
ROOT
HETATM    1  C1  BCR B 619     -46.106 148.989  11.075  1.00 43.68    -0.020 C 
HETATM    2  C2  BCR B 619     -47.290 149.838  11.555  1.00 34.01     0.014 C 
HETATM    3  C3  BCR B 619     -48.346 148.956  12.208  1.00 39.82     0.005 C 
HETATM    4  C4  BCR B 619     -47.771 148.148  13.376  1.00 35.97     0.034 C 
HETATM    5  C5  BCR B 619     -46.440 147.487  13.065  1.00 51.08    -0.077 C 
HETATM    6  C6  BCR B 619     -45.681 147.868  12.017  1.00 43.37    -0.048 C 
HETATM    7  C7  BCR B 619     -44.369 147.224  11.700  1.00 41.21     0.009 C 
HETATM    8  C8  BCR B 619     -44.263 145.957  11.289  1.00 35.08     0.007 C 
HETATM    9  C9  BCR B 619     -42.994 145.296  10.924  1.00 45.29    -0.062 C 
HETATM   10  C10 BCR B 619     -42.996 143.941  10.825  1.00 31.51     0.007 C 
HETATM   11  C11 BCR B 619     -41.872 143.072  10.424  1.00 35.87     0.001 C 
HETATM   12  C33 BCR B 619     -46.005 146.381  13.992  1.00 49.04     0.044 C 
HETATM   13  C31 BCR B 619     -44.890 149.878  10.891  1.00 38.43     0.020 C 
HETATM   14  C32 BCR B 619     -46.504 148.362   9.745  1.00 45.87     0.020 C 
HETATM   15  C34 BCR B 619     -41.792 146.159  10.619  1.00 32.59     0.048 C 
HETATM   16  C12 BCR B 619     -42.112 141.783  10.073  1.00 32.79     0.007 C 
HETATM   17  C13 BCR B 619     -41.027 140.849   9.639  1.00 41.33    -0.062 C 
HETATM   18  C14 BCR B 619     -41.270 139.510   9.546  1.00 31.13     0.007 C 
HETATM   19  C15 BCR B 619     -40.329 138.440   9.136  1.00 39.90     0.001 C 
HETATM   20  C16 BCR B 619     -40.625 137.112   9.140  1.00 29.90     0.001 C 
HETATM   21  C17 BCR B 619     -39.609 136.130   8.698  1.00 33.57     0.007 C 
HETATM   22  C18 BCR B 619     -39.720 134.772   8.703  1.00 38.90    -0.062 C 
HETATM   23  C19 BCR B 619     -38.577 133.962   8.205  1.00 36.01     0.007 C 
HETATM   24  C20 BCR B 619     -38.451 132.625   8.325  1.00 41.69     0.001 C 
HETATM   25  C21 BCR B 619     -37.247 131.980   7.769  1.00 46.52     0.007 C 
HETATM   26  C22 BCR B 619     -37.031 130.646   7.723  1.00 47.59    -0.062 C 
HETATM   27  C23 BCR B 619     -35.887 130.150   7.180  1.00 54.77     0.007 C 
HETATM   28  C24 BCR B 619     -35.561 128.842   7.196  1.00 45.04     0.009 C 
HETATM   29  C25 BCR B 619     -34.327 128.195   6.621  1.00 40.91    -0.048 C 
HETATM   30  C26 BCR B 619     -33.092 128.360   7.127  1.00 51.20    -0.077 C 
HETATM   31  C27 BCR B 619     -31.912 127.666   6.509  1.00 53.77     0.034 C 
HETATM   32  C28 BCR B 619     -32.057 127.747   5.009  1.00 56.12     0.005 C 
HETATM   33  C29 BCR B 619     -33.282 126.942   4.632  1.00 60.15     0.014 C 
HETATM   34  C30 BCR B 619     -34.541 127.288   5.431  1.00 51.25    -0.020 C 
HETATM   35  C35 BCR B 619     -39.673 141.441   9.309  1.00 33.87     0.048 C 
HETATM   36  C36 BCR B 619     -40.969 134.076   9.198  1.00 33.91     0.048 C 
HETATM   37  C37 BCR B 619     -38.084 129.725   8.263  1.00 55.50     0.048 C 
HETATM   38  C38 BCR B 619     -32.805 129.237   8.305  1.00 45.25     0.044 C 
HETATM   39  C39 BCR B 619     -35.202 126.007   5.948  1.00 56.99     0.020 C 
HETATM   40  C40 BCR B 619     -35.506 127.984   4.488  1.00 53.04     0.020 C 
ENDROOT
TORSDOF 10
