REMARK VINA RESULT:    -9.374      0.000      0.000
REMARK INTER + INTRA:         -15.668
REMARK INTER:                  -9.374
REMARK INTRA:                  -6.293
REMARK UNBOUND:                -6.293
REMARK  0 active torsions:
REMARK  status: ('A' for Active; 'I' for Inactive)
REMARK       I    between atoms: C6_6  and  C7_7 
REMARK       I    between atoms: C8_8  and  C9_9 
REMARK       I    between atoms: C10_10  and  C11_11 
REMARK       I    between atoms: C12_16  and  C13_17 
REMARK       I    between atoms: C14_18  and  C15_19 
REMARK       I    between atoms: C16_20  and  C17_21 
REMARK       I    between atoms: C18_22  and  C19_23 
REMARK       I    between atoms: C20_24  and  C21_25 
REMARK       I    between atoms: C22_26  and  C23_27 
REMARK       I    between atoms: C24_28  and  C25_29 
ROOT
HETATM    1  C1  BCR B 620     -50.017 150.251  12.842  1.00 38.40    -0.020 C 
HETATM    2  C2  BCR B 620     -51.395 150.874  12.786  1.00 47.49     0.014 C 
HETATM    3  C3  BCR B 620     -52.357 150.068  11.954  1.00 50.89     0.005 C 
HETATM    4  C4  BCR B 620     -51.852 149.912  10.516  1.00 46.16     0.034 C 
HETATM    5  C5  BCR B 620     -50.352 149.638  10.465  1.00 38.82    -0.077 C 
HETATM    6  C6  BCR B 620     -49.514 149.738  11.513  1.00 39.21    -0.048 C 
HETATM    7  C7  BCR B 620     -48.097 149.258  11.557  1.00 32.23     0.009 C 
HETATM    8  C8  BCR B 620     -47.642 148.231  10.849  1.00 34.61     0.007 C 
HETATM    9  C9  BCR B 620     -46.293 147.649  11.033  1.00 31.92    -0.062 C 
HETATM   10  C10 BCR B 620     -45.994 146.446  10.479  1.00 31.22     0.007 C 
HETATM   11  C11 BCR B 620     -44.711 145.731  10.684  1.00 31.10     0.001 C 
HETATM   12  C33 BCR B 620     -49.884 149.312   9.083  1.00 45.14     0.044 C 
HETATM   13  C31 BCR B 620     -49.964 149.048  13.828  1.00 38.78     0.020 C 
HETATM   14  C32 BCR B 620     -49.093 151.345  13.317  1.00 41.66     0.020 C 
HETATM   15  C34 BCR B 620     -45.311 148.424  11.821  1.00 35.43     0.048 C 
HETATM   16  C12 BCR B 620     -44.567 144.561  10.115  1.00 29.25     0.007 C 
HETATM   17  C13 BCR B 620     -43.398 143.699  10.226  1.00 26.81    -0.062 C 
HETATM   18  C14 BCR B 620     -43.416 142.477   9.593  1.00 28.71     0.007 C 
HETATM   19  C15 BCR B 620     -42.331 141.455   9.688  1.00 30.34     0.001 C 
HETATM   20  C16 BCR B 620     -42.462 140.263   9.079  1.00 27.99     0.001 C 
HETATM   21  C17 BCR B 620     -41.458 139.273   9.194  1.00 26.90     0.007 C 
HETATM   22  C18 BCR B 620     -41.496 138.032   8.643  1.00 28.89    -0.062 C 
HETATM   23  C19 BCR B 620     -40.373 137.093   8.932  1.00 22.77     0.007 C 
HETATM   24  C20 BCR B 620     -40.217 135.866   8.395  1.00 22.75     0.001 C 
HETATM   25  C21 BCR B 620     -39.077 135.058   8.776  1.00 23.82     0.007 C 
HETATM   26  C22 BCR B 620     -38.804 133.837   8.259  1.00 27.13    -0.062 C 
HETATM   27  C23 BCR B 620     -37.590 133.151   8.841  1.00 29.91     0.007 C 
HETATM   28  C24 BCR B 620     -37.235 131.880   8.567  1.00 28.77     0.009 C 
HETATM   29  C25 BCR B 620     -36.028 131.256   9.128  1.00 30.94    -0.048 C 
HETATM   30  C26 BCR B 620     -35.790 131.242  10.449  1.00 34.73    -0.077 C 
HETATM   31  C27 BCR B 620     -34.563 130.614  11.118  1.00 33.71     0.034 C 
HETATM   32  C28 BCR B 620     -33.422 130.427  10.119  1.00 33.02     0.005 C 
HETATM   33  C29 BCR B 620     -33.984 129.824   8.903  1.00 35.61     0.014 C 
HETATM   34  C30 BCR B 620     -35.027 130.680   8.157  1.00 35.27    -0.020 C 
HETATM   35  C35 BCR B 620     -42.232 144.155  11.035  1.00 27.35     0.048 C 
HETATM   36  C36 BCR B 620     -42.650 137.594   7.834  1.00 25.88     0.048 C 
HETATM   37  C37 BCR B 620     -39.734 133.153   7.247  1.00 25.34     0.048 C 
HETATM   38  C38 BCR B 620     -36.805 131.741  11.414  1.00 34.43     0.044 C 
HETATM   39  C39 BCR B 620     -35.729 129.762   7.133  1.00 41.91     0.020 C 
HETATM   40  C40 BCR B 620     -34.349 131.859   7.419  1.00 32.72     0.020 C 
ENDROOT
TORSDOF 10
