REMARK VINA RESULT:    -8.172      2.625     16.736
REMARK INTER + INTRA:         -14.450
REMARK INTER:                 -11.316
REMARK INTRA:                  -3.134
REMARK UNBOUND:                -6.278
REMARK  0 active torsions:
REMARK  status: ('A' for Active; 'I' for Inactive)
REMARK       I    between atoms: C6_6  and  C7_7 
REMARK       I    between atoms: C8_8  and  C9_9 
REMARK       I    between atoms: C10_10  and  C11_11 
REMARK       I    between atoms: C12_16  and  C13_17 
REMARK       I    between atoms: C14_18  and  C15_19 
REMARK       I    between atoms: C16_20  and  C17_21 
REMARK       I    between atoms: C18_22  and  C19_23 
REMARK       I    between atoms: C20_24  and  C21_25 
REMARK       I    between atoms: C22_26  and  C23_27 
REMARK       I    between atoms: C24_28  and  C25_29 
ROOT
HETATM    1  C1  BCR B 619     -47.093 147.784  12.150  1.00 27.66    -0.020 C 
HETATM    2  C2  BCR B 619     -47.906 148.645  13.114  1.00 27.98     0.014 C 
HETATM    3  C3  BCR B 619     -47.874 148.072  14.518  1.00 25.52     0.005 C 
HETATM    4  C4  BCR B 619     -46.437 148.014  15.023  1.00 19.63     0.034 C 
HETATM    5  C5  BCR B 619     -45.494 147.343  14.044  1.00 32.40    -0.077 C 
HETATM    6  C6  BCR B 619     -45.788 147.235  12.729  1.00 20.68    -0.048 C 
HETATM    7  C7  BCR B 619     -44.858 146.575  11.742  1.00 20.08     0.009 C 
HETATM    8  C8  BCR B 619     -44.442 145.301  11.866  1.00 22.81     0.007 C 
HETATM    9  C9  BCR B 619     -43.558 144.610  10.905  1.00 20.22    -0.062 C 
HETATM   10  C10 BCR B 619     -43.148 143.355  11.192  1.00 19.06     0.007 C 
HETATM   11  C11 BCR B 619     -42.300 142.532  10.320  1.00 16.29     0.001 C 
HETATM   12  C33 BCR B 619     -44.200 146.816  14.630  1.00 23.77     0.044 C 
HETATM   13  C31 BCR B 619     -46.778 148.626  10.917  1.00 21.20     0.020 C 
HETATM   14  C32 BCR B 619     -47.938 146.592  11.745  1.00 23.33     0.020 C 
HETATM   15  C34 BCR B 619     -43.200 145.297   9.617  1.00 16.40     0.048 C 
HETATM   16  C12 BCR B 619     -42.140 141.230  10.614  1.00 25.63     0.007 C 
HETATM   17  C13 BCR B 619     -41.320 140.278   9.812  1.00 24.60    -0.062 C 
HETATM   18  C14 BCR B 619     -40.972 139.076  10.359  1.00 21.11     0.007 C 
HETATM   19  C15 BCR B 619     -40.180 138.015   9.707  1.00 20.94     0.001 C 
HETATM   20  C16 BCR B 619     -39.719 136.909  10.338  1.00 19.81     0.001 C 
HETATM   21  C17 BCR B 619     -38.952 135.913   9.563  1.00 20.06     0.007 C 
HETATM   22  C18 BCR B 619     -38.517 134.717  10.023  1.00 27.17    -0.062 C 
HETATM   23  C19 BCR B 619     -37.762 133.817   9.117  1.00 20.29     0.007 C 
HETATM   24  C20 BCR B 619     -37.184 132.649   9.470  1.00 21.61     0.001 C 
HETATM   25  C21 BCR B 619     -36.460 131.886   8.433  1.00 24.02     0.007 C 
HETATM   26  C22 BCR B 619     -35.647 130.833   8.679  1.00 35.60    -0.062 C 
HETATM   27  C23 BCR B 619     -35.018 130.203   7.651  1.00 23.38     0.007 C 
HETATM   28  C24 BCR B 619     -34.201 129.151   7.813  1.00 28.64     0.009 C 
HETATM   29  C25 BCR B 619     -33.486 128.390   6.732  1.00 39.14    -0.048 C 
HETATM   30  C26 BCR B 619     -32.449 128.898   6.027  1.00 29.93    -0.077 C 
HETATM   31  C27 BCR B 619     -31.747 128.091   4.973  1.00 21.81     0.034 C 
HETATM   32  C28 BCR B 619     -32.748 127.226   4.240  1.00 31.07     0.005 C 
HETATM   33  C29 BCR B 619     -33.452 126.303   5.211  1.00 46.92     0.014 C 
HETATM   34  C30 BCR B 619     -33.974 126.972   6.484  1.00 37.04    -0.020 C 
HETATM   35  C35 BCR B 619     -40.906 140.679   8.420  1.00 15.93     0.048 C 
HETATM   36  C36 BCR B 619     -38.749 134.284  11.438  1.00 15.91     0.048 C 
HETATM   37  C37 BCR B 619     -35.462 130.366  10.093  1.00 38.85     0.048 C 
HETATM   38  C38 BCR B 619     -31.930 130.285   6.238  1.00 32.51     0.044 C 
HETATM   39  C39 BCR B 619     -33.540 126.114   7.667  1.00 49.08     0.020 C 
HETATM   40  C40 BCR B 619     -35.493 126.982   6.421  1.00 46.61     0.020 C 
ENDROOT
TORSDOF 10
