REMARK VINA RESULT:    -8.173      1.847      2.139
REMARK INTER + INTRA:         -10.601
REMARK INTER:                  -6.307
REMARK INTRA:                  -4.293
REMARK UNBOUND:                -2.428
REMARK  0 active torsions:
REMARK  status: ('A' for Active; 'I' for Inactive)
REMARK       I    between atoms: C6_6  and  C7_7 
REMARK       I    between atoms: C8_8  and  C9_9 
REMARK       I    between atoms: C10_10  and  C11_11 
REMARK       I    between atoms: C12_16  and  C13_17 
REMARK       I    between atoms: C14_18  and  C15_19 
REMARK       I    between atoms: C16_20  and  C17_21 
REMARK       I    between atoms: C18_22  and  C19_23 
REMARK       I    between atoms: C20_24  and  C21_25 
REMARK       I    between atoms: C22_26  and  C23_27 
REMARK       I    between atoms: C24_28  and  C25_29 
ROOT
HETATM    1  C1  BCR C 515     -45.592 148.952  12.731  1.00 38.64    -0.020 C 
HETATM    2  C2  BCR C 515     -46.578 149.876  13.451  1.00 35.63     0.014 C 
HETATM    3  C3  BCR C 515     -47.342 149.189  14.570  1.00 36.63     0.005 C 
HETATM    4  C4  BCR C 515     -48.037 147.940  14.120  1.00 37.53     0.034 C 
HETATM    5  C5  BCR C 515     -47.303 147.165  13.046  1.00 37.33    -0.077 C 
HETATM    6  C6  BCR C 515     -46.204 147.612  12.411  1.00 36.93    -0.048 C 
HETATM    7  C7  BCR C 515     -45.537 146.809  11.340  1.00 39.97     0.009 C 
HETATM    8  C8  BCR C 515     -44.956 145.638  11.607  1.00 43.71     0.007 C 
HETATM    9  C9  BCR C 515     -44.281 144.799  10.598  1.00 46.26    -0.062 C 
HETATM   10  C10 BCR C 515     -43.632 143.711  11.062  1.00 44.64     0.007 C 
HETATM   11  C11 BCR C 515     -42.900 142.775  10.192  1.00 42.43     0.001 C 
HETATM   12  C33 BCR C 515     -47.918 145.839  12.710  1.00 39.04     0.044 C 
HETATM   13  C31 BCR C 515     -44.339 148.747  13.610  1.00 36.17     0.020 C 
HETATM   14  C32 BCR C 515     -45.261 149.586  11.367  1.00 37.04     0.020 C 
HETATM   15  C34 BCR C 515     -44.350 145.130   9.120  1.00 45.26     0.048 C 
HETATM   16  C12 BCR C 515     -42.649 141.539  10.628  1.00 41.87     0.007 C 
HETATM   17  C13 BCR C 515     -41.918 140.552   9.816  1.00 44.10    -0.062 C 
HETATM   18  C14 BCR C 515     -41.383 139.461  10.426  1.00 43.10     0.007 C 
HETATM   19  C15 BCR C 515     -40.627 138.427   9.695  1.00 44.95     0.001 C 
HETATM   20  C16 BCR C 515     -40.013 137.412  10.317  1.00 42.57     0.001 C 
HETATM   21  C17 BCR C 515     -39.242 136.425   9.554  1.00 44.11     0.007 C 
HETATM   22  C18 BCR C 515     -38.720 135.289  10.087  1.00 45.12    -0.062 C 
HETATM   23  C19 BCR C 515     -37.927 134.407   9.181  1.00 42.40     0.007 C 
HETATM   24  C20 BCR C 515     -37.322 133.284   9.573  1.00 44.25     0.001 C 
HETATM   25  C21 BCR C 515     -36.539 132.492   8.616  1.00 44.77     0.007 C 
HETATM   26  C22 BCR C 515     -35.691 131.480   8.931  1.00 45.45    -0.062 C 
HETATM   27  C23 BCR C 515     -34.991 130.792   7.814  1.00 43.97     0.007 C 
HETATM   28  C24 BCR C 515     -34.481 129.555   7.930  1.00 46.37     0.009 C 
HETATM   29  C25 BCR C 515     -33.807 128.875   6.781  1.00 44.97    -0.048 C 
HETATM   30  C26 BCR C 515     -34.578 128.093   5.999  1.00 43.46    -0.077 C 
HETATM   31  C27 BCR C 515     -34.062 127.328   4.788  1.00 42.55     0.034 C 
HETATM   32  C28 BCR C 515     -32.646 127.723   4.359  1.00 44.37     0.005 C 
HETATM   33  C29 BCR C 515     -31.746 128.032   5.555  1.00 46.88     0.014 C 
HETATM   34  C30 BCR C 515     -32.326 129.070   6.526  1.00 44.50    -0.020 C 
HETATM   35  C35 BCR C 515     -41.825 140.782   8.321  1.00 43.98     0.048 C 
HETATM   36  C36 BCR C 515     -38.893 134.949  11.558  1.00 37.46     0.048 C 
HETATM   37  C37 BCR C 515     -35.444 131.041  10.357  1.00 40.96     0.048 C 
HETATM   38  C38 BCR C 515     -36.037 127.942   6.336  1.00 36.94     0.044 C 
HETATM   39  C39 BCR C 515     -32.054 130.491   6.016  1.00 44.31     0.020 C 
HETATM   40  C40 BCR C 515     -31.593 128.868   7.848  1.00 48.67     0.020 C 
ENDROOT
TORSDOF 10
