REMARK VINA RESULT:    -6.978      1.806     16.158
REMARK INTER + INTRA:         -10.317
REMARK INTER:                  -7.728
REMARK INTRA:                  -2.589
REMARK UNBOUND:                -3.339
REMARK  0 active torsions:
REMARK  status: ('A' for Active; 'I' for Inactive)
REMARK       I    between atoms: C6_6  and  C7_7 
REMARK       I    between atoms: C8_8  and  C9_9 
REMARK       I    between atoms: C10_10  and  C11_11 
REMARK       I    between atoms: C12_16  and  C13_17 
REMARK       I    between atoms: C14_18  and  C15_19 
REMARK       I    between atoms: C16_20  and  C17_21 
REMARK       I    between atoms: C18_22  and  C19_23 
REMARK       I    between atoms: C20_24  and  C21_25 
REMARK       I    between atoms: C22_26  and  C23_27 
REMARK       I    between atoms: C24_28  and  C25_29 
ROOT
HETATM    1  C1  BCR K 101     -50.152 144.607   8.672  1.00 61.74    -0.020 C 
HETATM    2  C2  BCR K 101     -51.504 145.014   9.254  1.00 63.47     0.014 C 
HETATM    3  C3  BCR K 101     -51.445 145.204  10.757  1.00 57.51     0.005 C 
HETATM    4  C4  BCR K 101     -50.458 146.310  11.071  1.00 60.11     0.034 C 
HETATM    5  C5  BCR K 101     -49.101 145.964  10.502  1.00 59.07    -0.077 C 
HETATM    6  C6  BCR K 101     -48.963 145.193   9.414  1.00 62.21    -0.048 C 
HETATM    7  C7  BCR K 101     -47.631 144.857   8.852  1.00 58.73     0.009 C 
HETATM    8  C8  BCR K 101     -46.787 144.017   9.448  1.00 55.67     0.007 C 
HETATM    9  C9  BCR K 101     -45.497 143.673   8.827  1.00 52.89    -0.062 C 
HETATM   10  C10 BCR K 101     -44.909 142.527   9.223  1.00 55.14     0.007 C 
HETATM   11  C11 BCR K 101     -43.658 141.990   8.688  1.00 61.50     0.001 C 
HETATM   12  C33 BCR K 101     -47.906 146.527  11.209  1.00 62.66     0.044 C 
HETATM   13  C31 BCR K 101     -50.120 145.055   7.218  1.00 50.75     0.020 C 
HETATM   14  C32 BCR K 101     -50.009 143.088   8.730  1.00 48.41     0.020 C 
HETATM   15  C34 BCR K 101     -44.881 144.563   7.793  1.00 53.75     0.048 C 
HETATM   16  C12 BCR K 101     -43.308 140.770   9.103  1.00 59.30     0.007 C 
HETATM   17  C13 BCR K 101     -42.124 140.021   8.628  1.00 63.72    -0.062 C 
HETATM   18  C14 BCR K 101     -41.876 138.794   9.142  1.00 56.40     0.007 C 
HETATM   19  C15 BCR K 101     -40.776 137.935   8.699  1.00 52.49     0.001 C 
HETATM   20  C16 BCR K 101     -40.550 136.731   9.240  1.00 54.34     0.001 C 
HETATM   21  C17 BCR K 101     -39.468 135.884   8.721  1.00 49.34     0.007 C 
HETATM   22  C18 BCR K 101     -39.189 134.650   9.190  1.00 62.88    -0.062 C 
HETATM   23  C19 BCR K 101     -38.105 133.863   8.537  1.00 60.90     0.007 C 
HETATM   24  C20 BCR K 101     -38.008 132.532   8.642  1.00 51.07     0.001 C 
HETATM   25  C21 BCR K 101     -36.936 131.833   7.924  1.00 47.75     0.007 C 
HETATM   26  C22 BCR K 101     -36.808 130.498   7.823  1.00 48.45    -0.062 C 
HETATM   27  C23 BCR K 101     -35.783 129.987   7.101  1.00 53.56     0.007 C 
HETATM   28  C24 BCR K 101     -35.656 128.663   6.875  1.00 50.64     0.009 C 
HETATM   29  C25 BCR K 101     -34.549 128.028   6.090  1.00 69.21    -0.048 C 
HETATM   30  C26 BCR K 101     -33.259 128.121   6.489  1.00 58.66    -0.077 C 
HETATM   31  C27 BCR K 101     -32.123 127.486   5.717  1.00 58.99     0.034 C 
HETATM   32  C28 BCR K 101     -32.477 127.363   4.251  1.00 47.83     0.005 C 
HETATM   33  C29 BCR K 101     -33.776 126.582   4.120  1.00 60.06     0.014 C 
HETATM   34  C30 BCR K 101     -34.944 127.254   4.838  1.00 65.44    -0.020 C 
HETATM   35  C35 BCR K 101     -41.262 140.603   7.548  1.00 53.57     0.048 C 
HETATM   36  C36 BCR K 101     -39.977 134.085  10.340  1.00 46.50     0.048 C 
HETATM   37  C37 BCR K 101     -37.780 129.564   8.506  1.00 47.91     0.048 C 
HETATM   38  C38 BCR K 101     -32.849 128.861   7.731  1.00 59.26     0.044 C 
HETATM   39  C39 BCR K 101     -35.922 126.154   5.242  1.00 43.58     0.020 C 
HETATM   40  C40 BCR K 101     -35.645 128.187   3.863  1.00 44.74     0.020 C 
ENDROOT
TORSDOF 10
