REMARK VINA RESULT:    -5.619      1.620      1.875
REMARK INTER + INTRA:          -9.730
REMARK INTER:                  -7.568
REMARK INTRA:                  -2.162
REMARK UNBOUND:                -4.111
REMARK  0 active torsions:
REMARK  status: ('A' for Active; 'I' for Inactive)
REMARK       I    between atoms: C6_6  and  C7_7 
REMARK       I    between atoms: C8_8  and  C9_9 
REMARK       I    between atoms: C10_10  and  C11_11 
REMARK       I    between atoms: C12_16  and  C13_17 
REMARK       I    between atoms: C14_18  and  C15_19 
REMARK       I    between atoms: C16_20  and  C17_21 
REMARK       I    between atoms: C18_22  and  C19_23 
REMARK       I    between atoms: C20_24  and  C21_25 
REMARK       I    between atoms: C22_26  and  C23_27 
REMARK       I    between atoms: C24_28  and  C25_29 
ROOT
HETATM    1  C1  BCR C 525     -50.466 142.577  12.302  1.00 33.72    -0.020 C 
HETATM    2  C2  BCR C 525     -51.541 143.173  13.193  1.00 38.03     0.014 C 
HETATM    3  C3  BCR C 525     -50.977 143.711  14.474  1.00 36.23     0.005 C 
HETATM    4  C4  BCR C 525     -49.953 144.789  14.201  1.00 39.77     0.034 C 
HETATM    5  C5  BCR C 525     -49.074 144.505  13.019  1.00 35.72    -0.077 C 
HETATM    6  C6  BCR C 525     -49.283 143.492  12.166  1.00 34.48    -0.048 C 
HETATM    7  C7  BCR C 525     -48.303 143.077  11.162  1.00 34.77     0.009 C 
HETATM    8  C8  BCR C 525     -46.978 143.064  11.409  1.00 34.00     0.007 C 
HETATM    9  C9  BCR C 525     -46.106 142.411  10.379  1.00 30.34    -0.062 C 
HETATM   10  C10 BCR C 525     -44.950 141.796  10.723  1.00 29.43     0.007 C 
HETATM   11  C11 BCR C 525     -44.111 141.006   9.791  1.00 32.78     0.001 C 
HETATM   12  C33 BCR C 525     -48.056 145.576  12.755  1.00 40.94     0.044 C 
HETATM   13  C31 BCR C 525     -51.113 142.285  10.987  1.00 36.12     0.020 C 
HETATM   14  C32 BCR C 525     -49.885 141.270  12.894  1.00 41.14     0.020 C 
HETATM   15  C34 BCR C 525     -46.575 142.422   8.909  1.00 36.22     0.048 C 
HETATM   16  C12 BCR C 525     -43.111 140.256  10.251  1.00 35.35     0.007 C 
HETATM   17  C13 BCR C 525     -42.269 139.362   9.398  1.00 35.17    -0.062 C 
HETATM   18  C14 BCR C 525     -41.361 138.585  10.042  1.00 38.14     0.007 C 
HETATM   19  C15 BCR C 525     -40.413 137.612   9.433  1.00 38.44     0.001 C 
HETATM   20  C16 BCR C 525     -39.576 136.826  10.153  1.00 34.38     0.001 C 
HETATM   21  C17 BCR C 525     -38.674 135.914   9.427  1.00 32.72     0.007 C 
HETATM   22  C18 BCR C 525     -37.824 135.035  10.041  1.00 31.75    -0.062 C 
HETATM   23  C19 BCR C 525     -36.978 134.150   9.191  1.00 30.37     0.007 C 
HETATM   24  C20 BCR C 525     -36.280 133.091   9.587  1.00 31.00     0.001 C 
HETATM   25  C21 BCR C 525     -35.545 132.254   8.661  1.00 32.98     0.007 C 
HETATM   26  C22 BCR C 525     -35.074 131.039   9.000  1.00 31.86    -0.062 C 
HETATM   27  C23 BCR C 525     -34.414 130.234   7.928  1.00 30.56     0.007 C 
HETATM   28  C24 BCR C 525     -34.067 128.976   8.146  1.00 32.87     0.009 C 
HETATM   29  C25 BCR C 525     -33.513 128.121   7.081  1.00 28.40    -0.048 C 
HETATM   30  C26 BCR C 525     -32.397 128.490   6.425  1.00 28.90    -0.077 C 
HETATM   31  C27 BCR C 525     -31.714 127.656   5.398  1.00 26.86     0.034 C 
HETATM   32  C28 BCR C 525     -32.596 126.535   4.843  1.00 30.07     0.005 C 
HETATM   33  C29 BCR C 525     -33.384 125.895   5.980  1.00 34.82     0.014 C 
HETATM   34  C30 BCR C 525     -34.280 126.879   6.727  1.00 28.48    -0.020 C 
HETATM   35  C35 BCR C 525     -42.491 139.333   7.914  1.00 34.46     0.048 C 
HETATM   36  C36 BCR C 525     -37.735 134.975  11.556  1.00 34.73     0.048 C 
HETATM   37  C37 BCR C 525     -35.209 130.547  10.455  1.00 33.41     0.048 C 
HETATM   38  C38 BCR C 525     -31.572 129.635   6.897  1.00 28.85     0.044 C 
HETATM   39  C39 BCR C 525     -34.699 126.150   8.015  1.00 33.24     0.020 C 
HETATM   40  C40 BCR C 525     -35.495 127.297   5.905  1.00 27.05     0.020 C 
ENDROOT
TORSDOF 10
