REMARK VINA RESULT:    -6.135      1.854      3.810
REMARK INTER + INTRA:         -12.654
REMARK INTER:                 -12.115
REMARK INTRA:                  -0.539
REMARK UNBOUND:                -6.519
REMARK  0 active torsions:
REMARK  status: ('A' for Active; 'I' for Inactive)
REMARK       I    between atoms: C6_6  and  C7_7 
REMARK       I    between atoms: C8_8  and  C9_9 
REMARK       I    between atoms: C10_10  and  C11_11 
REMARK       I    between atoms: C12_16  and  C13_17 
REMARK       I    between atoms: C14_18  and  C15_19 
REMARK       I    between atoms: C16_20  and  C17_21 
REMARK       I    between atoms: C18_22  and  C19_23 
REMARK       I    between atoms: C20_24  and  C21_25 
REMARK       I    between atoms: C22_26  and  C23_27 
REMARK       I    between atoms: C24_28  and  C25_29 
ROOT
HETATM    1  C1  BCR B 620     -45.883 149.252  10.994  1.00 36.91    -0.020 C 
HETATM    2  C2  BCR B 620     -46.357 150.253  12.055  1.00 39.67     0.014 C 
HETATM    3  C3  BCR B 620     -46.574 149.678  13.439  1.00 41.86     0.005 C 
HETATM    4  C4  BCR B 620     -47.504 148.473  13.347  1.00 42.68     0.034 C 
HETATM    5  C5  BCR B 620     -47.148 147.487  12.238  1.00 42.22    -0.077 C 
HETATM    6  C6  BCR B 620     -46.402 147.827  11.163  1.00 36.96    -0.048 C 
HETATM    7  C7  BCR B 620     -46.082 146.822  10.093  1.00 35.00     0.009 C 
HETATM    8  C8  BCR B 620     -45.482 145.653  10.396  1.00 29.58     0.007 C 
HETATM    9  C9  BCR B 620     -45.107 144.670   9.376  1.00 30.24    -0.062 C 
HETATM   10  C10 BCR B 620     -44.382 143.596   9.776  1.00 30.65     0.007 C 
HETATM   11  C11 BCR B 620     -43.849 142.570   8.877  1.00 27.17     0.001 C 
HETATM   12  C33 BCR B 620     -47.688 146.092  12.393  1.00 41.60     0.044 C 
HETATM   13  C31 BCR B 620     -44.353 149.292  10.967  1.00 38.82     0.020 C 
HETATM   14  C32 BCR B 620     -46.457 149.754   9.690  1.00 34.87     0.020 C 
HETATM   15  C34 BCR B 620     -45.465 144.953   7.945  1.00 28.50     0.048 C 
HETATM   16  C12 BCR B 620     -43.174 141.569   9.453  1.00 26.65     0.007 C 
HETATM   17  C13 BCR B 620     -42.479 140.501   8.691  1.00 25.82    -0.062 C 
HETATM   18  C14 BCR B 620     -41.929 139.456   9.381  1.00 25.50     0.007 C 
HETATM   19  C15 BCR B 620     -41.137 138.378   8.771  1.00 29.12     0.001 C 
HETATM   20  C16 BCR B 620     -40.565 137.451   9.562  1.00 29.64     0.001 C 
HETATM   21  C17 BCR B 620     -39.689 136.421   8.999  1.00 26.95     0.007 C 
HETATM   22  C18 BCR B 620     -39.153 135.400   9.713  1.00 26.10    -0.062 C 
HETATM   23  C19 BCR B 620     -38.234 134.452   9.004  1.00 22.51     0.007 C 
HETATM   24  C20 BCR B 620     -37.628 133.420   9.634  1.00 23.80     0.001 C 
HETATM   25  C21 BCR B 620     -36.736 132.529   8.825  1.00 21.77     0.007 C 
HETATM   26  C22 BCR B 620     -36.064 131.432   9.244  1.00 22.57    -0.062 C 
HETATM   27  C23 BCR B 620     -35.234 130.725   8.222  1.00 24.96     0.007 C 
HETATM   28  C24 BCR B 620     -34.306 129.810   8.562  1.00 25.87     0.009 C 
HETATM   29  C25 BCR B 620     -33.532 129.173   7.479  1.00 29.04    -0.048 C 
HETATM   30  C26 BCR B 620     -32.616 129.939   6.818  1.00 31.10    -0.077 C 
HETATM   31  C27 BCR B 620     -31.757 129.406   5.663  1.00 33.58     0.034 C 
HETATM   32  C28 BCR B 620     -32.309 128.084   5.092  1.00 31.33     0.005 C 
HETATM   33  C29 BCR B 620     -32.721 127.133   6.223  1.00 32.97     0.014 C 
HETATM   34  C30 BCR B 620     -33.790 127.711   7.177  1.00 32.21    -0.020 C 
HETATM   35  C35 BCR B 620     -42.347 140.653   7.181  1.00 27.05     0.048 C 
HETATM   36  C36 BCR B 620     -39.456 135.204  11.198  1.00 25.62     0.048 C 
HETATM   37  C37 BCR B 620     -36.075 130.848  10.656  1.00 24.21     0.048 C 
HETATM   38  C38 BCR B 620     -32.433 131.394   7.218  1.00 29.41     0.044 C 
HETATM   39  C39 BCR B 620     -33.742 126.918   8.514  1.00 35.26     0.020 C 
HETATM   40  C40 BCR B 620     -35.199 127.588   6.564  1.00 30.43     0.020 C 
ENDROOT
TORSDOF 10
