REMARK VINA RESULT:    -6.306      1.652      3.002
REMARK INTER + INTRA:          -9.552
REMARK INTER:                  -9.706
REMARK INTRA:                   0.154
REMARK UNBOUND:                -3.247
REMARK  0 active torsions:
REMARK  status: ('A' for Active; 'I' for Inactive)
REMARK       I    between atoms: C6_6  and  C7_7 
REMARK       I    between atoms: C8_8  and  C9_9 
REMARK       I    between atoms: C10_10  and  C11_11 
REMARK       I    between atoms: C12_16  and  C13_17 
REMARK       I    between atoms: C14_18  and  C15_19 
REMARK       I    between atoms: C16_20  and  C17_21 
REMARK       I    between atoms: C18_22  and  C19_23 
REMARK       I    between atoms: C20_24  and  C21_25 
REMARK       I    between atoms: C22_26  and  C23_27 
REMARK       I    between atoms: C24_28  and  C25_29 
ROOT
HETATM    1  C1  BCR K 102     -35.721 127.269   8.557  1.00 44.36    -0.020 C 
HETATM    2  C2  BCR K 102     -35.583 125.863   7.997  1.00 45.66     0.014 C 
HETATM    3  C3  BCR K 102     -35.654 125.850   6.487  1.00 45.76     0.005 C 
HETATM    4  C4  BCR K 102     -34.572 126.720   5.882  1.00 46.84     0.034 C 
HETATM    5  C5  BCR K 102     -34.488 128.067   6.548  1.00 45.49    -0.077 C 
HETATM    6  C6  BCR K 102     -35.168 128.347   7.656  1.00 44.85    -0.048 C 
HETATM    7  C7  BCR K 102     -35.385 129.726   8.121  1.00 41.42     0.009 C 
HETATM    8  C8  BCR K 102     -36.149 130.615   7.502  1.00 39.50     0.007 C 
HETATM    9  C9  BCR K 102     -36.306 131.935   8.131  1.00 44.88    -0.062 C 
HETATM   10  C10 BCR K 102     -37.472 132.569   7.975  1.00 44.81     0.007 C 
HETATM   11  C11 BCR K 102     -37.828 133.851   8.574  1.00 45.72     0.001 C 
HETATM   12  C33 BCR K 102     -33.583 129.089   5.930  1.00 46.47     0.044 C 
HETATM   13  C31 BCR K 102     -34.982 127.348   9.882  1.00 48.64     0.020 C 
HETATM   14  C32 BCR K 102     -37.190 127.568   8.785  1.00 40.14     0.020 C 
HETATM   15  C34 BCR K 102     -35.205 132.532   8.943  1.00 47.98     0.048 C 
HETATM   16  C12 BCR K 102     -39.082 134.224   8.344  1.00 46.57     0.007 C 
HETATM   17  C13 BCR K 102     -39.740 135.430   8.867  1.00 43.65    -0.062 C 
HETATM   18  C14 BCR K 102     -40.892 135.850   8.326  1.00 41.27     0.007 C 
HETATM   19  C15 BCR K 102     -41.581 137.009   8.874  1.00 46.01     0.001 C 
HETATM   20  C16 BCR K 102     -42.728 137.445   8.360  1.00 47.96     0.001 C 
HETATM   21  C17 BCR K 102     -43.385 138.582   8.998  1.00 48.87     0.007 C 
HETATM   22  C18 BCR K 102     -44.547 139.096   8.568  1.00 44.87    -0.062 C 
HETATM   23  C19 BCR K 102     -45.149 140.215   9.306  1.00 44.84     0.007 C 
HETATM   24  C20 BCR K 102     -46.366 140.655   9.013  1.00 40.19     0.001 C 
HETATM   25  C21 BCR K 102     -46.879 141.737   9.832  1.00 40.61     0.007 C 
HETATM   26  C22 BCR K 102     -48.187 141.977   9.953  1.00 41.40    -0.062 C 
HETATM   27  C23 BCR K 102     -48.634 143.062  10.840  1.00 40.78     0.007 C 
HETATM   28  C24 BCR K 102     -49.921 143.352  10.955  1.00 40.34     0.009 C 
HETATM   29  C25 BCR K 102     -50.424 144.403  11.856  1.00 39.31    -0.048 C 
HETATM   30  C26 BCR K 102     -50.278 145.702  11.609  1.00 41.98    -0.077 C 
HETATM   31  C27 BCR K 102     -50.681 146.771  12.590  1.00 42.86     0.034 C 
HETATM   32  C28 BCR K 102     -50.877 146.179  13.968  1.00 43.57     0.005 C 
HETATM   33  C29 BCR K 102     -51.808 144.990  13.866  1.00 41.79     0.014 C 
HETATM   34  C30 BCR K 102     -51.154 143.890  13.058  1.00 41.39    -0.020 C 
HETATM   35  C35 BCR K 102     -39.157 136.141  10.043  1.00 47.44     0.048 C 
HETATM   36  C36 BCR K 102     -45.252 138.544   7.372  1.00 40.18     0.048 C 
HETATM   37  C37 BCR K 102     -49.187 141.141   9.220  1.00 41.35     0.048 C 
HETATM   38  C38 BCR K 102     -49.713 146.160  10.304  1.00 46.90     0.044 C 
HETATM   39  C39 BCR K 102     -52.199 142.929  12.520  1.00 44.18     0.020 C 
HETATM   40  C40 BCR K 102     -50.186 143.123  13.934  1.00 41.68     0.020 C 
ENDROOT
TORSDOF 10
