REMARK VINA RESULT:    -7.045      3.382      5.089
REMARK INTER + INTRA:         -13.826
REMARK INTER:                 -11.772
REMARK INTRA:                  -2.054
REMARK UNBOUND:                -6.781
REMARK  0 active torsions:
REMARK  status: ('A' for Active; 'I' for Inactive)
REMARK       I    between atoms: C6_6  and  C7_7 
REMARK       I    between atoms: C8_8  and  C9_9 
REMARK       I    between atoms: C10_10  and  C11_11 
REMARK       I    between atoms: C12_16  and  C13_17 
REMARK       I    between atoms: C14_18  and  C15_19 
REMARK       I    between atoms: C16_20  and  C17_21 
REMARK       I    between atoms: C18_22  and  C19_23 
REMARK       I    between atoms: C20_24  and  C21_25 
REMARK       I    between atoms: C22_26  and  C23_27 
REMARK       I    between atoms: C24_28  and  C25_29 
ROOT
HETATM    1  C1  BCR H 101     -44.009 148.256  14.374  1.00 46.06    -0.020 C 
HETATM    2  C2  BCR H 101     -44.831 149.161  15.293  1.00 47.54     0.014 C 
HETATM    3  C3  BCR H 101     -45.574 148.313  16.306  1.00 47.88     0.005 C 
HETATM    4  C4  BCR H 101     -46.615 147.491  15.572  1.00 39.95     0.034 C 
HETATM    5  C5  BCR H 101     -46.061 146.807  14.339  1.00 52.72    -0.077 C 
HETATM    6  C6  BCR H 101     -44.868 147.151  13.771  1.00 44.05    -0.048 C 
HETATM    7  C7  BCR H 101     -44.287 146.499  12.558  1.00 41.77     0.009 C 
HETATM    8  C8  BCR H 101     -44.229 145.181  12.320  1.00 39.73     0.007 C 
HETATM    9  C9  BCR H 101     -43.612 144.602  11.103  1.00 51.82    -0.062 C 
HETATM   10  C10 BCR H 101     -43.397 143.275  11.083  1.00 44.04     0.007 C 
HETATM   11  C11 BCR H 101     -42.772 142.510  10.003  1.00 50.55     0.001 C 
HETATM   12  C33 BCR H 101     -46.977 145.732  13.816  1.00 45.83     0.044 C 
HETATM   13  C31 BCR H 101     -42.887 147.625  15.181  1.00 36.85     0.020 C 
HETATM   14  C32 BCR H 101     -43.375 149.109  13.272  1.00 40.14     0.020 C 
HETATM   15  C34 BCR H 101     -43.227 145.477   9.942  1.00 48.50     0.048 C 
HETATM   16  C12 BCR H 101     -42.253 141.325  10.351  1.00 64.73     0.007 C 
HETATM   17  C13 BCR H 101     -41.549 140.394   9.435  1.00 72.39    -0.062 C 
HETATM   18  C14 BCR H 101     -41.136 139.192   9.897  1.00 61.01     0.007 C 
HETATM   19  C15 BCR H 101     -40.418 138.207   9.072  1.00 53.62     0.001 C 
HETATM   20  C16 BCR H 101     -39.835 137.150   9.655  1.00 51.67     0.001 C 
HETATM   21  C17 BCR H 101     -39.114 136.115   8.903  1.00 53.95     0.007 C 
HETATM   22  C18 BCR H 101     -38.462 135.112   9.537  1.00 56.08    -0.062 C 
HETATM   23  C19 BCR H 101     -37.724 134.084   8.763  1.00 64.56     0.007 C 
HETATM   24  C20 BCR H 101     -37.025 133.083   9.314  1.00 42.37     0.001 C 
HETATM   25  C21 BCR H 101     -36.325 132.164   8.412  1.00 57.40     0.007 C 
HETATM   26  C22 BCR H 101     -35.621 131.086   8.812  1.00 67.24    -0.062 C 
HETATM   27  C23 BCR H 101     -35.007 130.319   7.888  1.00 62.55     0.007 C 
HETATM   28  C24 BCR H 101     -34.199 129.297   8.219  1.00 52.65     0.009 C 
HETATM   29  C25 BCR H 101     -33.497 128.443   7.216  1.00 59.76    -0.048 C 
HETATM   30  C26 BCR H 101     -32.431 128.895   6.534  1.00 55.29    -0.077 C 
HETATM   31  C27 BCR H 101     -31.684 128.059   5.514  1.00 50.09     0.034 C 
HETATM   32  C28 BCR H 101     -32.502 126.890   4.994  1.00 47.48     0.005 C 
HETATM   33  C29 BCR H 101     -33.111 126.154   6.170  1.00 49.30     0.014 C 
HETATM   34  C30 BCR H 101     -34.026 127.044   7.008  1.00 65.35    -0.020 C 
HETATM   35  C35 BCR H 101     -41.265 140.807   8.022  1.00 73.87     0.048 C 
HETATM   36  C36 BCR H 101     -38.447 135.059  11.032  1.00 50.16     0.048 C 
HETATM   37  C37 BCR H 101     -35.514 130.738  10.267  1.00 67.94     0.048 C 
HETATM   38  C38 BCR H 101     -31.918 130.287   6.771  1.00 48.54     0.044 C 
HETATM   39  C39 BCR H 101     -34.181 126.417   8.394  1.00 52.27     0.020 C 
HETATM   40  C40 BCR H 101     -35.382 127.163   6.314  1.00 64.09     0.020 C 
ENDROOT
TORSDOF 10
