REMARK VINA RESULT:    -6.409      0.496     16.712
REMARK INTER + INTRA:         -12.454
REMARK INTER:                  -7.388
REMARK INTRA:                  -5.066
REMARK UNBOUND:                -6.044
REMARK  0 active torsions:
REMARK  status: ('A' for Active; 'I' for Inactive)
REMARK       I    between atoms: C6_6  and  C7_7 
REMARK       I    between atoms: C8_8  and  C9_9 
REMARK       I    between atoms: C10_10  and  C11_11 
REMARK       I    between atoms: C12_16  and  C13_17 
REMARK       I    between atoms: C14_18  and  C15_19 
REMARK       I    between atoms: C16_20  and  C17_21 
REMARK       I    between atoms: C18_22  and  C19_23 
REMARK       I    between atoms: C20_24  and  C21_25 
REMARK       I    between atoms: C22_26  and  C23_27 
REMARK       I    between atoms: C24_28  and  C25_29 
ROOT
HETATM    1  C1  BCR B 619     -50.078 150.481   8.069  1.00 28.89    -0.020 C 
HETATM    2  C2  BCR B 619     -51.357 151.162   7.546  1.00 28.87     0.014 C 
HETATM    3  C3  BCR B 619     -52.215 150.218   6.713  1.00 24.82     0.005 C 
HETATM    4  C4  BCR B 619     -52.600 148.946   7.497  1.00 26.55     0.034 C 
HETATM    5  C5  BCR B 619     -51.428 148.344   8.271  1.00 25.55    -0.077 C 
HETATM    6  C6  BCR B 619     -50.285 149.026   8.521  1.00 25.71    -0.048 C 
HETATM    7  C7  BCR B 619     -49.131 148.372   9.225  1.00 26.15     0.009 C 
HETATM    8  C8  BCR B 619     -48.624 147.193   8.783  1.00 24.62     0.007 C 
HETATM    9  C9  BCR B 619     -47.455 146.493   9.372  1.00 23.75    -0.062 C 
HETATM   10  C10 BCR B 619     -47.148 145.291   8.853  1.00 23.51     0.007 C 
HETATM   11  C11 BCR B 619     -45.994 144.473   9.302  1.00 22.91     0.001 C 
HETATM   12  C33 BCR B 619     -51.624 146.916   8.710  1.00 26.88     0.044 C 
HETATM   13  C31 BCR B 619     -49.626 151.350   9.249  1.00 28.47     0.020 C 
HETATM   14  C32 BCR B 619     -49.014 150.521   6.960  1.00 29.15     0.020 C 
HETATM   15  C34 BCR B 619     -46.614 147.173  10.472  1.00 23.47     0.048 C 
HETATM   16  C12 BCR B 619     -45.574 143.403   8.608  1.00 20.45     0.007 C 
HETATM   17  C13 BCR B 619     -44.413 142.570   8.971  1.00 21.99    -0.062 C 
HETATM   18  C14 BCR B 619     -44.166 141.413   8.292  1.00 22.06     0.007 C 
HETATM   19  C15 BCR B 619     -43.074 140.443   8.513  1.00 21.97     0.001 C 
HETATM   20  C16 BCR B 619     -43.022 139.206   7.942  1.00 20.65     0.001 C 
HETATM   21  C17 BCR B 619     -41.922 138.282   8.235  1.00 23.36     0.007 C 
HETATM   22  C18 BCR B 619     -41.683 137.070   7.697  1.00 22.90    -0.062 C 
HETATM   23  C19 BCR B 619     -40.465 136.328   8.133  1.00 24.93     0.007 C 
HETATM   24  C20 BCR B 619     -40.251 135.038   7.809  1.00 23.33     0.001 C 
HETATM   25  C21 BCR B 619     -39.071 134.312   8.261  1.00 25.92     0.007 C 
HETATM   26  C22 BCR B 619     -38.696 133.036   7.946  1.00 29.58    -0.062 C 
HETATM   27  C23 BCR B 619     -37.400 132.558   8.518  1.00 30.44     0.007 C 
HETATM   28  C24 BCR B 619     -36.959 131.271   8.504  1.00 37.61     0.009 C 
HETATM   29  C25 BCR B 619     -35.640 130.738   9.041  1.00 35.86    -0.048 C 
HETATM   30  C26 BCR B 619     -35.366 130.648  10.364  1.00 38.98    -0.077 C 
HETATM   31  C27 BCR B 619     -34.055 130.098  10.870  1.00 37.08     0.034 C 
HETATM   32  C28 BCR B 619     -32.921 130.474   9.927  1.00 38.77     0.005 C 
HETATM   33  C29 BCR B 619     -33.232 129.800   8.601  1.00 41.75     0.014 C 
HETATM   34  C30 BCR B 619     -34.611 130.212   8.026  1.00 42.71    -0.020 C 
HETATM   35  C35 BCR B 619     -43.485 143.098  10.067  1.00 20.47     0.048 C 
HETATM   36  C36 BCR B 619     -42.627 136.384   6.692  1.00 21.73     0.048 C 
HETATM   37  C37 BCR B 619     -39.513 132.100   7.032  1.00 28.12     0.048 C 
HETATM   38  C38 BCR B 619     -36.311 131.117  11.440  1.00 37.79     0.044 C 
HETATM   39  C39 BCR B 619     -35.241 128.960   7.353  1.00 45.59     0.020 C 
HETATM   40  C40 BCR B 619     -34.338 131.269   6.978  1.00 39.52     0.020 C 
ENDROOT
TORSDOF 10
