REMARK VINA RESULT:    -9.886      2.391      3.394
REMARK INTER + INTRA:         -12.460
REMARK INTER:                  -9.904
REMARK INTRA:                  -2.556
REMARK UNBOUND:                -2.573
REMARK  0 active torsions:
REMARK  status: ('A' for Active; 'I' for Inactive)
REMARK       I    between atoms: C6_6  and  C7_7 
REMARK       I    between atoms: C8_8  and  C9_9 
REMARK       I    between atoms: C10_10  and  C11_11 
REMARK       I    between atoms: C12_16  and  C13_17 
REMARK       I    between atoms: C14_18  and  C15_19 
REMARK       I    between atoms: C16_20  and  C17_21 
REMARK       I    between atoms: C18_22  and  C19_23 
REMARK       I    between atoms: C20_24  and  C21_25 
REMARK       I    between atoms: C22_26  and  C23_27 
REMARK       I    between atoms: C24_28  and  C25_29 
ROOT
HETATM    1  C1  BCR B 619     -34.410 127.181   6.074  1.00 43.68    -0.020 C 
HETATM    2  C2  BCR B 619     -33.107 126.493   5.646  1.00 34.01     0.014 C 
HETATM    3  C3  BCR B 619     -32.041 127.530   5.316  1.00 39.82     0.005 C 
HETATM    4  C4  BCR B 619     -31.776 128.468   6.497  1.00 35.97     0.034 C 
HETATM    5  C5  BCR B 619     -33.039 128.987   7.161  1.00 51.08    -0.077 C 
HETATM    6  C6  BCR B 619     -34.240 128.403   6.968  1.00 43.37    -0.048 C 
HETATM    7  C7  BCR B 619     -35.490 128.907   7.615  1.00 41.21     0.009 C 
HETATM    8  C8  BCR B 619     -36.040 130.087   7.312  1.00 35.08     0.007 C 
HETATM    9  C9  BCR B 619     -37.295 130.602   7.894  1.00 45.29    -0.062 C 
HETATM   10  C10 BCR B 619     -37.568 131.923   7.733  1.00 31.51     0.007 C 
HETATM   11  C11 BCR B 619     -38.776 132.647   8.175  1.00 35.87     0.001 C 
HETATM   12  C33 BCR B 619     -32.883 130.193   8.053  1.00 49.04     0.044 C 
HETATM   13  C31 BCR B 619     -35.268 126.199   6.849  1.00 38.43     0.020 C 
HETATM   14  C32 BCR B 619     -35.131 127.621   4.806  1.00 45.87     0.020 C 
HETATM   15  C34 BCR B 619     -38.230 129.628   8.573  1.00 32.59     0.048 C 
HETATM   16  C12 BCR B 619     -39.042 133.880   7.672  1.00 32.79     0.007 C 
HETATM   17  C13 BCR B 619     -40.254 134.666   8.059  1.00 41.33    -0.062 C 
HETATM   18  C14 BCR B 619     -40.348 135.987   7.734  1.00 31.13     0.007 C 
HETATM   19  C15 BCR B 619     -41.463 136.920   8.028  1.00 39.90     0.001 C 
HETATM   20  C16 BCR B 619     -41.451 138.248   7.737  1.00 29.90     0.001 C 
HETATM   21  C17 BCR B 619     -42.628 139.085   8.066  1.00 33.57     0.007 C 
HETATM   22  C18 BCR B 619     -42.752 140.432   7.903  1.00 38.90    -0.062 C 
HETATM   23  C19 BCR B 619     -44.032 141.082   8.292  1.00 36.01     0.007 C 
HETATM   24  C20 BCR B 619     -44.243 142.411   8.377  1.00 41.69     0.001 C 
HETATM   25  C21 BCR B 619     -45.580 142.885   8.778  1.00 46.52     0.007 C 
HETATM   26  C22 BCR B 619     -45.969 144.180   8.809  1.00 47.59    -0.062 C 
HETATM   27  C23 BCR B 619     -47.232 144.513   9.188  1.00 54.77     0.007 C 
HETATM   28  C24 BCR B 619     -47.653 145.784   9.340  1.00 45.04     0.009 C 
HETATM   29  C25 BCR B 619     -49.024 146.256   9.749  1.00 40.91    -0.048 C 
HETATM   30  C26 BCR B 619     -49.535 146.093  10.982  1.00 51.20    -0.077 C 
HETATM   31  C27 BCR B 619     -50.904 146.608  11.319  1.00 53.77     0.034 C 
HETATM   32  C28 BCR B 619     -51.815 146.307  10.154  1.00 56.12     0.005 C 
HETATM   33  C29 BCR B 619     -51.322 147.121   8.977  1.00 60.15     0.014 C 
HETATM   34  C30 BCR B 619     -49.824 146.982   8.691  1.00 51.25    -0.020 C 
HETATM   35  C35 BCR B 619     -41.356 133.945   8.806  1.00 33.87     0.048 C 
HETATM   36  C36 BCR B 619     -41.628 141.274   7.339  1.00 33.91     0.048 C 
HETATM   37  C37 BCR B 619     -44.988 145.237   8.399  1.00 55.50     0.048 C 
HETATM   38  C38 BCR B 619     -48.800 145.390  12.081  1.00 45.25     0.044 C 
HETATM   39  C39 BCR B 619     -49.194 148.367   8.514  1.00 56.99     0.020 C 
HETATM   40  C40 BCR B 619     -49.675 146.212   7.391  1.00 53.04     0.020 C 
ENDROOT
TORSDOF 10
