REMARK VINA RESULT:    -7.464      2.766     16.841
REMARK INTER + INTRA:         -13.347
REMARK INTER:                 -10.333
REMARK INTRA:                  -3.014
REMARK UNBOUND:                -5.883
REMARK  0 active torsions:
REMARK  status: ('A' for Active; 'I' for Inactive)
REMARK       I    between atoms: C6_6  and  C7_7 
REMARK       I    between atoms: C8_8  and  C9_9 
REMARK       I    between atoms: C10_10  and  C11_11 
REMARK       I    between atoms: C12_16  and  C13_17 
REMARK       I    between atoms: C14_18  and  C15_19 
REMARK       I    between atoms: C16_20  and  C17_21 
REMARK       I    between atoms: C18_22  and  C19_23 
REMARK       I    between atoms: C20_24  and  C21_25 
REMARK       I    between atoms: C22_26  and  C23_27 
REMARK       I    between atoms: C24_28  and  C25_29 
ROOT
HETATM    1  C1  BCR B 619     -47.055 148.072  12.128  1.00 29.78    -0.020 C 
HETATM    2  C2  BCR B 619     -47.716 148.986  13.152  1.00 32.88     0.014 C 
HETATM    3  C3  BCR B 619     -47.704 148.381  14.530  1.00 32.12     0.005 C 
HETATM    4  C4  BCR B 619     -46.313 148.117  15.036  1.00 29.37     0.034 C 
HETATM    5  C5  BCR B 619     -45.397 147.554  13.954  1.00 26.51    -0.077 C 
HETATM    6  C6  BCR B 619     -45.740 147.470  12.638  1.00 26.75    -0.048 C 
HETATM    7  C7  BCR B 619     -44.916 146.726  11.656  1.00 27.16     0.009 C 
HETATM    8  C8  BCR B 619     -44.241 145.606  11.906  1.00 26.20     0.007 C 
HETATM    9  C9  BCR B 619     -43.516 144.861  10.903  1.00 20.49    -0.062 C 
HETATM   10  C10 BCR B 619     -43.015 143.666  11.267  1.00 22.41     0.007 C 
HETATM   11  C11 BCR B 619     -42.339 142.729  10.380  1.00 20.79     0.001 C 
HETATM   12  C33 BCR B 619     -44.015 147.176  14.458  1.00 26.02     0.044 C 
HETATM   13  C31 BCR B 619     -46.819 148.879  10.886  1.00 32.38     0.020 C 
HETATM   14  C32 BCR B 619     -47.982 146.890  11.820  1.00 28.82     0.020 C 
HETATM   15  C34 BCR B 619     -43.369 145.486   9.541  1.00 20.53     0.048 C 
HETATM   16  C12 BCR B 619     -41.994 141.489  10.806  1.00 22.97     0.007 C 
HETATM   17  C13 BCR B 619     -41.286 140.491   9.942  1.00 24.26    -0.062 C 
HETATM   18  C14 BCR B 619     -40.933 139.275  10.467  1.00 21.19     0.007 C 
HETATM   19  C15 BCR B 619     -40.180 138.208   9.767  1.00 24.01     0.001 C 
HETATM   20  C16 BCR B 619     -39.804 137.056  10.401  1.00 22.73     0.001 C 
HETATM   21  C17 BCR B 619     -39.011 136.074   9.668  1.00 24.34     0.007 C 
HETATM   22  C18 BCR B 619     -38.522 134.879  10.191  1.00 23.72    -0.062 C 
HETATM   23  C19 BCR B 619     -37.736 133.969   9.296  1.00 24.63     0.007 C 
HETATM   24  C20 BCR B 619     -37.164 132.810   9.703  1.00 25.42     0.001 C 
HETATM   25  C21 BCR B 619     -36.363 132.003   8.790  1.00 24.42     0.007 C 
HETATM   26  C22 BCR B 619     -35.635 130.905   9.064  1.00 28.11    -0.062 C 
HETATM   27  C23 BCR B 619     -34.887 130.305   7.937  1.00 27.88     0.007 C 
HETATM   28  C24 BCR B 619     -34.253 129.110   8.015  1.00 48.58     0.009 C 
HETATM   29  C25 BCR B 619     -33.562 128.353   6.867  1.00 40.96    -0.048 C 
HETATM   30  C26 BCR B 619     -32.758 128.901   5.948  1.00 43.15    -0.077 C 
HETATM   31  C27 BCR B 619     -32.217 128.156   4.732  1.00 40.16     0.034 C 
HETATM   32  C28 BCR B 619     -32.944 126.870   4.465  1.00 50.45     0.005 C 
HETATM   33  C29 BCR B 619     -32.917 126.173   5.786  1.00 52.86     0.014 C 
HETATM   34  C30 BCR B 619     -33.803 126.852   6.824  1.00 49.52    -0.020 C 
HETATM   35  C35 BCR B 619     -40.910 140.940   8.503  1.00 23.42     0.048 C 
HETATM   36  C36 BCR B 619     -38.721 134.437  11.637  1.00 23.31     0.048 C 
HETATM   37  C37 BCR B 619     -35.584 130.319  10.484  1.00 31.17     0.048 C 
HETATM   38  C38 BCR B 619     -32.203 130.283   6.110  1.00 48.43     0.044 C 
HETATM   39  C39 BCR B 619     -33.563 126.107   8.161  1.00 62.11     0.020 C 
HETATM   40  C40 BCR B 619     -35.240 126.764   6.370  1.00 46.92     0.020 C 
ENDROOT
TORSDOF 10
