REMARK VINA RESULT:    -6.886      1.726      3.346
REMARK INTER + INTRA:         -11.434
REMARK INTER:                  -7.803
REMARK INTRA:                  -3.631
REMARK UNBOUND:                -4.549
REMARK  0 active torsions:
REMARK  status: ('A' for Active; 'I' for Inactive)
REMARK       I    between atoms: C6_6  and  C7_7 
REMARK       I    between atoms: C8_8  and  C9_9 
REMARK       I    between atoms: C10_10  and  C11_11 
REMARK       I    between atoms: C12_16  and  C13_17 
REMARK       I    between atoms: C14_18  and  C15_19 
REMARK       I    between atoms: C16_20  and  C17_21 
REMARK       I    between atoms: C18_22  and  C19_23 
REMARK       I    between atoms: C20_24  and  C21_25 
REMARK       I    between atoms: C22_26  and  C23_27 
REMARK       I    between atoms: C24_28  and  C25_29 
ROOT
HETATM    1  C1  BCR K 101     -33.289 130.461   7.047  1.00 53.78    -0.020 C 
HETATM    2  C2  BCR K 101     -31.870 129.930   7.102  1.00 52.63     0.014 C 
HETATM    3  C3  BCR K 101     -31.090 130.701   8.148  1.00 48.62     0.005 C 
HETATM    4  C4  BCR K 101     -31.646 130.430   9.529  1.00 47.69     0.034 C 
HETATM    5  C5  BCR K 101     -33.148 130.293   9.510  1.00 49.41    -0.077 C 
HETATM    6  C6  BCR K 101     -33.896 130.461   8.425  1.00 51.74    -0.048 C 
HETATM    7  C7  BCR K 101     -35.358 130.639   8.571  1.00 48.65     0.009 C 
HETATM    8  C8  BCR K 101     -35.897 131.857   8.527  1.00 52.02     0.007 C 
HETATM    9  C9  BCR K 101     -37.342 132.138   8.666  1.00 47.61    -0.062 C 
HETATM   10  C10 BCR K 101     -37.793 133.360   8.354  1.00 50.88     0.007 C 
HETATM   11  C11 BCR K 101     -39.191 133.767   8.477  1.00 48.28     0.001 C 
HETATM   12  C33 BCR K 101     -33.825 129.944  10.788  1.00 47.21     0.044 C 
HETATM   13  C31 BCR K 101     -34.170 129.615   6.143  1.00 51.09     0.020 C 
HETATM   14  C32 BCR K 101     -33.215 131.884   6.516  1.00 55.13     0.020 C 
HETATM   15  C34 BCR K 101     -38.287 131.085   9.145  1.00 45.70     0.048 C 
HETATM   16  C12 BCR K 101     -39.440 135.056   8.275  1.00 55.39     0.007 C 
HETATM   17  C13 BCR K 101     -40.766 135.695   8.394  1.00 52.90    -0.062 C 
HETATM   18  C14 BCR K 101     -40.874 136.999   8.076  1.00 52.56     0.007 C 
HETATM   19  C15 BCR K 101     -42.120 137.758   8.189  1.00 51.27     0.001 C 
HETATM   20  C16 BCR K 101     -42.086 139.088   8.066  1.00 51.24     0.001 C 
HETATM   21  C17 BCR K 101     -43.308 139.882   8.197  1.00 52.13     0.007 C 
HETATM   22  C18 BCR K 101     -43.335 141.224   8.136  1.00 46.79    -0.062 C 
HETATM   23  C19 BCR K 101     -44.632 141.897   8.306  1.00 43.89     0.007 C 
HETATM   24  C20 BCR K 101     -44.766 143.175   8.662  1.00 44.27     0.001 C 
HETATM   25  C21 BCR K 101     -46.133 143.671   8.810  1.00 43.76     0.007 C 
HETATM   26  C22 BCR K 101     -46.514 144.960   8.860  1.00 47.16    -0.062 C 
HETATM   27  C23 BCR K 101     -47.953 145.211   9.008  1.00 46.79     0.007 C 
HETATM   28  C24 BCR K 101     -48.501 146.352   8.617  1.00 42.76     0.009 C 
HETATM   29  C25 BCR K 101     -49.954 146.542   8.768  1.00 46.43    -0.048 C 
HETATM   30  C26 BCR K 101     -50.818 145.740   8.133  1.00 46.40    -0.077 C 
HETATM   31  C27 BCR K 101     -52.223 145.509   8.625  1.00 46.16     0.034 C 
HETATM   32  C28 BCR K 101     -52.537 146.414   9.803  1.00 49.08     0.005 C 
HETATM   33  C29 BCR K 101     -51.932 147.790   9.592  1.00 48.65     0.014 C 
HETATM   34  C30 BCR K 101     -50.421 147.673   9.646  1.00 50.07    -0.020 C 
HETATM   35  C35 BCR K 101     -41.943 134.926   8.909  1.00 46.59     0.048 C 
HETATM   36  C36 BCR K 101     -42.091 142.024   7.913  1.00 47.08     0.048 C 
HETATM   37  C37 BCR K 101     -45.558 146.112   8.756  1.00 37.98     0.048 C 
HETATM   38  C38 BCR K 101     -50.433 145.043   6.866  1.00 46.50     0.044 C 
HETATM   39  C39 BCR K 101     -49.962 147.378  11.065  1.00 51.74     0.020 C 
HETATM   40  C40 BCR K 101     -49.777 148.960   9.162  1.00 46.40     0.020 C 
ENDROOT
TORSDOF 10
