REMARK VINA RESULT:   -12.131      0.000      0.000
REMARK INTER + INTRA:         -14.944
REMARK INTER:                 -12.131
REMARK INTRA:                  -2.813
REMARK UNBOUND:                -2.813
REMARK  0 active torsions:
REMARK  status: ('A' for Active; 'I' for Inactive)
REMARK       I    between atoms: C6_6  and  C7_7 
REMARK       I    between atoms: C8_8  and  C9_9 
REMARK       I    between atoms: C10_10  and  C11_11 
REMARK       I    between atoms: C12_16  and  C13_17 
REMARK       I    between atoms: C14_18  and  C15_19 
REMARK       I    between atoms: C16_20  and  C17_21 
REMARK       I    between atoms: C18_22  and  C19_23 
REMARK       I    between atoms: C20_24  and  C21_25 
REMARK       I    between atoms: C22_26  and  C23_27 
REMARK       I    between atoms: C24_28  and  C25_29 
ROOT
HETATM    1  C1  BCR A 410     -33.993 126.664   6.637  1.00 50.64    -0.020 C 
HETATM    2  C2  BCR A 410     -33.153 125.877   5.642  1.00 44.64     0.014 C 
HETATM    3  C3  BCR A 410     -32.756 126.769   4.488  1.00 41.78     0.005 C 
HETATM    4  C4  BCR A 410     -31.788 127.805   5.014  1.00 42.03     0.034 C 
HETATM    5  C5  BCR A 410     -32.398 128.539   6.187  1.00 39.65    -0.077 C 
HETATM    6  C6  BCR A 410     -33.405 128.033   6.926  1.00 44.55    -0.048 C 
HETATM    7  C7  BCR A 410     -33.975 128.794   8.076  1.00 44.34     0.009 C 
HETATM    8  C8  BCR A 410     -34.662 129.929   7.886  1.00 45.94     0.007 C 
HETATM    9  C9  BCR A 410     -35.269 130.732   8.966  1.00 39.93    -0.062 C 
HETATM   10  C10 BCR A 410     -35.909 131.867   8.633  1.00 44.48     0.007 C 
HETATM   11  C11 BCR A 410     -36.585 132.757   9.576  1.00 36.88     0.001 C 
HETATM   12  C33 BCR A 410     -31.800 129.876   6.481  1.00 34.70     0.044 C 
HETATM   13  C31 BCR A 410     -34.058 125.881   7.944  1.00 36.72     0.020 C 
HETATM   14  C32 BCR A 410     -35.392 126.803   6.044  1.00 32.71     0.020 C 
HETATM   15  C34 BCR A 410     -35.181 130.279  10.393  1.00 43.39     0.048 C 
HETATM   16  C12 BCR A 410     -37.182 133.858   9.097  1.00 44.33     0.007 C 
HETATM   17  C13 BCR A 410     -37.929 134.822   9.940  1.00 40.83    -0.062 C 
HETATM   18  C14 BCR A 410     -38.652 135.793   9.325  1.00 44.56     0.007 C 
HETATM   19  C15 BCR A 410     -39.478 136.809  10.004  1.00 44.82     0.001 C 
HETATM   20  C16 BCR A 410     -40.133 137.771   9.318  1.00 40.83     0.001 C 
HETATM   21  C17 BCR A 410     -40.981 138.744  10.027  1.00 39.03     0.007 C 
HETATM   22  C18 BCR A 410     -41.732 139.737   9.481  1.00 45.07    -0.062 C 
HETATM   23  C19 BCR A 410     -42.534 140.583  10.398  1.00 37.89     0.007 C 
HETATM   24  C20 BCR A 410     -43.137 141.724  10.054  1.00 33.16     0.001 C 
HETATM   25  C21 BCR A 410     -43.879 142.440  11.107  1.00 38.89     0.007 C 
HETATM   26  C22 BCR A 410     -44.237 143.740  11.039  1.00 47.65    -0.062 C 
HETATM   27  C23 BCR A 410     -44.917 144.319  12.066  1.00 36.20     0.007 C 
HETATM   28  C24 BCR A 410     -45.382 145.575  12.010  1.00 32.05     0.009 C 
HETATM   29  C25 BCR A 410     -46.152 146.276  13.084  1.00 34.54    -0.048 C 
HETATM   30  C26 BCR A 410     -47.398 145.870  13.430  1.00 38.36    -0.077 C 
HETATM   31  C27 BCR A 410     -48.207 146.560  14.515  1.00 39.17     0.034 C 
HETATM   32  C28 BCR A 410     -47.339 147.426  15.433  1.00 35.95     0.005 C 
HETATM   33  C29 BCR A 410     -46.485 148.317  14.547  1.00 35.50     0.014 C 
HETATM   34  C30 BCR A 410     -45.492 147.476  13.754  1.00 37.31    -0.020 C 
HETATM   35  C35 BCR A 410     -37.871 134.691  11.441  1.00 35.03     0.048 C 
HETATM   36  C36 BCR A 410     -41.775 140.014   8.006  1.00 40.96     0.048 C 
HETATM   37  C37 BCR A 410     -43.884 144.533   9.817  1.00 31.89     0.048 C 
HETATM   38  C38 BCR A 410     -48.059 144.692  12.753  1.00 30.43     0.044 C 
HETATM   39  C39 BCR A 410     -44.389 147.012  14.703  1.00 34.95     0.020 C 
HETATM   40  C40 BCR A 410     -44.899 148.367  12.670  1.00 30.42     0.020 C 
ENDROOT
TORSDOF 10
