REMARK VINA RESULT:    -5.156      0.712     16.195
REMARK INTER + INTRA:          -8.736
REMARK INTER:                  -5.446
REMARK INTRA:                  -3.290
REMARK UNBOUND:                -3.579
REMARK  0 active torsions:
REMARK  status: ('A' for Active; 'I' for Inactive)
REMARK       I    between atoms: C6_6  and  C7_7 
REMARK       I    between atoms: C8_8  and  C9_9 
REMARK       I    between atoms: C10_10  and  C11_11 
REMARK       I    between atoms: C12_16  and  C13_17 
REMARK       I    between atoms: C14_18  and  C15_19 
REMARK       I    between atoms: C16_20  and  C17_21 
REMARK       I    between atoms: C18_22  and  C19_23 
REMARK       I    between atoms: C20_24  and  C21_25 
REMARK       I    between atoms: C22_26  and  C23_27 
REMARK       I    between atoms: C24_28  and  C25_29 
ROOT
HETATM    1  C1  BCR D 405     -33.345 128.891   8.065  1.00 30.90    -0.020 C 
HETATM    2  C2  BCR D 405     -32.890 127.732   7.174  1.00 31.78     0.014 C 
HETATM    3  C3  BCR D 405     -33.452 127.553   5.769  1.00 29.69     0.005 C 
HETATM    4  C4  BCR D 405     -34.764 128.276   5.439  1.00 26.40     0.034 C 
HETATM    5  C5  BCR D 405     -35.329 129.180   6.498  1.00 27.97    -0.077 C 
HETATM    6  C6  BCR D 405     -34.704 129.477   7.682  1.00 28.25    -0.048 C 
HETATM    7  C7  BCR D 405     -35.392 130.385   8.649  1.00 24.92     0.009 C 
HETATM    8  C8  BCR D 405     -35.583 131.689   8.434  1.00 24.70     0.007 C 
HETATM    9  C9  BCR D 405     -36.301 132.416   9.484  1.00 24.75    -0.062 C 
HETATM   10  C10 BCR D 405     -36.839 133.591   9.149  1.00 26.58     0.007 C 
HETATM   11  C11 BCR D 405     -37.655 134.454  10.012  1.00 22.57     0.001 C 
HETATM   12  C33 BCR D 405     -36.694 129.761   6.153  1.00 27.23     0.044 C 
HETATM   13  C31 BCR D 405     -32.280 129.998   8.147  1.00 32.44     0.020 C 
HETATM   14  C32 BCR D 405     -33.380 128.265   9.446  1.00 32.88     0.020 C 
HETATM   15  C34 BCR D 405     -36.445 131.844  10.873  1.00 25.55     0.048 C 
HETATM   16  C12 BCR D 405     -38.141 135.562   9.424  1.00 23.06     0.007 C 
HETATM   17  C13 BCR D 405     -39.078 136.546  10.092  1.00 24.15    -0.062 C 
HETATM   18  C14 BCR D 405     -39.580 137.578   9.345  1.00 24.94     0.007 C 
HETATM   19  C15 BCR D 405     -40.581 138.557   9.787  1.00 25.20     0.001 C 
HETATM   20  C16 BCR D 405     -41.185 139.421   8.964  1.00 27.04     0.001 C 
HETATM   21  C17 BCR D 405     -42.302 140.263   9.443  1.00 26.38     0.007 C 
HETATM   22  C18 BCR D 405     -43.031 141.098   8.663  1.00 26.16    -0.062 C 
HETATM   23  C19 BCR D 405     -44.168 141.813   9.328  1.00 24.55     0.007 C 
HETATM   24  C20 BCR D 405     -45.020 142.645   8.708  1.00 27.03     0.001 C 
HETATM   25  C21 BCR D 405     -46.181 143.231   9.452  1.00 28.88     0.007 C 
HETATM   26  C22 BCR D 405     -47.106 144.120   8.958  1.00 32.91    -0.062 C 
HETATM   27  C23 BCR D 405     -48.217 144.568   9.839  1.00 38.29     0.007 C 
HETATM   28  C24 BCR D 405     -49.462 144.667   9.330  1.00 46.67     0.009 C 
HETATM   29  C25 BCR D 405     -50.694 145.049  10.103  1.00 51.60    -0.048 C 
HETATM   30  C26 BCR D 405     -51.351 144.104  10.791  1.00 54.27    -0.077 C 
HETATM   31  C27 BCR D 405     -52.600 144.403  11.596  1.00 55.15     0.034 C 
HETATM   32  C28 BCR D 405     -52.514 145.821  12.133  1.00 54.99     0.005 C 
HETATM   33  C29 BCR D 405     -52.476 146.709  10.907  1.00 54.48     0.014 C 
HETATM   34  C30 BCR D 405     -51.226 146.453  10.063  1.00 50.68    -0.020 C 
HETATM   35  C35 BCR D 405     -39.468 136.358  11.551  1.00 28.63     0.048 C 
HETATM   36  C36 BCR D 405     -42.723 141.216   7.178  1.00 26.41     0.048 C 
HETATM   37  C37 BCR D 405     -47.060 144.677   7.553  1.00 31.00     0.048 C 
HETATM   38  C38 BCR D 405     -50.841 142.696  10.805  1.00 57.74     0.044 C 
HETATM   39  C39 BCR D 405     -50.147 147.425  10.521  1.00 54.20     0.020 C 
HETATM   40  C40 BCR D 405     -51.576 146.645   8.593  1.00 48.16     0.020 C 
ENDROOT
TORSDOF 10
