REMARK VINA RESULT:   -11.721      0.000      0.000
REMARK INTER + INTRA:         -14.294
REMARK INTER:                 -11.721
REMARK INTRA:                  -2.573
REMARK UNBOUND:                -2.573
REMARK  0 active torsions:
REMARK  status: ('A' for Active; 'I' for Inactive)
REMARK       I    between atoms: C6_6  and  C7_7 
REMARK       I    between atoms: C8_8  and  C9_9 
REMARK       I    between atoms: C10_10  and  C11_11 
REMARK       I    between atoms: C12_16  and  C13_17 
REMARK       I    between atoms: C14_18  and  C15_19 
REMARK       I    between atoms: C16_20  and  C17_21 
REMARK       I    between atoms: C18_22  and  C19_23 
REMARK       I    between atoms: C20_24  and  C21_25 
REMARK       I    between atoms: C22_26  and  C23_27 
REMARK       I    between atoms: C24_28  and  C25_29 
ROOT
HETATM    1  C1  BCR B 619     -33.915 127.019   6.901  1.00 43.68    -0.020 C 
HETATM    2  C2  BCR B 619     -33.093 126.149   5.942  1.00 34.01     0.014 C 
HETATM    3  C3  BCR B 619     -32.736 126.934   4.687  1.00 39.82     0.005 C 
HETATM    4  C4  BCR B 619     -31.970 128.219   5.017  1.00 35.97     0.034 C 
HETATM    5  C5  BCR B 619     -32.577 129.014   6.159  1.00 51.08    -0.077 C 
HETATM    6  C6  BCR B 619     -33.463 128.470   7.018  1.00 43.37    -0.048 C 
HETATM    7  C7  BCR B 619     -34.067 129.244   8.145  1.00 41.21     0.009 C 
HETATM    8  C8  BCR B 619     -34.910 130.265   7.956  1.00 35.08     0.007 C 
HETATM    9  C9  BCR B 619     -35.562 131.026   9.039  1.00 45.29    -0.062 C 
HETATM   10  C10 BCR B 619     -36.138 132.213   8.715  1.00 31.51     0.007 C 
HETATM   11  C11 BCR B 619     -36.889 133.117   9.609  1.00 35.87     0.001 C 
HETATM   12  C33 BCR B 619     -32.133 130.449   6.289  1.00 49.04     0.044 C 
HETATM   13  C31 BCR B 619     -33.844 126.435   8.299  1.00 38.43     0.020 C 
HETATM   14  C32 BCR B 619     -35.355 127.013   6.403  1.00 45.87     0.020 C 
HETATM   15  C34 BCR B 619     -35.611 130.419  10.422  1.00 32.59     0.048 C 
HETATM   16  C12 BCR B 619     -37.662 134.098   9.077  1.00 32.79     0.007 C 
HETATM   17  C13 BCR B 619     -38.466 135.039   9.919  1.00 41.33    -0.062 C 
HETATM   18  C14 BCR B 619     -39.016 136.157   9.364  1.00 31.13     0.007 C 
HETATM   19  C15 BCR B 619     -39.837 137.195  10.032  1.00 39.90     0.001 C 
HETATM   20  C16 BCR B 619     -40.288 138.326   9.427  1.00 29.90     0.001 C 
HETATM   21  C17 BCR B 619     -41.113 139.291  10.190  1.00 33.57     0.007 C 
HETATM   22  C18 BCR B 619     -41.586 140.493   9.757  1.00 38.90    -0.062 C 
HETATM   23  C19 BCR B 619     -42.408 141.312  10.686  1.00 36.01     0.007 C 
HETATM   24  C20 BCR B 619     -42.781 142.592  10.483  1.00 41.69     0.001 C 
HETATM   25  C21 BCR B 619     -43.602 143.255  11.513  1.00 46.52     0.007 C 
HETATM   26  C22 BCR B 619     -44.134 144.494  11.404  1.00 47.59    -0.062 C 
HETATM   27  C23 BCR B 619     -44.886 145.013  12.411  1.00 54.77     0.007 C 
HETATM   28  C24 BCR B 619     -45.358 146.276  12.414  1.00 45.04     0.009 C 
HETATM   29  C25 BCR B 619     -46.199 146.942  13.472  1.00 40.91    -0.048 C 
HETATM   30  C26 BCR B 619     -45.744 147.264  14.695  1.00 51.20    -0.077 C 
HETATM   31  C27 BCR B 619     -46.638 147.944  15.691  1.00 53.77     0.034 C 
HETATM   32  C28 BCR B 619     -47.999 147.296  15.614  1.00 56.12     0.005 C 
HETATM   33  C29 BCR B 619     -48.564 147.600  14.243  1.00 60.15     0.014 C 
HETATM   34  C30 BCR B 619     -47.619 147.281  13.081  1.00 51.25    -0.020 C 
HETATM   35  C35 BCR B 619     -38.644 134.701  11.384  1.00 33.87     0.048 C 
HETATM   36  C36 BCR B 619     -41.297 141.008   8.363  1.00 33.91     0.048 C 
HETATM   37  C37 BCR B 619     -43.895 145.273  10.146  1.00 55.50     0.048 C 
HETATM   38  C38 BCR B 619     -44.349 146.964  15.151  1.00 45.25     0.044 C 
HETATM   39  C39 BCR B 619     -47.554 148.470  12.118  1.00 56.99     0.020 C 
HETATM   40  C40 BCR B 619     -48.192 146.087  12.339  1.00 53.04     0.020 C 
ENDROOT
TORSDOF 10
