REMARK VINA RESULT:    -8.311      2.892      4.753
REMARK INTER + INTRA:         -14.604
REMARK INTER:                 -12.141
REMARK INTRA:                  -2.463
REMARK UNBOUND:                -6.293
REMARK  0 active torsions:
REMARK  status: ('A' for Active; 'I' for Inactive)
REMARK       I    between atoms: C6_6  and  C7_7 
REMARK       I    between atoms: C8_8  and  C9_9 
REMARK       I    between atoms: C10_10  and  C11_11 
REMARK       I    between atoms: C12_16  and  C13_17 
REMARK       I    between atoms: C14_18  and  C15_19 
REMARK       I    between atoms: C16_20  and  C17_21 
REMARK       I    between atoms: C18_22  and  C19_23 
REMARK       I    between atoms: C20_24  and  C21_25 
REMARK       I    between atoms: C22_26  and  C23_27 
REMARK       I    between atoms: C24_28  and  C25_29 
ROOT
HETATM    1  C1  BCR B 620     -43.869 148.499  14.554  1.00 38.40    -0.020 C 
HETATM    2  C2  BCR B 620     -44.745 149.207  15.565  1.00 47.49     0.014 C 
HETATM    3  C3  BCR B 620     -45.601 148.251  16.353  1.00 50.89     0.005 C 
HETATM    4  C4  BCR B 620     -46.511 147.431  15.432  1.00 46.16     0.034 C 
HETATM    5  C5  BCR B 620     -45.784 146.975  14.172  1.00 38.82    -0.077 C 
HETATM    6  C6  BCR B 620     -44.571 147.407  13.781  1.00 39.21    -0.048 C 
HETATM    7  C7  BCR B 620     -43.735 146.818  12.688  1.00 32.23     0.009 C 
HETATM    8  C8  BCR B 620     -43.774 145.537  12.337  1.00 34.61     0.007 C 
HETATM    9  C9  BCR B 620     -42.818 144.925  11.386  1.00 31.92    -0.062 C 
HETATM   10  C10 BCR B 620     -42.742 143.573  11.280  1.00 31.22     0.007 C 
HETATM   11  C11 BCR B 620     -41.755 142.860  10.435  1.00 31.10     0.001 C 
HETATM   12  C33 BCR B 620     -46.608 146.032  13.354  1.00 45.14     0.044 C 
HETATM   13  C31 BCR B 620     -42.628 147.839  15.224  1.00 38.78     0.020 C 
HETATM   14  C32 BCR B 620     -43.422 149.564  13.583  1.00 41.66     0.020 C 
HETATM   15  C34 BCR B 620     -41.980 145.832  10.573  1.00 35.43     0.048 C 
HETATM   16  C12 BCR B 620     -41.772 141.551  10.451  1.00 29.25     0.007 C 
HETATM   17  C13 BCR B 620     -40.865 140.679   9.715  1.00 26.81    -0.062 C 
HETATM   18  C14 BCR B 620     -40.991 139.317   9.867  1.00 28.71     0.007 C 
HETATM   19  C15 BCR B 620     -40.082 138.306   9.248  1.00 30.34     0.001 C 
HETATM   20  C16 BCR B 620     -40.249 136.995   9.499  1.00 27.99     0.001 C 
HETATM   21  C17 BCR B 620     -39.371 136.031   8.949  1.00 26.90     0.007 C 
HETATM   22  C18 BCR B 620     -39.432 134.690   9.152  1.00 28.89    -0.062 C 
HETATM   23  C19 BCR B 620     -38.373 133.832   8.546  1.00 22.77     0.007 C 
HETATM   24  C20 BCR B 620     -38.340 132.484   8.580  1.00 22.75     0.001 C 
HETATM   25  C21 BCR B 620     -37.240 131.780   7.951  1.00 23.82     0.007 C 
HETATM   26  C22 BCR B 620     -37.139 130.431   7.888  1.00 27.13    -0.062 C 
HETATM   27  C23 BCR B 620     -35.880 129.913   7.232  1.00 29.91     0.007 C 
HETATM   28  C24 BCR B 620     -35.525 128.614   7.198  1.00 28.77     0.009 C 
HETATM   29  C25 BCR B 620     -34.307 128.144   6.521  1.00 30.94    -0.048 C 
HETATM   30  C26 BCR B 620     -33.102 128.667   6.794  1.00 34.73    -0.077 C 
HETATM   31  C27 BCR B 620     -31.785 128.236   6.140  1.00 33.71     0.034 C 
HETATM   32  C28 BCR B 620     -32.034 127.497   4.826  1.00 33.02     0.005 C 
HETATM   33  C29 BCR B 620     -33.094 126.507   5.061  1.00 35.61     0.014 C 
HETATM   34  C30 BCR B 620     -34.467 127.085   5.457  1.00 35.27    -0.020 C 
HETATM   35  C35 BCR B 620     -39.820 141.286   8.843  1.00 27.35     0.048 C 
HETATM   36  C36 BCR B 620     -40.478 134.098  10.009  1.00 25.88     0.048 C 
HETATM   37  C37 BCR B 620     -38.170 129.504   8.547  1.00 25.34     0.048 C 
HETATM   38  C38 BCR B 620     -32.927 129.655   7.891  1.00 34.43     0.044 C 
HETATM   39  C39 BCR B 620     -35.327 125.914   5.980  1.00 41.91     0.020 C 
HETATM   40  C40 BCR B 620     -35.163 127.739   4.240  1.00 32.72     0.020 C 
ENDROOT
TORSDOF 10
