REMARK VINA RESULT:   -10.942      0.000      0.000
REMARK INTER + INTRA:         -11.223
REMARK INTER:                 -10.942
REMARK INTRA:                  -0.281
REMARK UNBOUND:                -0.281
REMARK  0 active torsions:
REMARK  status: ('A' for Active; 'I' for Inactive)
REMARK       I    between atoms: C6_6  and  C7_7 
REMARK       I    between atoms: C8_8  and  C9_9 
REMARK       I    between atoms: C10_10  and  C11_11 
REMARK       I    between atoms: C12_16  and  C13_17 
REMARK       I    between atoms: C14_18  and  C15_19 
REMARK       I    between atoms: C16_20  and  C17_21 
REMARK       I    between atoms: C18_22  and  C19_23 
REMARK       I    between atoms: C20_24  and  C21_25 
REMARK       I    between atoms: C22_26  and  C23_27 
REMARK       I    between atoms: C24_28  and  C25_29 
ROOT
HETATM    1  C1  BCR F 101     -49.848 146.351   9.462  1.00 41.36    -0.020 C 
HETATM    2  C2  BCR F 101     -51.190 146.568  10.140  1.00 46.22     0.014 C 
HETATM    3  C3  BCR F 101     -52.173 145.487   9.816  1.00 40.40     0.005 C 
HETATM    4  C4  BCR F 101     -51.618 144.149  10.211  1.00 37.04     0.034 C 
HETATM    5  C5  BCR F 101     -50.293 143.925   9.586  1.00 43.37    -0.077 C 
HETATM    6  C6  BCR F 101     -49.477 144.927   9.256  1.00 36.67    -0.048 C 
HETATM    7  C7  BCR F 101     -48.186 144.711   8.632  1.00 37.51     0.009 C 
HETATM    8  C8  BCR F 101     -47.220 144.085   9.287  1.00 40.99     0.007 C 
HETATM    9  C9  BCR F 101     -45.972 143.737   8.648  1.00 37.99    -0.062 C 
HETATM   10  C10 BCR F 101     -45.199 142.819   9.242  1.00 32.67     0.007 C 
HETATM   11  C11 BCR F 101     -43.911 142.354   8.766  1.00 30.31     0.001 C 
HETATM   12  C33 BCR F 101     -49.961 142.484   9.336  1.00 36.33     0.044 C 
HETATM   13  C31 BCR F 101     -48.814 147.049  10.300  1.00 51.06     0.020 C 
HETATM   14  C32 BCR F 101     -49.875 147.093   8.139  1.00 43.35     0.020 C 
HETATM   15  C34 BCR F 101     -45.774 144.234   7.269  1.00 39.55     0.048 C 
HETATM   16  C12 BCR F 101     -43.298 141.357   9.431  1.00 29.21     0.007 C 
HETATM   17  C13 BCR F 101     -42.079 140.734   8.970  1.00 31.53    -0.062 C 
HETATM   18  C14 BCR F 101     -41.739 139.543   9.478  1.00 36.47     0.007 C 
HETATM   19  C15 BCR F 101     -40.481 138.861   9.253  1.00 33.10     0.001 C 
HETATM   20  C16 BCR F 101     -40.182 137.761   9.982  1.00 33.82     0.001 C 
HETATM   21  C17 BCR F 101     -39.116 136.879   9.539  1.00 36.91     0.007 C 
HETATM   22  C18 BCR F 101     -38.745 135.687  10.045  1.00 32.34    -0.062 C 
HETATM   23  C19 BCR F 101     -37.685 134.964   9.369  1.00 30.12     0.007 C 
HETATM   24  C20 BCR F 101     -37.257 133.759   9.764  1.00 37.50     0.001 C 
HETATM   25  C21 BCR F 101     -36.457 132.930   8.883  1.00 38.83     0.007 C 
HETATM   26  C22 BCR F 101     -35.763 131.833   9.250  1.00 38.49    -0.062 C 
HETATM   27  C23 BCR F 101     -34.823 131.245   8.323  1.00 39.36     0.007 C 
HETATM   28  C24 BCR F 101     -33.933 130.322   8.711  1.00 56.86     0.009 C 
HETATM   29  C25 BCR F 101     -33.212 129.424   7.813  1.00 57.44    -0.048 C 
HETATM   30  C26 BCR F 101     -33.460 128.119   7.811  1.00 61.92    -0.077 C 
HETATM   31  C27 BCR F 101     -32.799 127.154   6.930  1.00 63.69     0.034 C 
HETATM   32  C28 BCR F 101     -32.440 127.860   5.654  1.00 63.72     0.005 C 
HETATM   33  C29 BCR F 101     -31.520 128.989   6.009  1.00 59.25     0.014 C 
HETATM   34  C30 BCR F 101     -32.163 130.014   6.921  1.00 65.60    -0.020 C 
HETATM   35  C35 BCR F 101     -41.495 141.196   7.689  1.00 33.23     0.048 C 
HETATM   36  C36 BCR F 101     -39.469 134.977  11.112  1.00 21.57     0.048 C 
HETATM   37  C37 BCR F 101     -36.098 131.044  10.442  1.00 27.86     0.048 C 
HETATM   38  C38 BCR F 101     -34.464 127.482   8.685  1.00 68.49     0.044 C 
HETATM   39  C39 BCR F 101     -32.713 131.167   6.101  1.00 75.29     0.020 C 
HETATM   40  C40 BCR F 101     -31.009 130.573   7.749  1.00 67.84     0.020 C 
ENDROOT
TORSDOF 10
