REMARK VINA RESULT:    -4.984      0.775     16.081
REMARK INTER + INTRA:          -8.898
REMARK INTER:                  -5.552
REMARK INTRA:                  -3.346
REMARK UNBOUND:                -3.915
REMARK  0 active torsions:
REMARK  status: ('A' for Active; 'I' for Inactive)
REMARK       I    between atoms: C6_6  and  C7_7 
REMARK       I    between atoms: C8_8  and  C9_9 
REMARK       I    between atoms: C10_10  and  C11_11 
REMARK       I    between atoms: C12_16  and  C13_17 
REMARK       I    between atoms: C14_18  and  C15_19 
REMARK       I    between atoms: C16_20  and  C17_21 
REMARK       I    between atoms: C18_22  and  C19_23 
REMARK       I    between atoms: C20_24  and  C21_25 
REMARK       I    between atoms: C22_26  and  C23_27 
REMARK       I    between atoms: C24_28  and  C25_29 
ROOT
HETATM    1  C1  BCR D 404     -50.558 146.983   8.803  1.00 29.33    -0.020 C 
HETATM    2  C2  BCR D 404     -52.063 147.110   8.806  1.00 25.95     0.014 C 
HETATM    3  C3  BCR D 404     -52.600 146.438  10.049  1.00 26.55     0.005 C 
HETATM    4  C4  BCR D 404     -52.405 144.949   9.891  1.00 23.72     0.034 C 
HETATM    5  C5  BCR D 404     -50.981 144.657   9.503  1.00 25.63    -0.077 C 
HETATM    6  C6  BCR D 404     -50.189 145.526   8.868  1.00 23.11    -0.048 C 
HETATM    7  C7  BCR D 404     -48.956 145.017   8.225  1.00 27.25     0.009 C 
HETATM    8  C8  BCR D 404     -47.745 144.908   8.805  1.00 31.75     0.007 C 
HETATM    9  C9  BCR D 404     -46.614 144.323   8.043  1.00 30.45    -0.062 C 
HETATM   10  C10 BCR D 404     -45.660 143.618   8.684  1.00 28.92     0.007 C 
HETATM   11  C11 BCR D 404     -44.522 142.953   8.030  1.00 28.53     0.001 C 
HETATM   12  C33 BCR D 404     -50.487 143.292   9.853  1.00 27.97     0.044 C 
HETATM   13  C31 BCR D 404     -50.003 147.716  10.006  1.00 31.59     0.020 C 
HETATM   14  C32 BCR D 404     -49.983 147.601   7.542  1.00 33.86     0.020 C 
HETATM   15  C34 BCR D 404     -46.539 144.506   6.562  1.00 24.62     0.048 C 
HETATM   16  C12 BCR D 404     -43.723 142.173   8.779  1.00 31.92     0.007 C 
HETATM   17  C13 BCR D 404     -42.572 141.360   8.304  1.00 28.09    -0.062 C 
HETATM   18  C14 BCR D 404     -41.946 140.521   9.155  1.00 31.13     0.007 C 
HETATM   19  C15 BCR D 404     -40.852 139.633   8.728  1.00 33.62     0.001 C 
HETATM   20  C16 BCR D 404     -40.522 138.577   9.482  1.00 32.82     0.001 C 
HETATM   21  C17 BCR D 404     -39.505 137.599   9.077  1.00 36.56     0.007 C 
HETATM   22  C18 BCR D 404     -39.090 136.586   9.866  1.00 38.25    -0.062 C 
HETATM   23  C19 BCR D 404     -38.122 135.597   9.342  1.00 39.93     0.007 C 
HETATM   24  C20 BCR D 404     -37.533 134.618  10.030  1.00 37.81     0.001 C 
HETATM   25  C21 BCR D 404     -36.669 133.735   9.243  1.00 37.37     0.007 C 
HETATM   26  C22 BCR D 404     -36.044 132.638   9.699  1.00 39.01    -0.062 C 
HETATM   27  C23 BCR D 404     -35.266 131.832   8.739  1.00 44.21     0.007 C 
HETATM   28  C24 BCR D 404     -35.295 130.507   8.876  1.00 45.60     0.009 C 
HETATM   29  C25 BCR D 404     -34.610 129.560   7.969  1.00 49.42    -0.048 C 
HETATM   30  C26 BCR D 404     -35.065 129.406   6.730  1.00 50.69    -0.077 C 
HETATM   31  C27 BCR D 404     -34.146 129.085   5.576  1.00 48.97     0.034 C 
HETATM   32  C28 BCR D 404     -32.931 128.299   6.052  1.00 45.61     0.005 C 
HETATM   33  C29 BCR D 404     -33.193 127.638   7.394  1.00 44.72     0.014 C 
HETATM   34  C30 BCR D 404     -33.462 128.708   8.433  1.00 44.79    -0.020 C 
HETATM   35  C35 BCR D 404     -42.119 141.425   6.883  1.00 26.94     0.048 C 
HETATM   36  C36 BCR D 404     -39.642 136.429  11.245  1.00 35.64     0.048 C 
HETATM   37  C37 BCR D 404     -36.146 132.223  11.132  1.00 34.59     0.048 C 
HETATM   38  C38 BCR D 404     -36.536 129.503   6.476  1.00 46.70     0.044 C 
HETATM   39  C39 BCR D 404     -32.245 129.595   8.587  1.00 50.31     0.020 C 
HETATM   40  C40 BCR D 404     -33.842 128.053   9.750  1.00 44.71     0.020 C 
ENDROOT
TORSDOF 10
