REMARK VINA RESULT:    -6.480      2.010     16.411
REMARK INTER + INTRA:         -13.458
REMARK INTER:                 -11.286
REMARK INTRA:                  -2.172
REMARK UNBOUND:                -6.978
REMARK  0 active torsions:
REMARK  status: ('A' for Active; 'I' for Inactive)
REMARK       I    between atoms: C6_6  and  C7_7 
REMARK       I    between atoms: C8_8  and  C9_9 
REMARK       I    between atoms: C10_10  and  C11_11 
REMARK       I    between atoms: C12_16  and  C13_17 
REMARK       I    between atoms: C14_18  and  C15_19 
REMARK       I    between atoms: C16_20  and  C17_21 
REMARK       I    between atoms: C18_22  and  C19_23 
REMARK       I    between atoms: C20_24  and  C21_25 
REMARK       I    between atoms: C22_26  and  C23_27 
REMARK       I    between atoms: C24_28  and  C25_29 
ROOT
HETATM    1  C1  BCR A 409     -50.587 146.004   8.978  1.00 15.04    -0.020 C 
HETATM    2  C2  BCR A 409     -51.613 146.846   9.719  1.00 15.03     0.014 C 
HETATM    3  C3  BCR A 409     -51.292 146.943  11.178  1.00 15.05     0.005 C 
HETATM    4  C4  BCR A 409     -49.959 147.612  11.354  1.00 15.05     0.034 C 
HETATM    5  C5  BCR A 409     -48.922 146.981  10.509  1.00 15.05    -0.077 C 
HETATM    6  C6  BCR A 409     -49.173 146.224   9.430  1.00 15.04    -0.048 C 
HETATM    7  C7  BCR A 409     -48.093 145.627   8.625  1.00 15.04     0.009 C 
HETATM    8  C8  BCR A 409     -47.480 144.471   8.928  1.00 15.04     0.007 C 
HETATM    9  C9  BCR A 409     -46.356 143.904   8.200  1.00 15.05    -0.062 C 
HETATM   10  C10 BCR A 409     -45.664 142.897   8.747  1.00 15.04     0.007 C 
HETATM   11  C11 BCR A 409     -44.513 142.254   8.153  1.00 15.04     0.001 C 
HETATM   12  C33 BCR A 409     -47.556 147.261  10.984  1.00 15.05     0.044 C 
HETATM   13  C31 BCR A 409     -50.757 146.370   7.520  1.00 15.03     0.020 C 
HETATM   14  C32 BCR A 409     -50.998 144.553   9.135  1.00 15.04     0.020 C 
HETATM   15  C34 BCR A 409     -46.213 144.230   6.770  1.00 15.07     0.048 C 
HETATM   16  C12 BCR A 409     -44.083 141.096   8.663  1.00 15.03     0.007 C 
HETATM   17  C13 BCR A 409     -43.030 140.271   8.116  1.00 15.02    -0.062 C 
HETATM   18  C14 BCR A 409     -42.731 139.114   8.723  1.00 15.00     0.007 C 
HETATM   19  C15 BCR A 409     -41.667 138.243   8.302  1.00 14.99     0.001 C 
HETATM   20  C16 BCR A 409     -41.242 137.272   9.115  1.00 14.98     0.001 C 
HETATM   21  C17 BCR A 409     -40.242 136.363   8.632  1.00 14.98     0.007 C 
HETATM   22  C18 BCR A 409     -39.844 135.223   9.208  1.00 14.98    -0.062 C 
HETATM   23  C19 BCR A 409     -38.893 134.404   8.491  1.00 14.98     0.007 C 
HETATM   24  C20 BCR A 409     -38.113 133.516   9.104  1.00 15.00     0.001 C 
HETATM   25  C21 BCR A 409     -37.356 132.563   8.326  1.00 14.99     0.007 C 
HETATM   26  C22 BCR A 409     -36.245 131.959   8.754  1.00 14.99    -0.062 C 
HETATM   27  C23 BCR A 409     -35.365 131.313   7.796  1.00 14.97     0.007 C 
HETATM   28  C24 BCR A 409     -34.461 130.403   8.177  1.00 14.93     0.009 C 
HETATM   29  C25 BCR A 409     -33.586 129.610   7.324  1.00 14.90    -0.048 C 
HETATM   30  C26 BCR A 409     -34.001 128.495   6.716  1.00 14.90    -0.077 C 
HETATM   31  C27 BCR A 409     -33.194 127.617   5.853  1.00 14.89     0.034 C 
HETATM   32  C28 BCR A 409     -31.957 128.312   5.353  1.00 14.90     0.005 C 
HETATM   33  C29 BCR A 409     -31.286 129.043   6.483  1.00 14.91     0.014 C 
HETATM   34  C30 BCR A 409     -32.164 130.066   7.189  1.00 14.90    -0.020 C 
HETATM   35  C35 BCR A 409     -42.401 140.615   6.829  1.00 15.02     0.048 C 
HETATM   36  C36 BCR A 409     -40.187 134.851  10.595  1.00 14.95     0.048 C 
HETATM   37  C37 BCR A 409     -36.016 131.725  10.191  1.00 15.00     0.048 C 
HETATM   38  C38 BCR A 409     -35.371 127.963   6.824  1.00 14.89     0.044 C 
HETATM   39  C39 BCR A 409     -32.065 131.413   6.496  1.00 14.93     0.020 C 
HETATM   40  C40 BCR A 409     -31.521 130.251   8.550  1.00 14.91     0.020 C 
ENDROOT
TORSDOF 10
