REMARK VINA RESULT:    -7.858      1.634     16.401
REMARK INTER + INTRA:         -10.665
REMARK INTER:                  -9.527
REMARK INTRA:                  -1.138
REMARK UNBOUND:                -2.807
REMARK  0 active torsions:
REMARK  status: ('A' for Active; 'I' for Inactive)
REMARK       I    between atoms: C6_6  and  C7_7 
REMARK       I    between atoms: C8_8  and  C9_9 
REMARK       I    between atoms: C10_10  and  C11_11 
REMARK       I    between atoms: C12_16  and  C13_17 
REMARK       I    between atoms: C14_18  and  C15_19 
REMARK       I    between atoms: C16_20  and  C17_21 
REMARK       I    between atoms: C18_22  and  C19_23 
REMARK       I    between atoms: C20_24  and  C21_25 
REMARK       I    between atoms: C22_26  and  C23_27 
REMARK       I    between atoms: C24_28  and  C25_29 
ROOT
HETATM    1  C1  BCR B 617     -50.885 146.545  10.367  1.00 41.49    -0.020 C 
HETATM    2  C2  BCR B 617     -51.186 147.898  10.992  1.00 45.09     0.014 C 
HETATM    3  C3  BCR B 617     -51.510 147.808  12.456  1.00 46.22     0.005 C 
HETATM    4  C4  BCR B 617     -50.409 147.095  13.187  1.00 43.15     0.034 C 
HETATM    5  C5  BCR B 617     -50.244 145.757  12.605  1.00 45.30    -0.077 C 
HETATM    6  C6  BCR B 617     -50.458 145.475  11.318  1.00 38.15    -0.048 C 
HETATM    7  C7  BCR B 617     -50.307 144.118  10.771  1.00 41.50     0.009 C 
HETATM    8  C8  BCR B 617     -49.145 143.643  10.287  1.00 33.63     0.007 C 
HETATM    9  C9  BCR B 617     -48.840 142.216  10.216  1.00 35.19    -0.062 C 
HETATM   10  C10 BCR B 617     -47.587 141.796  10.002  1.00 33.22     0.007 C 
HETATM   11  C11 BCR B 617     -47.237 140.549   9.341  1.00 24.33     0.001 C 
HETATM   12  C33 BCR B 617     -49.842 144.749  13.603  1.00 50.16     0.044 C 
HETATM   13  C31 BCR B 617     -49.823 146.766   9.307  1.00 49.85     0.020 C 
HETATM   14  C32 BCR B 617     -52.133 146.139   9.629  1.00 44.59     0.020 C 
HETATM   15  C34 BCR B 617     -49.980 141.286  10.039  1.00 35.95     0.048 C 
HETATM   16  C12 BCR B 617     -45.949 140.201   9.178  1.00 33.21     0.007 C 
HETATM   17  C13 BCR B 617     -45.470 138.865   8.855  1.00 33.12    -0.062 C 
HETATM   18  C14 BCR B 617     -44.177 138.721   8.507  1.00 31.10     0.007 C 
HETATM   19  C15 BCR B 617     -43.385 137.526   8.728  1.00 35.99     0.001 C 
HETATM   20  C16 BCR B 617     -42.164 137.369   8.178  1.00 30.49     0.001 C 
HETATM   21  C17 BCR B 617     -41.480 136.109   8.323  1.00 28.48     0.007 C 
HETATM   22  C18 BCR B 617     -40.160 135.850   8.169  1.00 29.63    -0.062 C 
HETATM   23  C19 BCR B 617     -39.721 134.471   8.252  1.00 31.91     0.007 C 
HETATM   24  C20 BCR B 617     -38.475 134.076   7.993  1.00 29.87     0.001 C 
HETATM   25  C21 BCR B 617     -38.176 132.661   8.020  1.00 34.48     0.007 C 
HETATM   26  C22 BCR B 617     -36.967 132.104   8.173  1.00 29.89    -0.062 C 
HETATM   27  C23 BCR B 617     -36.881 130.673   7.943  1.00 31.70     0.007 C 
HETATM   28  C24 BCR B 617     -35.779 129.961   8.139  1.00 26.71     0.009 C 
HETATM   29  C25 BCR B 617     -35.614 128.550   7.855  1.00 32.74    -0.048 C 
HETATM   30  C26 BCR B 617     -36.422 127.602   8.340  1.00 34.19    -0.077 C 
HETATM   31  C27 BCR B 617     -36.274 126.149   8.108  1.00 36.44     0.034 C 
HETATM   32  C28 BCR B 617     -35.410 125.850   6.907  1.00 33.65     0.005 C 
HETATM   33  C29 BCR B 617     -34.190 126.693   6.988  1.00 31.35     0.014 C 
HETATM   34  C30 BCR B 617     -34.435 128.188   7.021  1.00 33.77    -0.020 C 
HETATM   35  C35 BCR B 617     -46.435 137.740   8.688  1.00 35.31     0.048 C 
HETATM   36  C36 BCR B 617     -39.110 136.882   8.124  1.00 27.23     0.048 C 
HETATM   37  C37 BCR B 617     -35.781 132.887   8.629  1.00 28.60     0.048 C 
HETATM   38  C38 BCR B 617     -37.617 127.893   9.166  1.00 33.66     0.044 C 
HETATM   39  C39 BCR B 617     -34.551 128.802   5.640  1.00 31.39     0.020 C 
HETATM   40  C40 BCR B 617     -33.135 128.727   7.581  1.00 32.27     0.020 C 
ENDROOT
TORSDOF 10
