REMARK VINA RESULT:    -7.253      0.000      0.000
REMARK INTER + INTRA:         -11.123
REMARK INTER:                  -7.253
REMARK INTRA:                  -3.870
REMARK UNBOUND:                -3.870
REMARK  0 active torsions:
REMARK  status: ('A' for Active; 'I' for Inactive)
REMARK       I    between atoms: C6_6  and  C7_7 
REMARK       I    between atoms: C8_8  and  C9_9 
REMARK       I    between atoms: C10_10  and  C11_11 
REMARK       I    between atoms: C12_16  and  C13_17 
REMARK       I    between atoms: C14_18  and  C15_19 
REMARK       I    between atoms: C16_20  and  C17_21 
REMARK       I    between atoms: C18_22  and  C19_23 
REMARK       I    between atoms: C20_24  and  C21_25 
REMARK       I    between atoms: C22_26  and  C23_27 
REMARK       I    between atoms: C24_28  and  C25_29 
ROOT
HETATM    1  C1  BCR K 103     -34.431 127.158   5.758  1.00 56.77    -0.020 C 
HETATM    2  C2  BCR K 103     -33.795 126.330   4.662  1.00 45.87     0.014 C 
HETATM    3  C3  BCR K 103     -32.686 127.090   4.000  1.00 50.21     0.005 C 
HETATM    4  C4  BCR K 103     -31.593 127.351   4.997  1.00 55.76     0.034 C 
HETATM    5  C5  BCR K 103     -32.158 128.056   6.164  1.00 58.42    -0.077 C 
HETATM    6  C6  BCR K 103     -33.457 128.005   6.515  1.00 56.84    -0.048 C 
HETATM    7  C7  BCR K 103     -33.996 128.691   7.692  1.00 58.02     0.009 C 
HETATM    8  C8  BCR K 103     -34.111 130.016   7.756  1.00 55.60     0.007 C 
HETATM    9  C9  BCR K 103     -34.826 130.697   8.821  1.00 59.41    -0.062 C 
HETATM   10  C10 BCR K 103     -35.334 131.923   8.614  1.00 53.38     0.007 C 
HETATM   11  C11 BCR K 103     -36.298 132.550   9.482  1.00 50.51     0.001 C 
HETATM   12  C33 BCR K 103     -31.141 128.836   6.892  1.00 50.72     0.044 C 
HETATM   13  C31 BCR K 103     -35.142 126.194   6.696  1.00 56.63     0.020 C 
HETATM   14  C32 BCR K 103     -35.501 128.001   5.106  1.00 56.21     0.020 C 
HETATM   15  C34 BCR K 103     -34.839 130.063  10.152  1.00 55.47     0.048 C 
HETATM   16  C12 BCR K 103     -36.856 133.692   9.098  1.00 38.57     0.007 C 
HETATM   17  C13 BCR K 103     -37.846 134.406   9.856  1.00 36.45    -0.062 C 
HETATM   18  C14 BCR K 103     -38.318 135.532   9.305  1.00 45.53     0.007 C 
HETATM   19  C15 BCR K 103     -39.356 136.360   9.859  1.00 39.78     0.001 C 
HETATM   20  C16 BCR K 103     -39.793 137.398   9.134  1.00 43.24     0.001 C 
HETATM   21  C17 BCR K 103     -40.921 138.144   9.643  1.00 54.91     0.007 C 
HETATM   22  C18 BCR K 103     -41.512 139.218   9.092  1.00 49.76    -0.062 C 
HETATM   23  C19 BCR K 103     -42.423 139.999   9.933  1.00 46.29     0.007 C 
HETATM   24  C20 BCR K 103     -43.166 141.022   9.497  1.00 45.35     0.001 C 
HETATM   25  C21 BCR K 103     -44.285 141.506  10.288  1.00 43.82     0.007 C 
HETATM   26  C22 BCR K 103     -45.322 142.230   9.817  1.00 45.32    -0.062 C 
HETATM   27  C23 BCR K 103     -46.432 142.581  10.709  1.00 50.38     0.007 C 
HETATM   28  C24 BCR K 103     -47.433 143.415  10.403  1.00 43.89     0.009 C 
HETATM   29  C25 BCR K 103     -48.495 143.791  11.337  1.00 45.21    -0.048 C 
HETATM   30  C26 BCR K 103     -48.298 144.689  12.307  1.00 43.50    -0.077 C 
HETATM   31  C27 BCR K 103     -49.292 145.128  13.299  1.00 46.50     0.034 C 
HETATM   32  C28 BCR K 103     -50.697 144.874  12.824  1.00 48.43     0.005 C 
HETATM   33  C29 BCR K 103     -50.803 143.481  12.288  1.00 49.94     0.014 C 
HETATM   34  C30 BCR K 103     -49.843 143.159  11.161  1.00 40.03    -0.020 C 
HETATM   35  C35 BCR K 103     -37.933 134.166  11.312  1.00 51.19     0.048 C 
HETATM   36  C36 BCR K 103     -41.200 139.638   7.701  1.00 40.30     0.048 C 
HETATM   37  C37 BCR K 103     -45.499 142.391   8.358  1.00 47.05     0.048 C 
HETATM   38  C38 BCR K 103     -47.002 145.340  12.562  1.00 45.74     0.044 C 
HETATM   39  C39 BCR K 103     -50.403 143.624   9.848  1.00 41.11     0.020 C 
HETATM   40  C40 BCR K 103     -49.787 141.635  11.109  1.00 43.62     0.020 C 
ENDROOT
TORSDOF 10
