REMARK VINA RESULT:    -5.187      1.233      1.759
REMARK INTER + INTRA:          -9.467
REMARK INTER:                  -7.825
REMARK INTRA:                  -1.642
REMARK UNBOUND:                -4.280
REMARK  0 active torsions:
REMARK  status: ('A' for Active; 'I' for Inactive)
REMARK       I    between atoms: C6_6  and  C7_7 
REMARK       I    between atoms: C8_8  and  C9_9 
REMARK       I    between atoms: C10_10  and  C11_11 
REMARK       I    between atoms: C12_16  and  C13_17 
REMARK       I    between atoms: C14_18  and  C15_19 
REMARK       I    between atoms: C16_20  and  C17_21 
REMARK       I    between atoms: C18_22  and  C19_23 
REMARK       I    between atoms: C20_24  and  C21_25 
REMARK       I    between atoms: C22_26  and  C23_27 
REMARK       I    between atoms: C24_28  and  C25_29 
ROOT
HETATM    1  C1  BCR T 101     -34.129 129.045   7.546  1.00 41.70    -0.020 C 
HETATM    2  C2  BCR T 101     -33.092 127.982   7.204  1.00 42.78     0.014 C 
HETATM    3  C3  BCR T 101     -33.291 126.719   7.980  1.00 41.03     0.005 C 
HETATM    4  C4  BCR T 101     -34.643 126.142   7.696  1.00 43.70     0.034 C 
HETATM    5  C5  BCR T 101     -35.707 127.170   7.669  1.00 45.79    -0.077 C 
HETATM    6  C6  BCR T 101     -35.501 128.502   7.614  1.00 40.49    -0.048 C 
HETATM    7  C7  BCR T 101     -36.634 129.440   7.536  1.00 44.14     0.009 C 
HETATM    8  C8  BCR T 101     -36.740 130.614   8.166  1.00 36.42     0.007 C 
HETATM    9  C9  BCR T 101     -38.001 131.361   8.119  1.00 37.41    -0.062 C 
HETATM   10  C10 BCR T 101     -37.961 132.700   8.172  1.00 30.62     0.007 C 
HETATM   11  C11 BCR T 101     -39.063 133.595   7.968  1.00 28.97     0.001 C 
HETATM   12  C33 BCR T 101     -37.067 126.569   7.705  1.00 43.90     0.044 C 
HETATM   13  C31 BCR T 101     -33.986 130.069   6.439  1.00 32.30     0.020 C 
HETATM   14  C32 BCR T 101     -33.792 129.693   8.880  1.00 43.93     0.020 C 
HETATM   15  C34 BCR T 101     -39.247 130.639   7.750  1.00 35.44     0.048 C 
HETATM   16  C12 BCR T 101     -39.012 134.813   8.524  1.00 28.42     0.007 C 
HETATM   17  C13 BCR T 101     -40.121 135.766   8.576  1.00 29.67    -0.062 C 
HETATM   18  C14 BCR T 101     -39.866 137.091   8.732  1.00 27.65     0.007 C 
HETATM   19  C15 BCR T 101     -40.647 138.009   9.538  1.00 28.48     0.001 C 
HETATM   20  C16 BCR T 101     -40.769 139.304   9.199  1.00 25.66     0.001 C 
HETATM   21  C17 BCR T 101     -41.276 140.293  10.125  1.00 31.53     0.007 C 
HETATM   22  C18 BCR T 101     -41.179 141.630  10.005  1.00 35.11    -0.062 C 
HETATM   23  C19 BCR T 101     -42.249 142.459  10.556  1.00 31.55     0.007 C 
HETATM   24  C20 BCR T 101     -42.062 143.689  11.050  1.00 33.30     0.001 C 
HETATM   25  C21 BCR T 101     -43.139 144.400  11.717  1.00 34.76     0.007 C 
HETATM   26  C22 BCR T 101     -43.102 145.637  12.267  1.00 38.40    -0.062 C 
HETATM   27  C23 BCR T 101     -44.173 145.984  13.204  1.00 37.30     0.007 C 
HETATM   28  C24 BCR T 101     -44.400 147.206  13.690  1.00 34.14     0.009 C 
HETATM   29  C25 BCR T 101     -45.430 147.477  14.693  1.00 34.41    -0.048 C 
HETATM   30  C26 BCR T 101     -46.707 147.162  14.484  1.00 30.82    -0.077 C 
HETATM   31  C27 BCR T 101     -47.821 147.332  15.416  1.00 38.31     0.034 C 
HETATM   32  C28 BCR T 101     -47.333 147.530  16.823  1.00 33.34     0.005 C 
HETATM   33  C29 BCR T 101     -46.252 148.548  16.814  1.00 23.88     0.014 C 
HETATM   34  C30 BCR T 101     -45.031 148.136  15.973  1.00 29.76    -0.020 C 
HETATM   35  C35 BCR T 101     -41.496 135.233   8.667  1.00 34.50     0.048 C 
HETATM   36  C36 BCR T 101     -39.984 142.289   9.430  1.00 32.52     0.048 C 
HETATM   37  C37 BCR T 101     -42.273 146.730  11.705  1.00 33.52     0.048 C 
HETATM   38  C38 BCR T 101     -47.208 146.529  13.268  1.00 36.86     0.044 C 
HETATM   39  C39 BCR T 101     -44.055 147.284  16.764  1.00 35.69     0.020 C 
HETATM   40  C40 BCR T 101     -44.299 149.434  15.692  1.00 29.24     0.020 C 
ENDROOT
TORSDOF 10
