REMARK VINA RESULT:    -7.162      2.650      4.600
REMARK INTER + INTRA:         -13.904
REMARK INTER:                 -11.502
REMARK INTRA:                  -2.401
REMARK UNBOUND:                -6.741
REMARK  0 active torsions:
REMARK  status: ('A' for Active; 'I' for Inactive)
REMARK       I    between atoms: C6_6  and  C7_7 
REMARK       I    between atoms: C8_8  and  C9_9 
REMARK       I    between atoms: C10_10  and  C11_11 
REMARK       I    between atoms: C12_16  and  C13_17 
REMARK       I    between atoms: C14_18  and  C15_19 
REMARK       I    between atoms: C16_20  and  C17_21 
REMARK       I    between atoms: C18_22  and  C19_23 
REMARK       I    between atoms: C20_24  and  C21_25 
REMARK       I    between atoms: C22_26  and  C23_27 
REMARK       I    between atoms: C24_28  and  C25_29 
ROOT
HETATM    1  C1  BCR A 409     -33.996 126.894   6.774  1.00 29.94    -0.020 C 
HETATM    2  C2  BCR A 409     -33.142 126.081   5.795  1.00 30.88     0.014 C 
HETATM    3  C3  BCR A 409     -32.697 126.867   4.574  1.00 32.43     0.005 C 
HETATM    4  C4  BCR A 409     -31.828 128.016   5.067  1.00 29.61     0.034 C 
HETATM    5  C5  BCR A 409     -32.474 128.810   6.199  1.00 28.91    -0.077 C 
HETATM    6  C6  BCR A 409     -33.457 128.296   6.966  1.00 28.39    -0.048 C 
HETATM    7  C7  BCR A 409     -34.094 129.080   8.083  1.00 26.60     0.009 C 
HETATM    8  C8  BCR A 409     -34.744 130.244   7.834  1.00 26.69     0.007 C 
HETATM    9  C9  BCR A 409     -35.418 130.994   8.953  1.00 26.50    -0.062 C 
HETATM   10  C10 BCR A 409     -36.142 132.098   8.606  1.00 23.70     0.007 C 
HETATM   11  C11 BCR A 409     -36.881 132.988   9.521  1.00 23.45     0.001 C 
HETATM   12  C33 BCR A 409     -31.941 130.202   6.398  1.00 28.66     0.044 C 
HETATM   13  C31 BCR A 409     -33.973 126.141   8.114  1.00 29.02     0.020 C 
HETATM   14  C32 BCR A 409     -35.460 126.908   6.313  1.00 26.94     0.020 C 
HETATM   15  C34 BCR A 409     -35.300 130.470  10.373  1.00 25.47     0.048 C 
HETATM   16  C12 BCR A 409     -37.595 133.989   8.926  1.00 22.47     0.007 C 
HETATM   17  C13 BCR A 409     -38.399 134.968   9.675  1.00 24.00    -0.062 C 
HETATM   18  C14 BCR A 409     -39.181 135.838   9.010  1.00 23.35     0.007 C 
HETATM   19  C15 BCR A 409     -40.042 136.865   9.656  1.00 23.49     0.001 C 
HETATM   20  C16 BCR A 409     -40.687 137.793   8.905  1.00 21.92     0.001 C 
HETATM   21  C17 BCR A 409     -41.575 138.714   9.612  1.00 20.40     0.007 C 
HETATM   22  C18 BCR A 409     -42.439 139.609   9.074  1.00 24.23    -0.062 C 
HETATM   23  C19 BCR A 409     -43.308 140.416  10.023  1.00 21.16     0.007 C 
HETATM   24  C20 BCR A 409     -43.907 141.518   9.601  1.00 20.36     0.001 C 
HETATM   25  C21 BCR A 409     -44.692 142.375  10.472  1.00 21.69     0.007 C 
HETATM   26  C22 BCR A 409     -45.109 143.644  10.276  1.00 22.36    -0.062 C 
HETATM   27  C23 BCR A 409     -45.946 144.285  11.341  1.00 21.97     0.007 C 
HETATM   28  C24 BCR A 409     -46.311 145.578  11.292  1.00 20.30     0.009 C 
HETATM   29  C25 BCR A 409     -47.116 146.228  12.346  1.00 19.83    -0.048 C 
HETATM   30  C26 BCR A 409     -48.359 145.740  12.671  1.00 20.22    -0.077 C 
HETATM   31  C27 BCR A 409     -49.253 146.332  13.754  1.00 20.64     0.034 C 
HETATM   32  C28 BCR A 409     -48.402 147.191  14.701  1.00 22.68     0.005 C 
HETATM   33  C29 BCR A 409     -47.619 148.199  13.852  1.00 20.94     0.014 C 
HETATM   34  C30 BCR A 409     -46.545 147.473  13.007  1.00 20.28    -0.020 C 
HETATM   35  C35 BCR A 409     -38.285 135.002  11.181  1.00 25.40     0.048 C 
HETATM   36  C36 BCR A 409     -42.493 139.866   7.579  1.00 22.76     0.048 C 
HETATM   37  C37 BCR A 409     -44.809 144.473   9.057  1.00 25.07     0.048 C 
HETATM   38  C38 BCR A 409     -48.914 144.568  11.938  1.00 20.82     0.044 C 
HETATM   39  C39 BCR A 409     -45.395 147.014  13.893  1.00 22.71     0.020 C 
HETATM   40  C40 BCR A 409     -46.038 148.459  11.932  1.00 21.64     0.020 C 
ENDROOT
TORSDOF 10
