REMARK VINA RESULT:    -8.519      3.202      4.924
REMARK INTER + INTRA:         -14.876
REMARK INTER:                 -12.525
REMARK INTRA:                  -2.351
REMARK UNBOUND:                -6.358
REMARK  0 active torsions:
REMARK  status: ('A' for Active; 'I' for Inactive)
REMARK       I    between atoms: C6_6  and  C7_7 
REMARK       I    between atoms: C8_8  and  C9_9 
REMARK       I    between atoms: C10_10  and  C11_11 
REMARK       I    between atoms: C12_16  and  C13_17 
REMARK       I    between atoms: C14_18  and  C15_19 
REMARK       I    between atoms: C16_20  and  C17_21 
REMARK       I    between atoms: C18_22  and  C19_23 
REMARK       I    between atoms: C20_24  and  C21_25 
REMARK       I    between atoms: C22_26  and  C23_27 
REMARK       I    between atoms: C24_28  and  C25_29 
ROOT
HETATM    1  C1  BCR B 620     -43.960 148.407  14.473  1.00 59.21    -0.020 C 
HETATM    2  C2  BCR B 620     -44.829 148.999  15.578  1.00 51.24     0.014 C 
HETATM    3  C3  BCR B 620     -45.755 147.957  16.161  1.00 59.98     0.005 C 
HETATM    4  C4  BCR B 620     -46.705 147.528  15.062  1.00 63.95     0.034 C 
HETATM    5  C5  BCR B 620     -45.922 146.946  13.912  1.00 56.60    -0.077 C 
HETATM    6  C6  BCR B 620     -44.663 147.346  13.641  1.00 59.07    -0.048 C 
HETATM    7  C7  BCR B 620     -43.853 146.798  12.518  1.00 54.02     0.009 C 
HETATM    8  C8  BCR B 620     -43.641 145.491  12.327  1.00 65.68     0.007 C 
HETATM    9  C9  BCR B 620     -42.817 144.932  11.237  1.00 53.63    -0.062 C 
HETATM   10  C10 BCR B 620     -42.692 143.591  11.198  1.00 46.58     0.007 C 
HETATM   11  C11 BCR B 620     -41.884 142.822  10.250  1.00 41.79     0.001 C 
HETATM   12  C33 BCR B 620     -46.639 145.911  13.103  1.00 51.12     0.044 C 
HETATM   13  C31 BCR B 620     -42.689 147.836  15.113  1.00 43.92     0.020 C 
HETATM   14  C32 BCR B 620     -43.603 149.515  13.492  1.00 55.12     0.020 C 
HETATM   15  C34 BCR B 620     -42.141 145.835  10.247  1.00 45.21     0.048 C 
HETATM   16  C12 BCR B 620     -41.768 141.519  10.540  1.00 45.96     0.007 C 
HETATM   17  C13 BCR B 620     -40.949 140.567   9.767  1.00 40.88    -0.062 C 
HETATM   18  C14 BCR B 620     -41.145 139.235   9.878  1.00 41.01     0.007 C 
HETATM   19  C15 BCR B 620     -40.278 138.286   9.168  1.00 42.22     0.001 C 
HETATM   20  C16 BCR B 620     -40.230 137.005   9.574  1.00 44.26     0.001 C 
HETATM   21  C17 BCR B 620     -39.316 136.038   8.949  1.00 36.26     0.007 C 
HETATM   22  C18 BCR B 620     -39.407 134.704   9.073  1.00 40.60    -0.062 C 
HETATM   23  C19 BCR B 620     -38.368 133.862   8.422  1.00 46.29     0.007 C 
HETATM   24  C20 BCR B 620     -38.293 132.527   8.542  1.00 50.06     0.001 C 
HETATM   25  C21 BCR B 620     -37.193 131.814   7.878  1.00 37.91     0.007 C 
HETATM   26  C22 BCR B 620     -37.038 130.474   7.843  1.00 42.97    -0.062 C 
HETATM   27  C23 BCR B 620     -35.959 129.971   7.212  1.00 48.87     0.007 C 
HETATM   28  C24 BCR B 620     -35.519 128.705   7.370  1.00 45.55     0.009 C 
HETATM   29  C25 BCR B 620     -34.303 128.213   6.663  1.00 43.88    -0.048 C 
HETATM   30  C26 BCR B 620     -33.081 128.638   7.054  1.00 47.72    -0.077 C 
HETATM   31  C27 BCR B 620     -31.795 128.197   6.398  1.00 52.50     0.034 C 
HETATM   32  C28 BCR B 620     -32.068 127.746   4.979  1.00 49.92     0.005 C 
HETATM   33  C29 BCR B 620     -33.126 126.666   5.051  1.00 50.61     0.014 C 
HETATM   34  C30 BCR B 620     -34.464 127.233   5.518  1.00 54.77    -0.020 C 
HETATM   35  C35 BCR B 620     -39.868 141.125   8.881  1.00 35.11     0.048 C 
HETATM   36  C36 BCR B 620     -40.537 134.095   9.858  1.00 37.84     0.048 C 
HETATM   37  C37 BCR B 620     -38.038 129.550   8.484  1.00 32.11     0.048 C 
HETATM   38  C38 BCR B 620     -32.921 129.593   8.194  1.00 42.60     0.044 C 
HETATM   39  C39 BCR B 620     -35.342 126.060   5.966  1.00 50.58     0.020 C 
HETATM   40  C40 BCR B 620     -35.126 127.945   4.341  1.00 40.99     0.020 C 
ENDROOT
TORSDOF 10
