REMARK VINA RESULT:    -6.906      1.720     16.384
REMARK INTER + INTRA:         -13.695
REMARK INTER:                  -9.469
REMARK INTRA:                  -4.226
REMARK UNBOUND:                -6.789
REMARK  0 active torsions:
REMARK  status: ('A' for Active; 'I' for Inactive)
REMARK       I    between atoms: C6_6  and  C7_7 
REMARK       I    between atoms: C8_8  and  C9_9 
REMARK       I    between atoms: C10_10  and  C11_11 
REMARK       I    between atoms: C12_16  and  C13_17 
REMARK       I    between atoms: C14_18  and  C15_19 
REMARK       I    between atoms: C16_20  and  C17_21 
REMARK       I    between atoms: C18_22  and  C19_23 
REMARK       I    between atoms: C20_24  and  C21_25 
REMARK       I    between atoms: C22_26  and  C23_27 
REMARK       I    between atoms: C24_28  and  C25_29 
ROOT
HETATM    1  C1  BCR C 516     -48.102 147.433  10.043  1.00 30.02    -0.020 C 
HETATM    2  C2  BCR C 516     -48.452 148.801  10.588  1.00 30.87     0.014 C 
HETATM    3  C3  BCR C 516     -47.480 149.200  11.671  1.00 30.68     0.005 C 
HETATM    4  C4  BCR C 516     -46.060 149.290  11.159  1.00 31.80     0.034 C 
HETATM    5  C5  BCR C 516     -45.764 148.230  10.138  1.00 32.46    -0.077 C 
HETATM    6  C6  BCR C 516     -46.640 147.307   9.776  1.00 30.66    -0.048 C 
HETATM    7  C7  BCR C 516     -46.203 146.127   9.028  1.00 30.01     0.009 C 
HETATM    8  C8  BCR C 516     -45.532 145.144   9.596  1.00 34.00     0.007 C 
HETATM    9  C9  BCR C 516     -45.128 144.008   8.764  1.00 33.37    -0.062 C 
HETATM   10  C10 BCR C 516     -44.125 143.241   9.175  1.00 32.41     0.007 C 
HETATM   11  C11 BCR C 516     -43.637 142.095   8.425  1.00 36.14     0.001 C 
HETATM   12  C33 BCR C 516     -44.414 148.262   9.502  1.00 28.57     0.044 C 
HETATM   13  C31 BCR C 516     -48.831 147.177   8.738  1.00 26.76     0.020 C 
HETATM   14  C32 BCR C 516     -48.483 146.356  11.036  1.00 31.67     0.020 C 
HETATM   15  C34 BCR C 516     -45.847 143.741   7.477  1.00 31.81     0.048 C 
HETATM   16  C12 BCR C 516     -42.651 141.424   8.993  1.00 35.77     0.007 C 
HETATM   17  C13 BCR C 516     -41.997 140.245   8.417  1.00 38.22    -0.062 C 
HETATM   18  C14 BCR C 516     -41.307 139.445   9.253  1.00 37.80     0.007 C 
HETATM   19  C15 BCR C 516     -40.598 138.251   8.802  1.00 32.13     0.001 C 
HETATM   20  C16 BCR C 516     -40.230 137.278   9.632  1.00 37.10     0.001 C 
HETATM   21  C17 BCR C 516     -39.512 136.146   9.058  1.00 38.20     0.007 C 
HETATM   22  C18 BCR C 516     -38.831 135.242   9.766  1.00 31.50    -0.062 C 
HETATM   23  C19 BCR C 516     -38.144 134.186   9.021  1.00 25.76     0.007 C 
HETATM   24  C20 BCR C 516     -37.456 133.186   9.544  1.00 25.99     0.001 C 
HETATM   25  C21 BCR C 516     -36.864 132.312   8.552  1.00 30.28     0.007 C 
HETATM   26  C22 BCR C 516     -36.040 131.309   8.814  1.00 28.61    -0.062 C 
HETATM   27  C23 BCR C 516     -35.504 130.532   7.694  1.00 24.47     0.007 C 
HETATM   28  C24 BCR C 516     -34.465 129.733   7.892  1.00 23.15     0.009 C 
HETATM   29  C25 BCR C 516     -33.821 128.914   6.854  1.00 23.34    -0.048 C 
HETATM   30  C26 BCR C 516     -34.462 127.972   6.157  1.00 21.26    -0.077 C 
HETATM   31  C27 BCR C 516     -33.780 127.161   5.094  1.00 23.10     0.034 C 
HETATM   32  C28 BCR C 516     -32.567 127.887   4.570  1.00 24.68     0.005 C 
HETATM   33  C29 BCR C 516     -31.659 128.243   5.717  1.00 25.94     0.014 C 
HETATM   34  C30 BCR C 516     -32.356 129.198   6.671  1.00 23.98    -0.020 C 
HETATM   35  C35 BCR C 516     -42.095 139.968   6.949  1.00 31.22     0.048 C 
HETATM   36  C36 BCR C 516     -38.750 135.326  11.251  1.00 33.32     0.048 C 
HETATM   37  C37 BCR C 516     -35.656 130.972  10.219  1.00 23.79     0.048 C 
HETATM   38  C38 BCR C 516     -35.902 127.642   6.393  1.00 23.96     0.044 C 
HETATM   39  C39 BCR C 516     -32.222 130.613   6.145  1.00 22.89     0.020 C 
HETATM   40  C40 BCR C 516     -31.699 129.129   8.035  1.00 22.73     0.020 C 
ENDROOT
TORSDOF 10
