REMARK VINA RESULT:    -8.754      0.000      0.000
REMARK INTER + INTRA:         -12.296
REMARK INTER:                  -8.754
REMARK INTRA:                  -3.542
REMARK UNBOUND:                -3.542
REMARK  0 active torsions:
REMARK  status: ('A' for Active; 'I' for Inactive)
REMARK       I    between atoms: C6_6  and  C7_7 
REMARK       I    between atoms: C8_8  and  C9_9 
REMARK       I    between atoms: C10_10  and  C11_11 
REMARK       I    between atoms: C12_16  and  C13_17 
REMARK       I    between atoms: C14_18  and  C15_19 
REMARK       I    between atoms: C16_20  and  C17_21 
REMARK       I    between atoms: C18_22  and  C19_23 
REMARK       I    between atoms: C20_24  and  C21_25 
REMARK       I    between atoms: C22_26  and  C23_27 
REMARK       I    between atoms: C24_28  and  C25_29 
ROOT
HETATM    1  C1  BCR C 515     -37.196 127.703   8.828  1.00 39.71    -0.020 C 
HETATM    2  C2  BCR C 515     -36.237 126.530   8.862  1.00 40.37     0.014 C 
HETATM    3  C3  BCR C 515     -34.815 127.026   8.973  1.00 43.17     0.005 C 
HETATM    4  C4  BCR C 515     -34.485 127.792   7.712  1.00 48.98     0.034 C 
HETATM    5  C5  BCR C 515     -35.449 128.937   7.543  1.00 42.59    -0.077 C 
HETATM    6  C6  BCR C 515     -36.698 128.871   8.006  1.00 38.03    -0.048 C 
HETATM    7  C7  BCR C 515     -37.656 129.952   7.700  1.00 39.13     0.009 C 
HETATM    8  C8  BCR C 515     -37.665 131.163   8.254  1.00 40.01     0.007 C 
HETATM    9  C9  BCR C 515     -38.683 132.151   7.848  1.00 48.45    -0.062 C 
HETATM   10  C10 BCR C 515     -38.664 133.381   8.370  1.00 46.14     0.007 C 
HETATM   11  C11 BCR C 515     -39.644 134.400   8.004  1.00 42.52     0.001 C 
HETATM   12  C33 BCR C 515     -34.951 130.151   6.821  1.00 41.43     0.044 C 
HETATM   13  C31 BCR C 515     -37.439 128.169  10.249  1.00 36.91     0.020 C 
HETATM   14  C32 BCR C 515     -38.511 127.226   8.241  1.00 47.25     0.020 C 
HETATM   15  C34 BCR C 515     -39.756 131.780   6.868  1.00 41.23     0.048 C 
HETATM   16  C12 BCR C 515     -39.775 135.465   8.787  1.00 42.82     0.007 C 
HETATM   17  C13 BCR C 515     -40.706 136.576   8.511  1.00 44.74    -0.062 C 
HETATM   18  C14 BCR C 515     -40.475 137.737   9.133  1.00 43.56     0.007 C 
HETATM   19  C15 BCR C 515     -41.293 138.920   8.932  1.00 39.26     0.001 C 
HETATM   20  C16 BCR C 515     -40.982 140.030   9.590  1.00 40.16     0.001 C 
HETATM   21  C17 BCR C 515     -41.771 141.232   9.376  1.00 42.34     0.007 C 
HETATM   22  C18 BCR C 515     -41.657 142.327  10.132  1.00 44.22    -0.062 C 
HETATM   23  C19 BCR C 515     -42.504 143.479   9.788  1.00 48.96     0.007 C 
HETATM   24  C20 BCR C 515     -42.588 144.579  10.521  1.00 51.51     0.001 C 
HETATM   25  C21 BCR C 515     -43.471 145.612  10.006  1.00 48.83     0.007 C 
HETATM   26  C22 BCR C 515     -43.819 146.684  10.715  1.00 46.78    -0.062 C 
HETATM   27  C23 BCR C 515     -44.712 147.659  10.081  1.00 46.17     0.007 C 
HETATM   28  C24 BCR C 515     -44.866 148.884  10.565  1.00 45.08     0.009 C 
HETATM   29  C25 BCR C 515     -45.755 149.864   9.914  1.00 45.02    -0.048 C 
HETATM   30  C26 BCR C 515     -45.406 150.418   8.753  1.00 46.86    -0.077 C 
HETATM   31  C27 BCR C 515     -46.323 151.341   7.989  1.00 50.72     0.034 C 
HETATM   32  C28 BCR C 515     -47.755 151.135   8.426  1.00 55.86     0.005 C 
HETATM   33  C29 BCR C 515     -47.798 151.334   9.924  1.00 52.85     0.014 C 
HETATM   34  C30 BCR C 515     -47.034 150.222  10.622  1.00 52.22    -0.020 C 
HETATM   35  C35 BCR C 515     -41.862 136.431   7.567  1.00 45.43     0.048 C 
HETATM   36  C36 BCR C 515     -40.695 142.388  11.277  1.00 42.28     0.048 C 
HETATM   37  C37 BCR C 515     -43.315 146.877  12.108  1.00 46.03     0.048 C 
HETATM   38  C38 BCR C 515     -44.059 150.149   8.151  1.00 45.04     0.044 C 
HETATM   39  C39 BCR C 515     -47.907 148.980  10.690  1.00 52.25     0.020 C 
HETATM   40  C40 BCR C 515     -46.665 150.674  12.021  1.00 47.46     0.020 C 
ENDROOT
TORSDOF 10
