REMARK VINA RESULT:    -7.294      1.527     16.507
REMARK INTER + INTRA:         -10.170
REMARK INTER:                  -7.670
REMARK INTRA:                  -2.500
REMARK UNBOUND:                -2.876
REMARK  0 active torsions:
REMARK  status: ('A' for Active; 'I' for Inactive)
REMARK       I    between atoms: C6_6  and  C7_7 
REMARK       I    between atoms: C8_8  and  C9_9 
REMARK       I    between atoms: C10_10  and  C11_11 
REMARK       I    between atoms: C12_16  and  C13_17 
REMARK       I    between atoms: C14_18  and  C15_19 
REMARK       I    between atoms: C16_20  and  C17_21 
REMARK       I    between atoms: C18_22  and  C19_23 
REMARK       I    between atoms: C20_24  and  C21_25 
REMARK       I    between atoms: C22_26  and  C23_27 
REMARK       I    between atoms: C24_28  and  C25_29 
ROOT
HETATM    1  C1  BCR B 618     -50.068 148.888   9.128  1.00 29.97    -0.020 C 
HETATM    2  C2  BCR B 618     -51.306 149.721   9.493  1.00 30.11     0.014 C 
HETATM    3  C3  BCR B 618     -52.200 149.112  10.581  1.00 28.88     0.005 C 
HETATM    4  C4  BCR B 618     -52.600 147.671  10.323  1.00 28.77     0.034 C 
HETATM    5  C5  BCR B 618     -51.571 146.895   9.522  1.00 28.24    -0.077 C 
HETATM    6  C6  BCR B 618     -50.453 147.440   8.972  1.00 26.72    -0.048 C 
HETATM    7  C7  BCR B 618     -49.539 146.554   8.217  1.00 26.16     0.009 C 
HETATM    8  C8  BCR B 618     -48.438 146.002   8.750  1.00 23.90     0.007 C 
HETATM    9  C9  BCR B 618     -47.580 145.097   7.923  1.00 22.06    -0.062 C 
HETATM   10  C10 BCR B 618     -46.621 144.366   8.524  1.00 23.67     0.007 C 
HETATM   11  C11 BCR B 618     -45.734 143.395   7.887  1.00 23.73     0.001 C 
HETATM   12  C33 BCR B 618     -51.912 145.449   9.329  1.00 30.53     0.044 C 
HETATM   13  C31 BCR B 618     -48.940 148.995  10.175  1.00 30.85     0.020 C 
HETATM   14  C32 BCR B 618     -49.554 149.489   7.801  1.00 30.08     0.020 C 
HETATM   15  C34 BCR B 618     -47.751 145.029   6.425  1.00 25.71     0.048 C 
HETATM   16  C12 BCR B 618     -44.758 142.845   8.657  1.00 24.44     0.007 C 
HETATM   17  C13 BCR B 618     -43.843 141.795   8.163  1.00 23.39    -0.062 C 
HETATM   18  C14 BCR B 618     -42.963 141.212   9.068  1.00 20.98     0.007 C 
HETATM   19  C15 BCR B 618     -42.120 140.068   8.671  1.00 21.06     0.001 C 
HETATM   20  C16 BCR B 618     -41.402 139.427   9.619  1.00 22.19     0.001 C 
HETATM   21  C17 BCR B 618     -40.576 138.268   9.255  1.00 21.58     0.007 C 
HETATM   22  C18 BCR B 618     -39.873 137.477  10.130  1.00 20.96    -0.062 C 
HETATM   23  C19 BCR B 618     -39.085 136.364   9.572  1.00 19.82     0.007 C 
HETATM   24  C20 BCR B 618     -38.380 135.436  10.293  1.00 20.56     0.001 C 
HETATM   25  C21 BCR B 618     -37.617 134.436   9.512  1.00 20.57     0.007 C 
HETATM   26  C22 BCR B 618     -37.016 133.338  10.053  1.00 19.60    -0.062 C 
HETATM   27  C23 BCR B 618     -36.278 132.445   9.151  1.00 22.92     0.007 C 
HETATM   28  C24 BCR B 618     -35.499 131.438   9.599  1.00 24.17     0.009 C 
HETATM   29  C25 BCR B 618     -34.723 130.518   8.699  1.00 26.94    -0.048 C 
HETATM   30  C26 BCR B 618     -35.169 129.971   7.533  1.00 28.75    -0.077 C 
HETATM   31  C27 BCR B 618     -34.325 129.026   6.655  1.00 30.75     0.034 C 
HETATM   32  C28 BCR B 618     -33.064 128.503   7.350  1.00 33.35     0.005 C 
HETATM   33  C29 BCR B 618     -32.393 129.585   8.192  1.00 31.28     0.014 C 
HETATM   34  C30 BCR B 618     -33.329 130.197   9.250  1.00 29.59    -0.020 C 
HETATM   35  C35 BCR B 618     -43.981 141.406   6.710  1.00 23.27     0.048 C 
HETATM   36  C36 BCR B 618     -39.843 137.730  11.592  1.00 21.00     0.048 C 
HETATM   37  C37 BCR B 618     -37.142 133.034  11.547  1.00 20.72     0.048 C 
HETATM   38  C38 BCR B 618     -36.527 130.242   6.936  1.00 30.08     0.044 C 
HETATM   39  C39 BCR B 618     -32.650 131.490   9.712  1.00 28.53     0.020 C 
HETATM   40  C40 BCR B 618     -33.513 129.244  10.426  1.00 29.57     0.020 C 
ENDROOT
TORSDOF 10
