REMARK VINA RESULT:    -6.607      2.207      4.116
REMARK INTER + INTRA:         -10.148
REMARK INTER:                  -5.883
REMARK INTRA:                  -4.265
REMARK UNBOUND:                -3.542
REMARK  0 active torsions:
REMARK  status: ('A' for Active; 'I' for Inactive)
REMARK       I    between atoms: C6_6  and  C7_7 
REMARK       I    between atoms: C8_8  and  C9_9 
REMARK       I    between atoms: C10_10  and  C11_11 
REMARK       I    between atoms: C12_16  and  C13_17 
REMARK       I    between atoms: C14_18  and  C15_19 
REMARK       I    between atoms: C16_20  and  C17_21 
REMARK       I    between atoms: C18_22  and  C19_23 
REMARK       I    between atoms: C20_24  and  C21_25 
REMARK       I    between atoms: C22_26  and  C23_27 
REMARK       I    between atoms: C24_28  and  C25_29 
ROOT
HETATM    1  C1  BCR C 515     -32.444 129.207   6.947  1.00 39.71    -0.020 C 
HETATM    2  C2  BCR C 515     -31.784 128.103   6.146  1.00 40.37     0.014 C 
HETATM    3  C3  BCR C 515     -32.596 127.803   4.909  1.00 43.17     0.005 C 
HETATM    4  C4  BCR C 515     -33.934 127.252   5.346  1.00 48.98     0.034 C 
HETATM    5  C5  BCR C 515     -34.635 128.253   6.228  1.00 42.59    -0.077 C 
HETATM    6  C6  BCR C 515     -33.953 129.105   6.994  1.00 38.03    -0.048 C 
HETATM    7  C7  BCR C 515     -34.669 129.974   7.949  1.00 39.13     0.009 C 
HETATM    8  C8  BCR C 515     -35.385 131.051   7.634  1.00 40.01     0.007 C 
HETATM    9  C9  BCR C 515     -36.055 131.828   8.695  1.00 48.45    -0.062 C 
HETATM   10  C10 BCR C 515     -36.811 132.882   8.374  1.00 46.14     0.007 C 
HETATM   11  C11 BCR C 515     -37.499 133.685   9.381  1.00 42.52     0.001 C 
HETATM   12  C33 BCR C 515     -36.133 128.244   6.219  1.00 41.43     0.044 C 
HETATM   13  C31 BCR C 515     -32.060 130.540   6.337  1.00 36.91     0.020 C 
HETATM   14  C32 BCR C 515     -31.912 129.150   8.366  1.00 47.25     0.020 C 
HETATM   15  C34 BCR C 515     -35.877 131.457  10.138  1.00 41.23     0.048 C 
HETATM   16  C12 BCR C 515     -37.946 134.887   9.038  1.00 42.82     0.007 C 
HETATM   17  C13 BCR C 515     -38.682 135.781   9.953  1.00 44.74    -0.062 C 
HETATM   18  C14 BCR C 515     -39.402 136.763   9.402  1.00 43.56     0.007 C 
HETATM   19  C15 BCR C 515     -40.197 137.697  10.180  1.00 39.26     0.001 C 
HETATM   20  C16 BCR C 515     -40.885 138.636   9.543  1.00 40.16     0.001 C 
HETATM   21  C17 BCR C 515     -41.710 139.558  10.305  1.00 42.34     0.007 C 
HETATM   22  C18 BCR C 515     -42.275 140.646   9.775  1.00 44.22    -0.062 C 
HETATM   23  C19 BCR C 515     -43.103 141.479  10.659  1.00 48.96     0.007 C 
HETATM   24  C20 BCR C 515     -43.619 142.646  10.304  1.00 51.51     0.001 C 
HETATM   25  C21 BCR C 515     -44.421 143.313  11.316  1.00 48.83     0.007 C 
HETATM   26  C22 BCR C 515     -44.839 144.571  11.193  1.00 46.78    -0.062 C 
HETATM   27  C23 BCR C 515     -45.648 145.129  12.280  1.00 46.17     0.007 C 
HETATM   28  C24 BCR C 515     -46.363 146.235  12.124  1.00 45.08     0.009 C 
HETATM   29  C25 BCR C 515     -47.186 146.783  13.218  1.00 45.02    -0.048 C 
HETATM   30  C26 BCR C 515     -48.309 146.167  13.585  1.00 46.86    -0.077 C 
HETATM   31  C27 BCR C 515     -49.130 146.620  14.767  1.00 50.72     0.034 C 
HETATM   32  C28 BCR C 515     -48.288 147.457  15.700  1.00 55.86     0.005 C 
HETATM   33  C29 BCR C 515     -47.715 148.594  14.885  1.00 52.85     0.014 C 
HETATM   34  C30 BCR C 515     -46.721 148.059  13.867  1.00 52.22    -0.020 C 
HETATM   35  C35 BCR C 515     -38.643 135.604  11.441  1.00 45.43     0.048 C 
HETATM   36  C36 BCR C 515     -42.085 140.999   8.333  1.00 42.28     0.048 C 
HETATM   37  C37 BCR C 515     -44.489 145.379   9.986  1.00 46.03     0.048 C 
HETATM   38  C38 BCR C 515     -48.817 144.981  12.819  1.00 45.04     0.044 C 
HETATM   39  C39 BCR C 515     -45.394 147.789  14.557  1.00 52.25     0.020 C 
HETATM   40  C40 BCR C 515     -46.535 149.085  12.767  1.00 47.46     0.020 C 
ENDROOT
TORSDOF 10
