REMARK VINA RESULT:    -6.577      1.524     16.040
REMARK INTER + INTRA:         -10.688
REMARK INTER:                  -7.742
REMARK INTRA:                  -2.946
REMARK UNBOUND:                -4.111
REMARK  0 active torsions:
REMARK  status: ('A' for Active; 'I' for Inactive)
REMARK       I    between atoms: C6_6  and  C7_7 
REMARK       I    between atoms: C8_8  and  C9_9 
REMARK       I    between atoms: C10_10  and  C11_11 
REMARK       I    between atoms: C12_16  and  C13_17 
REMARK       I    between atoms: C14_18  and  C15_19 
REMARK       I    between atoms: C16_20  and  C17_21 
REMARK       I    between atoms: C18_22  and  C19_23 
REMARK       I    between atoms: C20_24  and  C21_25 
REMARK       I    between atoms: C22_26  and  C23_27 
REMARK       I    between atoms: C24_28  and  C25_29 
ROOT
HETATM    1  C1  BCR C 525     -34.366 126.800   6.251  1.00 33.72    -0.020 C 
HETATM    2  C2  BCR C 525     -33.669 125.850   5.294  1.00 38.03     0.014 C 
HETATM    3  C3  BCR C 525     -32.909 126.580   4.227  1.00 36.23     0.005 C 
HETATM    4  C4  BCR C 525     -31.857 127.479   4.835  1.00 39.77     0.034 C 
HETATM    5  C5  BCR C 525     -32.300 128.170   6.090  1.00 35.72    -0.077 C 
HETATM    6  C6  BCR C 525     -33.446 127.887   6.727  1.00 34.48    -0.048 C 
HETATM    7  C7  BCR C 525     -33.986 128.715   7.806  1.00 34.77     0.009 C 
HETATM    8  C8  BCR C 525     -33.913 130.060   7.790  1.00 34.00     0.007 C 
HETATM    9  C9  BCR C 525     -34.697 130.792   8.838  1.00 30.34    -0.062 C 
HETATM   10  C10 BCR C 525     -35.207 132.024   8.604  1.00 29.43     0.007 C 
HETATM   11  C11 BCR C 525     -36.111 132.746   9.530  1.00 32.78     0.001 C 
HETATM   12  C33 BCR C 525     -31.253 129.065   6.687  1.00 40.94     0.044 C 
HETATM   13  C31 BCR C 525     -34.891 125.967   7.375  1.00 36.12     0.020 C 
HETATM   14  C32 BCR C 525     -35.538 127.548   5.570  1.00 41.14     0.020 C 
HETATM   15  C34 BCR C 525     -34.942 130.090  10.190  1.00 36.22     0.048 C 
HETATM   16  C12 BCR C 525     -36.740 133.852   9.137  1.00 35.35     0.007 C 
HETATM   17  C13 BCR C 525     -37.733 134.597   9.970  1.00 35.17    -0.062 C 
HETATM   18  C14 BCR C 525     -38.363 135.644   9.377  1.00 38.14     0.007 C 
HETATM   19  C15 BCR C 525     -39.390 136.537   9.979  1.00 38.44     0.001 C 
HETATM   20  C16 BCR C 525     -40.018 137.526   9.299  1.00 34.38     0.001 C 
HETATM   21  C17 BCR C 525     -41.005 138.352  10.016  1.00 32.72     0.007 C 
HETATM   22  C18 BCR C 525     -41.742 139.343   9.426  1.00 31.75    -0.062 C 
HETATM   23  C19 BCR C 525     -42.726 140.092  10.259  1.00 30.37     0.007 C 
HETATM   24  C20 BCR C 525     -43.681 140.908   9.828  1.00 31.00     0.001 C 
HETATM   25  C21 BCR C 525     -44.634 141.532  10.723  1.00 32.98     0.007 C 
HETATM   26  C22 BCR C 525     -45.760 142.126  10.284  1.00 31.86    -0.062 C 
HETATM   27  C23 BCR C 525     -46.706 142.650  11.314  1.00 30.56     0.007 C 
HETATM   28  C24 BCR C 525     -47.899 143.104  10.965  1.00 32.87     0.009 C 
HETATM   29  C25 BCR C 525     -48.898 143.529  11.962  1.00 28.40    -0.048 C 
HETATM   30  C26 BCR C 525     -48.603 144.499  12.848  1.00 28.90    -0.077 C 
HETATM   31  C27 BCR C 525     -49.571 145.055  13.834  1.00 26.86     0.034 C 
HETATM   32  C28 BCR C 525     -50.797 144.165  14.048  1.00 30.07     0.005 C 
HETATM   33  C29 BCR C 525     -51.268 143.612  12.708  1.00 34.82     0.014 C 
HETATM   34  C30 BCR C 525     -50.206 142.792  11.983  1.00 28.48    -0.020 C 
HETATM   35  C35 BCR C 525     -38.012 134.139  11.372  1.00 34.46     0.048 C 
HETATM   36  C36 BCR C 525     -41.551 139.680   7.959  1.00 34.73     0.048 C 
HETATM   37  C37 BCR C 525     -46.011 142.258   8.769  1.00 33.41     0.048 C 
HETATM   38  C38 BCR C 525     -47.369 145.318  12.708  1.00 28.85     0.044 C 
HETATM   39  C39 BCR C 525     -50.728 142.632  10.544  1.00 33.24     0.020 C 
HETATM   40  C40 BCR C 525     -49.970 141.435  12.641  1.00 27.05     0.020 C 
ENDROOT
TORSDOF 10
