REMARK VINA RESULT:   -12.038      0.000      0.000
REMARK INTER + INTRA:         -14.316
REMARK INTER:                 -12.038
REMARK INTRA:                  -2.277
REMARK UNBOUND:                -2.277
REMARK  0 active torsions:
REMARK  status: ('A' for Active; 'I' for Inactive)
REMARK       I    between atoms: C6_6  and  C7_7 
REMARK       I    between atoms: C8_8  and  C9_9 
REMARK       I    between atoms: C10_10  and  C11_11 
REMARK       I    between atoms: C12_16  and  C13_17 
REMARK       I    between atoms: C14_18  and  C15_19 
REMARK       I    between atoms: C16_20  and  C17_21 
REMARK       I    between atoms: C18_22  and  C19_23 
REMARK       I    between atoms: C20_24  and  C21_25 
REMARK       I    between atoms: C22_26  and  C23_27 
REMARK       I    between atoms: C24_28  and  C25_29 
ROOT
HETATM    1  C1  BCR C 516     -34.748 127.083   5.627  1.00 38.71    -0.020 C 
HETATM    2  C2  BCR C 516     -33.464 126.323   5.308  1.00 40.37     0.014 C 
HETATM    3  C3  BCR C 516     -32.266 127.246   5.183  1.00 39.69     0.005 C 
HETATM    4  C4  BCR C 516     -31.969 127.978   6.482  1.00 41.33     0.034 C 
HETATM    5  C5  BCR C 516     -33.247 128.587   7.024  1.00 43.22    -0.077 C 
HETATM    6  C6  BCR C 516     -34.497 128.198   6.617  1.00 38.85    -0.048 C 
HETATM    7  C7  BCR C 516     -35.660 128.866   7.254  1.00 37.25     0.009 C 
HETATM    8  C8  BCR C 516     -35.912 130.167   7.130  1.00 33.22     0.007 C 
HETATM    9  C9  BCR C 516     -37.063 130.766   7.875  1.00 35.01    -0.062 C 
HETATM   10  C10 BCR C 516     -37.174 132.106   7.922  1.00 35.85     0.007 C 
HETATM   11  C11 BCR C 516     -38.223 132.856   8.639  1.00 37.17     0.001 C 
HETATM   12  C33 BCR C 516     -33.058 129.682   8.051  1.00 40.82     0.044 C 
HETATM   13  C31 BCR C 516     -35.665 126.021   6.216  1.00 36.16     0.020 C 
HETATM   14  C32 BCR C 516     -35.389 127.681   4.380  1.00 40.70     0.020 C 
HETATM   15  C34 BCR C 516     -38.001 129.890   8.664  1.00 34.02     0.048 C 
HETATM   16  C12 BCR C 516     -38.319 134.185   8.457  1.00 35.87     0.007 C 
HETATM   17  C13 BCR C 516     -39.334 135.039   9.125  1.00 34.56    -0.062 C 
HETATM   18  C14 BCR C 516     -39.504 136.305   8.695  1.00 35.22     0.007 C 
HETATM   19  C15 BCR C 516     -40.454 137.260   9.295  1.00 35.10     0.001 C 
HETATM   20  C16 BCR C 516     -40.662 138.504   8.826  1.00 33.14     0.001 C 
HETATM   21  C17 BCR C 516     -41.604 139.418   9.512  1.00 30.41     0.007 C 
HETATM   22  C18 BCR C 516     -41.986 140.653   9.062  1.00 33.67    -0.062 C 
HETATM   23  C19 BCR C 516     -42.931 141.457   9.883  1.00 30.53     0.007 C 
HETATM   24  C20 BCR C 516     -43.196 142.761   9.744  1.00 32.24     0.001 C 
HETATM   25  C21 BCR C 516     -44.133 143.424  10.670  1.00 31.30     0.007 C 
HETATM   26  C22 BCR C 516     -44.550 144.699  10.649  1.00 33.04    -0.062 C 
HETATM   27  C23 BCR C 516     -45.465 145.111  11.742  1.00 28.50     0.007 C 
HETATM   28  C24 BCR C 516     -45.729 146.387  12.017  1.00 30.95     0.009 C 
HETATM   29  C25 BCR C 516     -46.592 146.776  13.167  1.00 30.63    -0.048 C 
HETATM   30  C26 BCR C 516     -47.895 146.406  13.284  1.00 30.70    -0.077 C 
HETATM   31  C27 BCR C 516     -48.728 146.787  14.492  1.00 30.34     0.034 C 
HETATM   32  C28 BCR C 516     -47.893 147.294  15.676  1.00 30.27     0.005 C 
HETATM   33  C29 BCR C 516     -46.838 148.275  15.200  1.00 31.08     0.014 C 
HETATM   34  C30 BCR C 516     -45.865 147.576  14.219  1.00 31.36    -0.020 C 
HETATM   35  C35 BCR C 516     -40.142 134.477  10.275  1.00 39.88     0.048 C 
HETATM   36  C36 BCR C 516     -41.451 141.234   7.750  1.00 32.24     0.048 C 
HETATM   37  C37 BCR C 516     -44.070 145.656   9.574  1.00 34.59     0.048 C 
HETATM   38  C38 BCR C 516     -48.614 145.618  12.201  1.00 34.55     0.044 C 
HETATM   39  C39 BCR C 516     -44.869 146.645  14.951  1.00 33.09     0.020 C 
HETATM   40  C40 BCR C 516     -45.025 148.670  13.551  1.00 32.68     0.020 C 
ENDROOT
TORSDOF 10
