REMARK VINA RESULT:    -6.705      1.775     16.528
REMARK INTER + INTRA:         -13.129
REMARK INTER:                 -12.543
REMARK INTRA:                  -0.586
REMARK UNBOUND:                -6.424
REMARK  0 active torsions:
REMARK  status: ('A' for Active; 'I' for Inactive)
REMARK       I    between atoms: C6_6  and  C7_7 
REMARK       I    between atoms: C8_8  and  C9_9 
REMARK       I    between atoms: C10_10  and  C11_11 
REMARK       I    between atoms: C12_16  and  C13_17 
REMARK       I    between atoms: C14_18  and  C15_19 
REMARK       I    between atoms: C16_20  and  C17_21 
REMARK       I    between atoms: C18_22  and  C19_23 
REMARK       I    between atoms: C20_24  and  C21_25 
REMARK       I    between atoms: C22_26  and  C23_27 
REMARK       I    between atoms: C24_28  and  C25_29 
ROOT
HETATM    1  C1  BCR B 618     -50.560 146.411   8.136  1.00 40.46    -0.020 C 
HETATM    2  C2  BCR B 618     -51.684 147.146   8.871  1.00 38.19     0.014 C 
HETATM    3  C3  BCR B 618     -51.664 146.807  10.346  1.00 37.07     0.005 C 
HETATM    4  C4  BCR B 618     -50.354 147.220  10.960  1.00 35.92     0.034 C 
HETATM    5  C5  BCR B 618     -49.229 146.614  10.221  1.00 36.16    -0.077 C 
HETATM    6  C6  BCR B 618     -49.294 146.233   8.937  1.00 29.04    -0.048 C 
HETATM    7  C7  BCR B 618     -48.129 145.678   8.248  1.00 28.06     0.009 C 
HETATM    8  C8  BCR B 618     -47.549 144.543   8.651  1.00 32.09     0.007 C 
HETATM    9  C9  BCR B 618     -46.456 143.904   7.947  1.00 31.23    -0.062 C 
HETATM   10  C10 BCR B 618     -45.830 142.861   8.531  1.00 30.89     0.007 C 
HETATM   11  C11 BCR B 618     -44.901 141.968   7.868  1.00 28.43     0.001 C 
HETATM   12  C33 BCR B 618     -48.008 146.466  11.035  1.00 38.15     0.044 C 
HETATM   13  C31 BCR B 618     -50.278 147.146   6.839  1.00 41.07     0.020 C 
HETATM   14  C32 BCR B 618     -51.158 145.077   7.749  1.00 40.74     0.020 C 
HETATM   15  C34 BCR B 618     -46.327 144.218   6.505  1.00 31.69     0.048 C 
HETATM   16  C12 BCR B 618     -44.497 140.828   8.458  1.00 29.36     0.007 C 
HETATM   17  C13 BCR B 618     -43.426 139.968   7.959  1.00 25.32    -0.062 C 
HETATM   18  C14 BCR B 618     -43.099 138.839   8.614  1.00 31.04     0.007 C 
HETATM   19  C15 BCR B 618     -41.896 138.078   8.372  1.00 23.63     0.001 C 
HETATM   20  C16 BCR B 618     -41.751 136.806   8.807  1.00 31.26     0.001 C 
HETATM   21  C17 BCR B 618     -40.553 136.069   8.423  1.00 34.11     0.007 C 
HETATM   22  C18 BCR B 618     -39.908 135.092   9.095  1.00 31.18    -0.062 C 
HETATM   23  C19 BCR B 618     -38.789 134.392   8.483  1.00 30.29     0.007 C 
HETATM   24  C20 BCR B 618     -37.971 133.609   9.210  1.00 41.94     0.001 C 
HETATM   25  C21 BCR B 618     -37.264 132.504   8.591  1.00 35.48     0.007 C 
HETATM   26  C22 BCR B 618     -36.191 131.876   9.079  1.00 28.25    -0.062 C 
HETATM   27  C23 BCR B 618     -35.408 131.029   8.183  1.00 31.42     0.007 C 
HETATM   28  C24 BCR B 618     -34.279 130.376   8.537  1.00 38.15     0.009 C 
HETATM   29  C25 BCR B 618     -33.482 129.594   7.580  1.00 34.46    -0.048 C 
HETATM   30  C26 BCR B 618     -32.570 130.205   6.825  1.00 40.95    -0.077 C 
HETATM   31  C27 BCR B 618     -31.751 129.555   5.776  1.00 42.20     0.034 C 
HETATM   32  C28 BCR B 618     -31.545 128.085   5.992  1.00 33.45     0.005 C 
HETATM   33  C29 BCR B 618     -32.727 127.360   6.583  1.00 35.30     0.014 C 
HETATM   34  C30 BCR B 618     -33.735 128.128   7.446  1.00 37.08    -0.020 C 
HETATM   35  C35 BCR B 618     -42.889 140.196   6.606  1.00 27.05     0.048 C 
HETATM   36  C36 BCR B 618     -40.412 134.531  10.352  1.00 33.84     0.048 C 
HETATM   37  C37 BCR B 618     -36.131 131.585  10.524  1.00 39.76     0.048 C 
HETATM   38  C38 BCR B 618     -32.337 131.677   6.902  1.00 35.08     0.044 C 
HETATM   39  C39 BCR B 618     -33.912 127.540   8.825  1.00 43.92     0.020 C 
HETATM   40  C40 BCR B 618     -35.048 127.798   6.751  1.00 41.09     0.020 C 
ENDROOT
TORSDOF 10
