REMARK VINA RESULT:    -7.787      0.000      0.000
REMARK INTER + INTRA:         -12.196
REMARK INTER:                  -7.787
REMARK INTRA:                  -4.409
REMARK UNBOUND:                -4.409
REMARK  0 active torsions:
REMARK  status: ('A' for Active; 'I' for Inactive)
REMARK       I    between atoms: C6_6  and  C7_7 
REMARK       I    between atoms: C8_8  and  C9_9 
REMARK       I    between atoms: C10_10  and  C11_11 
REMARK       I    between atoms: C12_16  and  C13_17 
REMARK       I    between atoms: C14_18  and  C15_19 
REMARK       I    between atoms: C16_20  and  C17_21 
REMARK       I    between atoms: C18_22  and  C19_23 
REMARK       I    between atoms: C20_24  and  C21_25 
REMARK       I    between atoms: C22_26  and  C23_27 
REMARK       I    between atoms: C24_28  and  C25_29 
ROOT
HETATM    1  C1  BCR T 102     -33.958 128.587   5.985  1.00 40.91    -0.020 C 
HETATM    2  C2  BCR T 102     -32.943 127.565   5.436  1.00 42.83     0.014 C 
HETATM    3  C3  BCR T 102     -32.399 126.630   6.495  1.00 43.41     0.005 C 
HETATM    4  C4  BCR T 102     -33.482 125.850   7.210  1.00 42.59     0.034 C 
HETATM    5  C5  BCR T 102     -34.736 126.648   7.414  1.00 42.61    -0.077 C 
HETATM    6  C6  BCR T 102     -34.874 127.929   7.005  1.00 35.94    -0.048 C 
HETATM    7  C7  BCR T 102     -36.001 128.707   7.613  1.00 34.50     0.009 C 
HETATM    8  C8  BCR T 102     -36.414 129.959   7.298  1.00 37.29     0.007 C 
HETATM    9  C9  BCR T 102     -37.559 130.557   8.023  1.00 41.60    -0.062 C 
HETATM   10  C10 BCR T 102     -37.816 131.859   7.786  1.00 39.53     0.007 C 
HETATM   11  C11 BCR T 102     -38.847 132.679   8.397  1.00 43.83     0.001 C 
HETATM   12  C33 BCR T 102     -35.858 125.887   8.103  1.00 45.40     0.044 C 
HETATM   13  C31 BCR T 102     -34.694 129.204   4.793  1.00 37.85     0.020 C 
HETATM   14  C32 BCR T 102     -33.175 129.738   6.640  1.00 60.03     0.020 C 
HETATM   15  C34 BCR T 102     -38.351 129.682   8.967  1.00 48.02     0.048 C 
HETATM   16  C12 BCR T 102     -38.983 133.955   7.960  1.00 42.34     0.007 C 
HETATM   17  C13 BCR T 102     -39.946 134.863   8.639  1.00 40.69    -0.062 C 
HETATM   18  C14 BCR T 102     -39.784 136.159   8.419  1.00 29.64     0.007 C 
HETATM   19  C15 BCR T 102     -40.581 137.264   9.039  1.00 30.65     0.001 C 
HETATM   20  C16 BCR T 102     -40.591 138.512   8.584  1.00 29.14     0.001 C 
HETATM   21  C17 BCR T 102     -41.390 139.532   9.306  1.00 27.42     0.007 C 
HETATM   22  C18 BCR T 102     -41.479 140.825   8.902  1.00 26.54    -0.062 C 
HETATM   23  C19 BCR T 102     -42.218 141.689   9.831  1.00 26.35     0.007 C 
HETATM   24  C20 BCR T 102     -42.271 143.029   9.800  1.00 24.12     0.001 C 
HETATM   25  C21 BCR T 102     -42.937 143.720  10.913  1.00 23.80     0.007 C 
HETATM   26  C22 BCR T 102     -42.946 145.101  10.983  1.00 24.83    -0.062 C 
HETATM   27  C23 BCR T 102     -43.513 145.688  12.180  1.00 23.10     0.007 C 
HETATM   28  C24 BCR T 102     -43.368 146.963  12.524  1.00 25.94     0.009 C 
HETATM   29  C25 BCR T 102     -43.870 147.499  13.813  1.00 27.33    -0.048 C 
HETATM   30  C26 BCR T 102     -44.886 146.975  14.503  1.00 21.96    -0.077 C 
HETATM   31  C27 BCR T 102     -45.219 147.316  15.949  1.00 23.66     0.034 C 
HETATM   32  C28 BCR T 102     -44.153 148.215  16.552  1.00 20.98     0.005 C 
HETATM   33  C29 BCR T 102     -43.754 149.291  15.578  1.00 26.12     0.014 C 
HETATM   34  C30 BCR T 102     -43.105 148.692  14.339  1.00 28.84    -0.020 C 
HETATM   35  C35 BCR T 102     -40.900 134.352   9.653  1.00 45.71     0.048 C 
HETATM   36  C36 BCR T 102     -40.769 141.385   7.675  1.00 29.58     0.048 C 
HETATM   37  C37 BCR T 102     -42.408 145.983   9.902  1.00 29.24     0.048 C 
HETATM   38  C38 BCR T 102     -45.879 146.083  13.899  1.00 24.32     0.044 C 
HETATM   39  C39 BCR T 102     -41.711 148.162  14.724  1.00 27.10     0.020 C 
HETATM   40  C40 BCR T 102     -43.012 149.837  13.342  1.00 29.40     0.020 C 
ENDROOT
TORSDOF 10
