REMARK VINA RESULT:    -6.190      2.107     16.554
REMARK INTER + INTRA:         -13.151
REMARK INTER:                 -10.899
REMARK INTRA:                  -2.252
REMARK UNBOUND:                -6.961
REMARK  0 active torsions:
REMARK  status: ('A' for Active; 'I' for Inactive)
REMARK       I    between atoms: C6_6  and  C7_7 
REMARK       I    between atoms: C8_8  and  C9_9 
REMARK       I    between atoms: C10_10  and  C11_11 
REMARK       I    between atoms: C12_16  and  C13_17 
REMARK       I    between atoms: C14_18  and  C15_19 
REMARK       I    between atoms: C16_20  and  C17_21 
REMARK       I    between atoms: C18_22  and  C19_23 
REMARK       I    between atoms: C20_24  and  C21_25 
REMARK       I    between atoms: C22_26  and  C23_27 
REMARK       I    between atoms: C24_28  and  C25_29 
ROOT
HETATM    1  C1  BCR A 411     -50.973 145.899   9.111  1.00 29.84    -0.020 C 
HETATM    2  C2  BCR A 411     -51.925 146.844   9.834  1.00 20.54     0.014 C 
HETATM    3  C3  BCR A 411     -51.525 147.022  11.288  1.00 26.03     0.005 C 
HETATM    4  C4  BCR A 411     -50.140 147.641  11.392  1.00 20.46     0.034 C 
HETATM    5  C5  BCR A 411     -49.150 146.986  10.456  1.00 19.96    -0.077 C 
HETATM    6  C6  BCR A 411     -49.513 146.193   9.426  1.00 20.82    -0.048 C 
HETATM    7  C7  BCR A 411     -48.496 145.557   8.533  1.00 29.43     0.009 C 
HETATM    8  C8  BCR A 411     -47.707 144.560   8.977  1.00 22.26     0.007 C 
HETATM    9  C9  BCR A 411     -46.712 143.866   8.127  1.00 27.77    -0.062 C 
HETATM   10  C10 BCR A 411     -45.963 142.888   8.669  1.00 20.59     0.007 C 
HETATM   11  C11 BCR A 411     -44.963 142.101   7.927  1.00 19.27     0.001 C 
HETATM   12  C33 BCR A 411     -47.716 147.280  10.749  1.00 23.62     0.044 C 
HETATM   13  C31 BCR A 411     -51.180 146.035   7.610  1.00 28.92     0.020 C 
HETATM   14  C32 BCR A 411     -51.325 144.464   9.482  1.00 24.51     0.020 C 
HETATM   15  C34 BCR A 411     -46.556 144.234   6.675  1.00 30.91     0.048 C 
HETATM   16  C12 BCR A 411     -44.234 141.185   8.592  1.00 28.37     0.007 C 
HETATM   17  C13 BCR A 411     -43.217 140.274   7.987  1.00 25.83    -0.062 C 
HETATM   18  C14 BCR A 411     -42.727 139.246   8.725  1.00 18.99     0.007 C 
HETATM   19  C15 BCR A 411     -41.763 138.246   8.253  1.00 23.50     0.001 C 
HETATM   20  C16 BCR A 411     -41.256 137.297   9.055  1.00 25.25     0.001 C 
HETATM   21  C17 BCR A 411     -40.328 136.300   8.500  1.00 31.30     0.007 C 
HETATM   22  C18 BCR A 411     -39.821 135.260   9.201  1.00 27.73    -0.062 C 
HETATM   23  C19 BCR A 411     -38.908 134.301   8.527  1.00 16.85     0.007 C 
HETATM   24  C20 BCR A 411     -38.044 133.499   9.175  1.00 16.39     0.001 C 
HETATM   25  C21 BCR A 411     -37.198 132.620   8.355  1.00 22.31     0.007 C 
HETATM   26  C22 BCR A 411     -36.165 131.884   8.813  1.00 26.64    -0.062 C 
HETATM   27  C23 BCR A 411     -35.450 131.128   7.938  1.00 23.69     0.007 C 
HETATM   28  C24 BCR A 411     -34.349 130.438   8.281  1.00 24.10     0.009 C 
HETATM   29  C25 BCR A 411     -33.540 129.606   7.344  1.00 19.96    -0.048 C 
HETATM   30  C26 BCR A 411     -34.076 128.574   6.657  1.00 22.82    -0.077 C 
HETATM   31  C27 BCR A 411     -33.273 127.718   5.702  1.00 17.59     0.034 C 
HETATM   32  C28 BCR A 411     -31.963 128.365   5.269  1.00 18.54     0.005 C 
HETATM   33  C29 BCR A 411     -31.240 128.944   6.473  1.00 23.49     0.014 C 
HETATM   34  C30 BCR A 411     -32.067 129.988   7.214  1.00 20.77    -0.020 C 
HETATM   35  C35 BCR A 411     -42.760 140.480   6.574  1.00 25.20     0.048 C 
HETATM   36  C36 BCR A 411     -40.163 135.090  10.652  1.00 17.87     0.048 C 
HETATM   37  C37 BCR A 411     -35.812 131.924  10.267  1.00 22.45     0.048 C 
HETATM   38  C38 BCR A 411     -35.521 128.170   6.782  1.00 18.48     0.044 C 
HETATM   39  C39 BCR A 411     -31.921 131.308   6.476  1.00 15.84     0.020 C 
HETATM   40  C40 BCR A 411     -31.511 130.146   8.627  1.00 18.97     0.020 C 
ENDROOT
TORSDOF 10
