REMARK VINA RESULT:    -5.839      1.638     16.186
REMARK INTER + INTRA:         -10.249
REMARK INTER:                  -8.782
REMARK INTRA:                  -1.467
REMARK UNBOUND:                -4.409
REMARK  0 active torsions:
REMARK  status: ('A' for Active; 'I' for Inactive)
REMARK       I    between atoms: C6_6  and  C7_7 
REMARK       I    between atoms: C8_8  and  C9_9 
REMARK       I    between atoms: C10_10  and  C11_11 
REMARK       I    between atoms: C12_16  and  C13_17 
REMARK       I    between atoms: C14_18  and  C15_19 
REMARK       I    between atoms: C16_20  and  C17_21 
REMARK       I    between atoms: C18_22  and  C19_23 
REMARK       I    between atoms: C20_24  and  C21_25 
REMARK       I    between atoms: C22_26  and  C23_27 
REMARK       I    between atoms: C24_28  and  C25_29 
ROOT
HETATM    1  C1  BCR T 102     -47.469 148.213  14.179  1.00 40.91    -0.020 C 
HETATM    2  C2  BCR T 102     -48.506 149.213  14.725  1.00 42.83     0.014 C 
HETATM    3  C3  BCR T 102     -48.125 149.801  16.068  1.00 43.41     0.005 C 
HETATM    4  C4  BCR T 102     -46.785 150.505  16.048  1.00 42.59     0.034 C 
HETATM    5  C5  BCR T 102     -45.786 149.831  15.157  1.00 42.61    -0.077 C 
HETATM    6  C6  BCR T 102     -46.058 148.708  14.454  1.00 35.94    -0.048 C 
HETATM    7  C7  BCR T 102     -44.879 147.941  13.936  1.00 34.50     0.009 C 
HETATM    8  C8  BCR T 102     -44.883 146.856  13.123  1.00 37.29     0.007 C 
HETATM    9  C9  BCR T 102     -43.599 146.237  12.721  1.00 41.60    -0.062 C 
HETATM   10  C10 BCR T 102     -43.670 145.067  12.056  1.00 39.53     0.007 C 
HETATM   11  C11 BCR T 102     -42.564 144.248  11.593  1.00 43.83     0.001 C 
HETATM   12  C33 BCR T 102     -44.436 150.528  15.087  1.00 45.40     0.044 C 
HETATM   13  C31 BCR T 102     -47.772 147.985  12.696  1.00 37.85     0.020 C 
HETATM   14  C32 BCR T 102     -47.698 146.857  14.870  1.00 60.03     0.020 C 
HETATM   15  C34 BCR T 102     -42.313 146.946  13.080  1.00 48.02     0.048 C 
HETATM   16  C12 BCR T 102     -42.856 143.137  10.873  1.00 42.34     0.007 C 
HETATM   17  C13 BCR T 102     -41.761 142.210  10.481  1.00 40.69    -0.062 C 
HETATM   18  C14 BCR T 102     -42.129 140.994  10.107  1.00 29.64     0.007 C 
HETATM   19  C15 BCR T 102     -41.212 139.871   9.734  1.00 30.65     0.001 C 
HETATM   20  C16 BCR T 102     -41.608 138.777   9.093  1.00 29.14     0.001 C 
HETATM   21  C17 BCR T 102     -40.614 137.712   8.812  1.00 27.42     0.007 C 
HETATM   22  C18 BCR T 102     -40.920 136.571   8.142  1.00 26.54    -0.062 C 
HETATM   23  C19 BCR T 102     -39.819 135.601   8.085  1.00 26.35     0.007 C 
HETATM   24  C20 BCR T 102     -39.906 134.323   7.690  1.00 24.12     0.001 C 
HETATM   25  C21 BCR T 102     -38.723 133.466   7.855  1.00 23.80     0.007 C 
HETATM   26  C22 BCR T 102     -38.777 132.119   7.551  1.00 24.83    -0.062 C 
HETATM   27  C23 BCR T 102     -37.603 131.332   7.867  1.00 23.10     0.007 C 
HETATM   28  C24 BCR T 102     -37.580 130.003   7.884  1.00 25.94     0.009 C 
HETATM   29  C25 BCR T 102     -36.388 129.237   8.321  1.00 27.33    -0.048 C 
HETATM   30  C26 BCR T 102     -35.134 129.693   8.263  1.00 21.96    -0.077 C 
HETATM   31  C27 BCR T 102     -33.946 129.057   8.972  1.00 23.66     0.034 C 
HETATM   32  C28 BCR T 102     -34.400 127.926   9.878  1.00 20.98     0.005 C 
HETATM   33  C29 BCR T 102     -35.431 127.074   9.186  1.00 26.12     0.014 C 
HETATM   34  C30 BCR T 102     -36.693 127.873   8.898  1.00 28.84    -0.020 C 
HETATM   35  C35 BCR T 102     -40.337 142.569  10.689  1.00 45.71     0.048 C 
HETATM   36  C36 BCR T 102     -42.310 136.244   7.610  1.00 29.58     0.048 C 
HETATM   37  C37 BCR T 102     -39.968 131.465   6.925  1.00 29.24     0.048 C 
HETATM   38  C38 BCR T 102     -34.736 130.811   7.404  1.00 24.32     0.044 C 
HETATM   39  C39 BCR T 102     -37.423 128.134  10.229  1.00 27.10     0.020 C 
HETATM   40  C40 BCR T 102     -37.520 126.996   7.970  1.00 29.40     0.020 C 
ENDROOT
TORSDOF 10
