REMARK VINA RESULT:    -8.572      0.000      0.000
REMARK INTER + INTRA:         -11.818
REMARK INTER:                  -8.572
REMARK INTRA:                  -3.247
REMARK UNBOUND:                -3.247
REMARK  0 active torsions:
REMARK  status: ('A' for Active; 'I' for Inactive)
REMARK       I    between atoms: C6_6  and  C7_7 
REMARK       I    between atoms: C8_8  and  C9_9 
REMARK       I    between atoms: C10_10  and  C11_11 
REMARK       I    between atoms: C12_16  and  C13_17 
REMARK       I    between atoms: C14_18  and  C15_19 
REMARK       I    between atoms: C16_20  and  C17_21 
REMARK       I    between atoms: C18_22  and  C19_23 
REMARK       I    between atoms: C20_24  and  C21_25 
REMARK       I    between atoms: C22_26  and  C23_27 
REMARK       I    between atoms: C24_28  and  C25_29 
ROOT
HETATM    1  C1  BCR K 102     -34.382 126.765   6.163  1.00 44.36    -0.020 C 
HETATM    2  C2  BCR K 102     -33.880 125.926   5.000  1.00 45.66     0.014 C 
HETATM    3  C3  BCR K 102     -32.986 126.720   4.077  1.00 45.76     0.005 C 
HETATM    4  C4  BCR K 102     -31.790 127.277   4.821  1.00 46.84     0.034 C 
HETATM    5  C5  BCR K 102     -32.184 127.932   6.118  1.00 45.49    -0.077 C 
HETATM    6  C6  BCR K 102     -33.417 127.839   6.607  1.00 44.85    -0.048 C 
HETATM    7  C7  BCR K 102     -33.919 128.739   7.658  1.00 41.42     0.009 C 
HETATM    8  C8  BCR K 102     -34.148 130.033   7.490  1.00 39.50     0.007 C 
HETATM    9  C9  BCR K 102     -34.706 130.779   8.628  1.00 44.88    -0.062 C 
HETATM   10  C10 BCR K 102     -35.532 131.797   8.367  1.00 44.81     0.007 C 
HETATM   11  C11 BCR K 102     -36.224 132.607   9.365  1.00 45.72     0.001 C 
HETATM   12  C33 BCR K 102     -31.121 128.680   6.865  1.00 46.47     0.044 C 
HETATM   13  C31 BCR K 102     -34.643 125.858   7.352  1.00 48.64     0.020 C 
HETATM   14  C32 BCR K 102     -35.674 127.447   5.758  1.00 40.14     0.020 C 
HETATM   15  C34 BCR K 102     -34.379 130.391  10.032  1.00 47.98     0.048 C 
HETATM   16  C12 BCR K 102     -37.064 133.497   8.848  1.00 46.57     0.007 C 
HETATM   17  C13 BCR K 102     -37.940 134.404   9.603  1.00 43.65    -0.062 C 
HETATM   18  C14 BCR K 102     -38.507 135.451   8.986  1.00 41.27     0.007 C 
HETATM   19  C15 BCR K 102     -39.420 136.322   9.710  1.00 46.01     0.001 C 
HETATM   20  C16 BCR K 102     -40.000 137.365   9.122  1.00 47.96     0.001 C 
HETATM   21  C17 BCR K 102     -40.946 138.161   9.899  1.00 48.87     0.007 C 
HETATM   22  C18 BCR K 102     -41.593 139.226   9.404  1.00 44.87    -0.062 C 
HETATM   23  C19 BCR K 102     -42.558 139.936  10.255  1.00 44.84     0.007 C 
HETATM   24  C20 BCR K 102     -43.333 140.895   9.764  1.00 40.19     0.001 C 
HETATM   25  C21 BCR K 102     -44.278 141.499  10.683  1.00 40.61     0.007 C 
HETATM   26  C22 BCR K 102     -45.377 142.128  10.259  1.00 41.40    -0.062 C 
HETATM   27  C23 BCR K 102     -46.314 142.674  11.252  1.00 40.78     0.007 C 
HETATM   28  C24 BCR K 102     -47.395 143.336  10.867  1.00 40.34     0.009 C 
HETATM   29  C25 BCR K 102     -48.384 143.871  11.819  1.00 39.31    -0.048 C 
HETATM   30  C26 BCR K 102     -48.153 144.934  12.584  1.00 41.98    -0.077 C 
HETATM   31  C27 BCR K 102     -49.115 145.403  13.643  1.00 42.86     0.034 C 
HETATM   32  C28 BCR K 102     -50.117 144.317  13.968  1.00 43.57     0.005 C 
HETATM   33  C29 BCR K 102     -50.741 143.822  12.680  1.00 41.79     0.014 C 
HETATM   34  C30 BCR K 102     -49.692 143.143  11.827  1.00 41.39    -0.020 C 
HETATM   35  C35 BCR K 102     -38.247 134.117  11.035  1.00 47.44     0.048 C 
HETATM   36  C36 BCR K 102     -41.373 139.693   8.002  1.00 40.18     0.048 C 
HETATM   37  C37 BCR K 102     -45.669 142.253   8.797  1.00 41.35     0.048 C 
HETATM   38  C38 BCR K 102     -46.907 145.737  12.399  1.00 46.90     0.044 C 
HETATM   39  C39 BCR K 102     -50.137 143.091  10.376  1.00 44.18     0.020 C 
HETATM   40  C40 BCR K 102     -49.468 141.730  12.323  1.00 41.68     0.020 C 
ENDROOT
TORSDOF 10
