REMARK VINA RESULT:    -7.143      1.967     16.575
REMARK INTER + INTRA:         -13.839
REMARK INTER:                 -10.633
REMARK INTRA:                  -3.205
REMARK UNBOUND:                -6.696
REMARK  0 active torsions:
REMARK  status: ('A' for Active; 'I' for Inactive)
REMARK       I    between atoms: C6_6  and  C7_7 
REMARK       I    between atoms: C8_8  and  C9_9 
REMARK       I    between atoms: C10_10  and  C11_11 
REMARK       I    between atoms: C12_16  and  C13_17 
REMARK       I    between atoms: C14_18  and  C15_19 
REMARK       I    between atoms: C16_20  and  C17_21 
REMARK       I    between atoms: C18_22  and  C19_23 
REMARK       I    between atoms: C20_24  and  C21_25 
REMARK       I    between atoms: C22_26  and  C23_27 
REMARK       I    between atoms: C24_28  and  C25_29 
ROOT
HETATM    1  C1  BCR H 102     -31.918 130.100   7.063  1.00 28.14    -0.020 C 
HETATM    2  C2  BCR H 102     -31.021 129.084   6.410  1.00 33.62     0.014 C 
HETATM    3  C3  BCR H 102     -31.652 128.487   5.138  1.00 29.10     0.005 C 
HETATM    4  C4  BCR H 102     -33.065 127.917   5.353  1.00 27.97     0.034 C 
HETATM    5  C5  BCR H 102     -33.903 128.710   6.335  1.00 24.08    -0.077 C 
HETATM    6  C6  BCR H 102     -33.385 129.636   7.184  1.00 23.59    -0.048 C 
HETATM    7  C7  BCR H 102     -34.221 130.303   8.201  1.00 25.03     0.009 C 
HETATM    8  C8  BCR H 102     -35.460 130.723   7.992  1.00 25.08     0.007 C 
HETATM    9  C9  BCR H 102     -36.192 131.525   9.043  1.00 28.37    -0.062 C 
HETATM   10  C10 BCR H 102     -37.345 132.115   8.723  1.00 29.64     0.007 C 
HETATM   11  C11 BCR H 102     -38.097 133.071   9.521  1.00 28.00     0.001 C 
HETATM   12  C33 BCR H 102     -35.322 128.128   6.417  1.00 24.87     0.044 C 
HETATM   13  C31 BCR H 102     -31.953 131.372   6.207  1.00 29.74     0.020 C 
HETATM   14  C32 BCR H 102     -31.248 130.482   8.377  1.00 29.39     0.020 C 
HETATM   15  C34 BCR H 102     -35.610 131.664  10.435  1.00 29.30     0.048 C 
HETATM   16  C12 BCR H 102     -38.957 133.900   8.916  1.00 33.99     0.007 C 
HETATM   17  C13 BCR H 102     -39.722 134.976   9.641  1.00 31.24    -0.062 C 
HETATM   18  C14 BCR H 102     -40.557 135.799   8.946  1.00 30.81     0.007 C 
HETATM   19  C15 BCR H 102     -41.358 136.946   9.397  1.00 33.09     0.001 C 
HETATM   20  C16 BCR H 102     -41.982 137.700   8.455  1.00 34.61     0.001 C 
HETATM   21  C17 BCR H 102     -42.771 138.864   8.820  1.00 27.93     0.007 C 
HETATM   22  C18 BCR H 102     -43.319 139.720   7.908  1.00 34.07    -0.062 C 
HETATM   23  C19 BCR H 102     -44.093 140.848   8.489  1.00 31.80     0.007 C 
HETATM   24  C20 BCR H 102     -44.830 141.678   7.779  1.00 36.40     0.001 C 
HETATM   25  C21 BCR H 102     -45.530 142.761   8.439  1.00 43.19     0.007 C 
HETATM   26  C22 BCR H 102     -46.116 143.777   7.765  1.00 40.90    -0.062 C 
HETATM   27  C23 BCR H 102     -46.784 144.861   8.555  1.00 39.46     0.007 C 
HETATM   28  C24 BCR H 102     -47.590 145.748   7.962  1.00 42.36     0.009 C 
HETATM   29  C25 BCR H 102     -48.434 146.734   8.706  1.00 45.23    -0.048 C 
HETATM   30  C26 BCR H 102     -48.009 147.524   9.744  1.00 41.91    -0.077 C 
HETATM   31  C27 BCR H 102     -48.929 148.482  10.498  1.00 42.04     0.034 C 
HETATM   32  C28 BCR H 102     -50.472 148.317  10.322  1.00 45.21     0.005 C 
HETATM   33  C29 BCR H 102     -50.649 148.003   8.848  1.00 52.29     0.014 C 
HETATM   34  C30 BCR H 102     -49.908 146.753   8.312  1.00 51.33    -0.020 C 
HETATM   35  C35 BCR H 102     -39.502 135.117  11.108  1.00 31.82     0.048 C 
HETATM   36  C36 BCR H 102     -43.125 139.543   6.433  1.00 41.97     0.048 C 
HETATM   37  C37 BCR H 102     -46.071 143.765   6.251  1.00 55.92     0.048 C 
HETATM   38  C38 BCR H 102     -46.542 147.682  10.067  1.00 38.51     0.044 C 
HETATM   39  C39 BCR H 102     -50.051 146.710   6.774  1.00 45.00     0.020 C 
HETATM   40  C40 BCR H 102     -50.523 145.500   8.974  1.00 52.36     0.020 C 
ENDROOT
TORSDOF 10
