REMARK VINA RESULT:    -9.428      0.977     16.164
REMARK INTER + INTRA:         -12.244
REMARK INTER:                  -9.345
REMARK INTRA:                  -2.900
REMARK UNBOUND:                -2.816
REMARK  0 active torsions:
REMARK  status: ('A' for Active; 'I' for Inactive)
REMARK       I    between atoms: C6_6  and  C7_7 
REMARK       I    between atoms: C8_8  and  C9_9 
REMARK       I    between atoms: C10_10  and  C11_11 
REMARK       I    between atoms: C12_16  and  C13_17 
REMARK       I    between atoms: C14_18  and  C15_19 
REMARK       I    between atoms: C16_20  and  C17_21 
REMARK       I    between atoms: C18_22  and  C19_23 
REMARK       I    between atoms: C20_24  and  C21_25 
REMARK       I    between atoms: C22_26  and  C23_27 
REMARK       I    between atoms: C24_28  and  C25_29 
ROOT
HETATM    1  C1  BCR K 101     -32.510 130.162   7.273  1.00 40.27    -0.020 C 
HETATM    2  C2  BCR K 101     -31.619 129.475   6.260  1.00 46.17     0.014 C 
HETATM    3  C3  BCR K 101     -32.090 128.102   5.896  1.00 46.00     0.005 C 
HETATM    4  C4  BCR K 101     -33.537 128.094   5.485  1.00 50.16     0.034 C 
HETATM    5  C5  BCR K 101     -34.393 128.829   6.444  1.00 47.62    -0.077 C 
HETATM    6  C6  BCR K 101     -33.954 129.788   7.229  1.00 41.18    -0.048 C 
HETATM    7  C7  BCR K 101     -34.861 130.447   8.159  1.00 43.29     0.009 C 
HETATM    8  C8  BCR K 101     -35.898 131.183   7.765  1.00 42.58     0.007 C 
HETATM    9  C9  BCR K 101     -36.677 131.991   8.691  1.00 48.65    -0.062 C 
HETATM   10  C10 BCR K 101     -37.755 132.664   8.268  1.00 45.45     0.007 C 
HETATM   11  C11 BCR K 101     -38.198 133.882   8.891  1.00 51.34     0.001 C 
HETATM   12  C33 BCR K 101     -35.822 128.447   6.443  1.00 47.03     0.044 C 
HETATM   13  C31 BCR K 101     -32.254 131.652   7.055  1.00 48.55     0.020 C 
HETATM   14  C32 BCR K 101     -31.973 129.794   8.626  1.00 47.52     0.020 C 
HETATM   15  C34 BCR K 101     -36.106 132.223  10.036  1.00 49.90     0.048 C 
HETATM   16  C12 BCR K 101     -39.474 134.282   8.803  1.00 52.29     0.007 C 
HETATM   17  C13 BCR K 101     -39.868 135.644   9.095  1.00 57.82    -0.062 C 
HETATM   18  C14 BCR K 101     -41.123 136.034   8.812  1.00 56.99     0.007 C 
HETATM   19  C15 BCR K 101     -41.631 137.378   8.977  1.00 53.84     0.001 C 
HETATM   20  C16 BCR K 101     -42.774 137.756   8.386  1.00 48.03     0.001 C 
HETATM   21  C17 BCR K 101     -43.426 138.905   8.960  1.00 52.48     0.007 C 
HETATM   22  C18 BCR K 101     -44.098 139.860   8.301  1.00 57.46    -0.062 C 
HETATM   23  C19 BCR K 101     -45.258 140.465   8.953  1.00 53.57     0.007 C 
HETATM   24  C20 BCR K 101     -45.903 141.552   8.522  1.00 52.13     0.001 C 
HETATM   25  C21 BCR K 101     -46.651 142.349   9.467  1.00 54.30     0.007 C 
HETATM   26  C22 BCR K 101     -47.367 143.460   9.211  1.00 56.80    -0.062 C 
HETATM   27  C23 BCR K 101     -48.080 144.099  10.304  1.00 54.97     0.007 C 
HETATM   28  C24 BCR K 101     -48.957 145.083  10.116  1.00 52.41     0.009 C 
HETATM   29  C25 BCR K 101     -49.909 145.498  11.127  1.00 54.04    -0.048 C 
HETATM   30  C26 BCR K 101     -50.967 144.740  11.433  1.00 63.10    -0.077 C 
HETATM   31  C27 BCR K 101     -52.006 145.052  12.440  1.00 64.10     0.034 C 
HETATM   32  C28 BCR K 101     -51.597 146.203  13.329  1.00 68.43     0.005 C 
HETATM   33  C29 BCR K 101     -50.900 147.280  12.534  1.00 60.58     0.014 C 
HETATM   34  C30 BCR K 101     -49.657 146.789  11.816  1.00 50.92    -0.020 C 
HETATM   35  C35 BCR K 101     -38.783 136.641   9.259  1.00 62.47     0.048 C 
HETATM   36  C36 BCR K 101     -43.491 140.495   7.110  1.00 61.37     0.048 C 
HETATM   37  C37 BCR K 101     -47.264 144.218   7.945  1.00 59.71     0.048 C 
HETATM   38  C38 BCR K 101     -51.242 143.452  10.768  1.00 58.32     0.044 C 
HETATM   39  C39 BCR K 101     -48.506 146.632  12.797  1.00 63.29     0.020 C 
HETATM   40  C40 BCR K 101     -49.262 147.896  10.839  1.00 51.15     0.020 C 
ENDROOT
TORSDOF 10
