REMARK VINA RESULT:    -7.087      1.721     16.412
REMARK INTER + INTRA:          -9.803
REMARK INTER:                  -8.901
REMARK INTRA:                  -0.903
REMARK UNBOUND:                -2.716
REMARK  0 active torsions:
REMARK  status: ('A' for Active; 'I' for Inactive)
REMARK       I    between atoms: C6_6  and  C7_7 
REMARK       I    between atoms: C8_8  and  C9_9 
REMARK       I    between atoms: C10_10  and  C11_11 
REMARK       I    between atoms: C12_16  and  C13_17 
REMARK       I    between atoms: C14_18  and  C15_19 
REMARK       I    between atoms: C16_20  and  C17_21 
REMARK       I    between atoms: C18_22  and  C19_23 
REMARK       I    between atoms: C20_24  and  C21_25 
REMARK       I    between atoms: C22_26  and  C23_27 
REMARK       I    between atoms: C24_28  and  C25_29 
ROOT
HETATM    1  C1  BCR B 617     -50.678 146.558  10.233  1.00 16.64    -0.020 C 
HETATM    2  C2  BCR B 617     -51.188 147.881  10.767  1.00 16.66     0.014 C 
HETATM    3  C3  BCR B 617     -50.320 148.384  11.876  1.00 16.67     0.005 C 
HETATM    4  C4  BCR B 617     -50.306 147.405  13.015  1.00 16.65     0.034 C 
HETATM    5  C5  BCR B 617     -50.102 146.012  12.557  1.00 16.64    -0.077 C 
HETATM    6  C6  BCR B 617     -50.245 145.598  11.294  1.00 16.61    -0.048 C 
HETATM    7  C7  BCR B 617     -50.048 144.194  10.890  1.00 16.52     0.009 C 
HETATM    8  C8  BCR B 617     -48.864 143.687  10.541  1.00 16.42     0.007 C 
HETATM    9  C9  BCR B 617     -48.678 142.342  10.030  1.00 16.35    -0.062 C 
HETATM   10  C10 BCR B 617     -47.443 141.880   9.801  1.00 16.25     0.007 C 
HETATM   11  C11 BCR B 617     -47.088 140.492   9.629  1.00 16.13     0.001 C 
HETATM   12  C33 BCR B 617     -49.698 145.114  13.653  1.00 16.67     0.044 C 
HETATM   13  C31 BCR B 617     -49.559 146.904   9.271  1.00 16.64     0.020 C 
HETATM   14  C32 BCR B 617     -51.815 145.948   9.445  1.00 16.66     0.020 C 
HETATM   15  C34 BCR B 617     -49.877 141.549   9.721  1.00 16.38     0.048 C 
HETATM   16  C12 BCR B 617     -45.928 140.163   9.040  1.00 15.96     0.007 C 
HETATM   17  C13 BCR B 617     -45.396 138.821   8.949  1.00 15.83    -0.062 C 
HETATM   18  C14 BCR B 617     -44.119 138.648   8.574  1.00 15.70     0.007 C 
HETATM   19  C15 BCR B 617     -43.349 137.442   8.750  1.00 15.54     0.001 C 
HETATM   20  C16 BCR B 617     -42.063 137.377   8.372  1.00 15.40     0.001 C 
HETATM   21  C17 BCR B 617     -41.392 136.099   8.338  1.00 15.27     0.007 C 
HETATM   22  C18 BCR B 617     -40.085 135.843   8.173  1.00 15.19    -0.062 C 
HETATM   23  C19 BCR B 617     -39.650 134.456   8.120  1.00 15.12     0.007 C 
HETATM   24  C20 BCR B 617     -38.372 134.081   8.049  1.00 15.10     0.001 C 
HETATM   25  C21 BCR B 617     -38.049 132.680   8.150  1.00 15.07     0.007 C 
HETATM   26  C22 BCR B 617     -36.836 132.113   8.151  1.00 15.07    -0.062 C 
HETATM   27  C23 BCR B 617     -36.775 130.693   7.868  1.00 15.08     0.007 C 
HETATM   28  C24 BCR B 617     -35.813 129.849   8.262  1.00 15.19     0.009 C 
HETATM   29  C25 BCR B 617     -35.656 128.446   7.859  1.00 15.27    -0.048 C 
HETATM   30  C26 BCR B 617     -36.444 127.455   8.311  1.00 15.33    -0.077 C 
HETATM   31  C27 BCR B 617     -36.329 126.028   7.948  1.00 15.37     0.034 C 
HETATM   32  C28 BCR B 617     -35.674 125.851   6.605  1.00 15.36     0.005 C 
HETATM   33  C29 BCR B 617     -34.420 126.676   6.514  1.00 15.31     0.014 C 
HETATM   34  C30 BCR B 617     -34.533 128.139   6.894  1.00 15.29    -0.020 C 
HETATM   35  C35 BCR B 617     -46.306 137.675   9.115  1.00 15.82     0.048 C 
HETATM   36  C36 BCR B 617     -39.049 136.897   8.144  1.00 15.16     0.048 C 
HETATM   37  C37 BCR B 617     -35.635 132.803   8.659  1.00 15.01     0.048 C 
HETATM   38  C38 BCR B 617     -37.570 127.620   9.261  1.00 15.36     0.044 C 
HETATM   39  C39 BCR B 617     -34.610 128.996   5.637  1.00 15.27     0.020 C 
HETATM   40  C40 BCR B 617     -33.177 128.432   7.517  1.00 15.28     0.020 C 
ENDROOT
TORSDOF 10
