REMARK VINA RESULT:    -9.953      1.665      2.291
REMARK INTER + INTRA:         -12.990
REMARK INTER:                 -12.522
REMARK INTRA:                  -0.469
REMARK UNBOUND:                -3.037
REMARK  0 active torsions:
REMARK  status: ('A' for Active; 'I' for Inactive)
REMARK       I    between atoms: C6_6  and  C7_7 
REMARK       I    between atoms: C8_8  and  C9_9 
REMARK       I    between atoms: C10_10  and  C11_11 
REMARK       I    between atoms: C12_16  and  C13_17 
REMARK       I    between atoms: C14_18  and  C15_19 
REMARK       I    between atoms: C16_20  and  C17_21 
REMARK       I    between atoms: C18_22  and  C19_23 
REMARK       I    between atoms: C20_24  and  C21_25 
REMARK       I    between atoms: C22_26  and  C23_27 
REMARK       I    between atoms: C24_28  and  C25_29 
ROOT
HETATM    1  C1  BCR A 407     -33.842 127.537   7.054  1.00 28.23    -0.020 C 
HETATM    2  C2  BCR A 407     -32.863 126.832   6.126  1.00 26.63     0.014 C 
HETATM    3  C3  BCR A 407     -32.324 127.783   5.078  1.00 25.93     0.005 C 
HETATM    4  C4  BCR A 407     -31.539 128.840   5.808  1.00 23.77     0.034 C 
HETATM    5  C5  BCR A 407     -32.439 129.581   6.750  1.00 26.68    -0.077 C 
HETATM    6  C6  BCR A 407     -33.505 128.989   7.319  1.00 30.50    -0.048 C 
HETATM    7  C7  BCR A 407     -34.359 129.754   8.254  1.00 26.48     0.009 C 
HETATM    8  C8  BCR A 407     -35.318 130.593   7.857  1.00 26.44     0.007 C 
HETATM    9  C9  BCR A 407     -36.141 131.352   8.830  1.00 31.91    -0.062 C 
HETATM   10  C10 BCR A 407     -36.812 132.445   8.425  1.00 26.39     0.007 C 
HETATM   11  C11 BCR A 407     -37.651 133.314   9.249  1.00 23.46     0.001 C 
HETATM   12  C33 BCR A 407     -32.079 130.997   7.054  1.00 20.48     0.044 C 
HETATM   13  C31 BCR A 407     -33.855 126.817   8.387  1.00 26.58     0.020 C 
HETATM   14  C32 BCR A 407     -35.201 127.473   6.390  1.00 24.38     0.020 C 
HETATM   15  C34 BCR A 407     -36.214 130.896  10.250  1.00 31.33     0.048 C 
HETATM   16  C12 BCR A 407     -38.374 134.243   8.625  1.00 19.64     0.007 C 
HETATM   17  C13 BCR A 407     -39.271 135.195   9.301  1.00 19.50    -0.062 C 
HETATM   18  C14 BCR A 407     -40.075 135.972   8.568  1.00 21.08     0.007 C 
HETATM   19  C15 BCR A 407     -41.017 136.935   9.127  1.00 20.35     0.001 C 
HETATM   20  C16 BCR A 407     -41.680 137.792   8.350  1.00 19.61     0.001 C 
HETATM   21  C17 BCR A 407     -42.649 138.706   8.946  1.00 24.39     0.007 C 
HETATM   22  C18 BCR A 407     -43.339 139.612   8.240  1.00 24.75    -0.062 C 
HETATM   23  C19 BCR A 407     -44.326 140.474   8.935  1.00 22.75     0.007 C 
HETATM   24  C20 BCR A 407     -45.048 141.443   8.368  1.00 20.02     0.001 C 
HETATM   25  C21 BCR A 407     -45.989 142.179   9.206  1.00 24.21     0.007 C 
HETATM   26  C22 BCR A 407     -46.623 143.330   8.923  1.00 23.81    -0.062 C 
HETATM   27  C23 BCR A 407     -47.573 143.909   9.919  1.00 24.49     0.007 C 
HETATM   28  C24 BCR A 407     -48.201 145.084   9.777  1.00 22.45     0.009 C 
HETATM   29  C25 BCR A 407     -49.168 145.666  10.744  1.00 22.37    -0.048 C 
HETATM   30  C26 BCR A 407     -50.453 145.296  10.672  1.00 25.07    -0.077 C 
HETATM   31  C27 BCR A 407     -51.509 145.951  11.525  1.00 22.42     0.034 C 
HETATM   32  C28 BCR A 407     -50.958 146.209  12.906  1.00 19.60     0.005 C 
HETATM   33  C29 BCR A 407     -49.742 147.101  12.825  1.00 23.51     0.014 C 
HETATM   34  C30 BCR A 407     -48.722 146.718  11.746  1.00 25.52    -0.020 C 
HETATM   35  C35 BCR A 407     -39.250 135.308  10.787  1.00 19.07     0.048 C 
HETATM   36  C36 BCR A 407     -43.086 139.734   6.772  1.00 14.49     0.048 C 
HETATM   37  C37 BCR A 407     -46.380 144.013   7.618  1.00 19.80     0.048 C 
HETATM   38  C38 BCR A 407     -50.908 144.229   9.728  1.00 20.56     0.044 C 
HETATM   39  C39 BCR A 407     -47.482 146.206  12.443  1.00 27.97     0.020 C 
HETATM   40  C40 BCR A 407     -48.389 148.007  11.034  1.00 17.98     0.020 C 
ENDROOT
TORSDOF 10
