REMARK VINA RESULT:    -6.455      2.272      4.323
REMARK INTER + INTRA:         -13.379
REMARK INTER:                 -11.147
REMARK INTRA:                  -2.232
REMARK UNBOUND:                -6.924
REMARK  0 active torsions:
REMARK  status: ('A' for Active; 'I' for Inactive)
REMARK       I    between atoms: C6_6  and  C7_7 
REMARK       I    between atoms: C8_8  and  C9_9 
REMARK       I    between atoms: C10_10  and  C11_11 
REMARK       I    between atoms: C12_16  and  C13_17 
REMARK       I    between atoms: C14_18  and  C15_19 
REMARK       I    between atoms: C16_20  and  C17_21 
REMARK       I    between atoms: C18_22  and  C19_23 
REMARK       I    between atoms: C20_24  and  C21_25 
REMARK       I    between atoms: C22_26  and  C23_27 
REMARK       I    between atoms: C24_28  and  C25_29 
ROOT
HETATM    1  C1  BCR A 610     -33.935 127.142   7.101  1.00 29.59    -0.020 C 
HETATM    2  C2  BCR A 610     -32.966 126.335   6.270  1.00 31.72     0.014 C 
HETATM    3  C3  BCR A 610     -32.616 127.089   5.020  1.00 27.94     0.005 C 
HETATM    4  C4  BCR A 610     -31.951 128.412   5.387  1.00 32.43     0.034 C 
HETATM    5  C5  BCR A 610     -32.689 129.180   6.461  1.00 29.29    -0.077 C 
HETATM    6  C6  BCR A 610     -33.563 128.600   7.269  1.00 25.73    -0.048 C 
HETATM    7  C7  BCR A 610     -34.370 129.388   8.266  1.00 25.66     0.009 C 
HETATM    8  C8  BCR A 610     -34.932 130.555   7.896  1.00 28.04     0.007 C 
HETATM    9  C9  BCR A 610     -35.857 131.284   8.811  1.00 26.85    -0.062 C 
HETATM   10  C10 BCR A 610     -36.612 132.307   8.343  1.00 26.33     0.007 C 
HETATM   11  C11 BCR A 610     -37.576 133.049   9.167  1.00 27.36     0.001 C 
HETATM   12  C33 BCR A 610     -32.202 130.558   6.649  1.00 35.13     0.044 C 
HETATM   13  C31 BCR A 610     -33.990 126.481   8.438  1.00 31.88     0.020 C 
HETATM   14  C32 BCR A 610     -35.307 127.093   6.417  1.00 31.60     0.020 C 
HETATM   15  C34 BCR A 610     -35.913 130.811  10.246  1.00 29.30     0.048 C 
HETATM   16  C12 BCR A 610     -38.241 134.090   8.616  1.00 26.07     0.007 C 
HETATM   17  C13 BCR A 610     -39.210 134.972   9.306  1.00 27.88    -0.062 C 
HETATM   18  C14 BCR A 610     -39.908 135.867   8.539  1.00 26.29     0.007 C 
HETATM   19  C15 BCR A 610     -40.958 136.752   9.062  1.00 24.17     0.001 C 
HETATM   20  C16 BCR A 610     -41.679 137.562   8.271  1.00 25.06     0.001 C 
HETATM   21  C17 BCR A 610     -42.736 138.364   8.879  1.00 23.08     0.007 C 
HETATM   22  C18 BCR A 610     -43.564 139.243   8.241  1.00 25.47    -0.062 C 
HETATM   23  C19 BCR A 610     -44.588 140.007   8.995  1.00 24.27     0.007 C 
HETATM   24  C20 BCR A 610     -45.116 141.151   8.591  1.00 22.34     0.001 C 
HETATM   25  C21 BCR A 610     -46.127 141.843   9.446  1.00 26.05     0.007 C 
HETATM   26  C22 BCR A 610     -46.633 143.103   9.147  1.00 27.30    -0.062 C 
HETATM   27  C23 BCR A 610     -47.631 143.702  10.106  1.00 23.16     0.007 C 
HETATM   28  C24 BCR A 610     -48.062 144.947   9.980  1.00 21.54     0.009 C 
HETATM   29  C25 BCR A 610     -48.942 145.540  10.967  1.00 21.54    -0.048 C 
HETATM   30  C26 BCR A 610     -50.096 144.905  11.276  1.00 20.62    -0.077 C 
HETATM   31  C27 BCR A 610     -51.116 145.418  12.283  1.00 20.11     0.034 C 
HETATM   32  C28 BCR A 610     -50.490 146.492  13.147  1.00 24.80     0.005 C 
HETATM   33  C29 BCR A 610     -49.672 147.476  12.296  1.00 24.65     0.014 C 
HETATM   34  C30 BCR A 610     -48.488 146.836  11.596  1.00 22.24    -0.020 C 
HETATM   35  C35 BCR A 610     -39.279 134.853  10.810  1.00 33.62     0.048 C 
HETATM   36  C36 BCR A 610     -43.474 139.466   6.778  1.00 23.31     0.048 C 
HETATM   37  C37 BCR A 610     -46.180 143.824   7.883  1.00 28.25     0.048 C 
HETATM   38  C38 BCR A 610     -50.598 143.732  10.508  1.00 20.57     0.044 C 
HETATM   39  C39 BCR A 610     -47.355 146.460  12.570  1.00 24.02     0.020 C 
HETATM   40  C40 BCR A 610     -48.029 147.782  10.549  1.00 22.78     0.020 C 
ENDROOT
TORSDOF 10
