REMARK VINA RESULT:    -8.951      0.000      0.000
REMARK INTER + INTRA:         -15.308
REMARK INTER:                  -8.951
REMARK INTRA:                  -6.358
REMARK UNBOUND:                -6.358
REMARK  0 active torsions:
REMARK  status: ('A' for Active; 'I' for Inactive)
REMARK       I    between atoms: C6_6  and  C7_7 
REMARK       I    between atoms: C8_8  and  C9_9 
REMARK       I    between atoms: C10_10  and  C11_11 
REMARK       I    between atoms: C12_16  and  C13_17 
REMARK       I    between atoms: C14_18  and  C15_19 
REMARK       I    between atoms: C16_20  and  C17_21 
REMARK       I    between atoms: C18_22  and  C19_23 
REMARK       I    between atoms: C20_24  and  C21_25 
REMARK       I    between atoms: C22_26  and  C23_27 
REMARK       I    between atoms: C24_28  and  C25_29 
ROOT
HETATM    1  C1  BCR B 620     -50.299 150.130  11.474  1.00 59.21    -0.020 C 
HETATM    2  C2  BCR B 620     -51.752 150.585  11.391  1.00 51.24     0.014 C 
HETATM    3  C3  BCR B 620     -52.547 149.701  10.458  1.00 59.98     0.005 C 
HETATM    4  C4  BCR B 620     -51.972 149.874   9.067  1.00 63.95     0.034 C 
HETATM    5  C5  BCR B 620     -50.521 149.464   9.065  1.00 56.60    -0.077 C 
HETATM    6  C6  BCR B 620     -49.752 149.579  10.166  1.00 59.07    -0.048 C 
HETATM    7  C7  BCR B 620     -48.317 149.185  10.208  1.00 54.02     0.009 C 
HETATM    8  C8  BCR B 620     -47.867 147.982   9.835  1.00 65.68     0.007 C 
HETATM    9  C9  BCR B 620     -46.452 147.565   9.898  1.00 53.63    -0.062 C 
HETATM   10  C10 BCR B 620     -46.172 146.309   9.499  1.00 46.58     0.007 C 
HETATM   11  C11 BCR B 620     -44.859 145.662   9.527  1.00 41.79     0.001 C 
HETATM   12  C33 BCR B 620     -50.005 148.934   7.763  1.00 51.12     0.044 C 
HETATM   13  C31 BCR B 620     -50.184 149.085  12.590  1.00 43.92     0.020 C 
HETATM   14  C32 BCR B 620     -49.431 151.338  11.794  1.00 55.12     0.020 C 
HETATM   15  C34 BCR B 620     -45.399 148.504  10.409  1.00 45.21     0.048 C 
HETATM   16  C12 BCR B 620     -44.876 144.348   9.264  1.00 45.96     0.007 C 
HETATM   17  C13 BCR B 620     -43.685 143.480   9.304  1.00 40.88    -0.062 C 
HETATM   18  C14 BCR B 620     -43.686 142.273   8.696  1.00 41.01     0.007 C 
HETATM   19  C15 BCR B 620     -42.528 141.377   8.802  1.00 42.22     0.001 C 
HETATM   20  C16 BCR B 620     -42.681 140.067   8.535  1.00 44.26     0.001 C 
HETATM   21  C17 BCR B 620     -41.573 139.117   8.708  1.00 36.26     0.007 C 
HETATM   22  C18 BCR B 620     -41.537 137.877   8.193  1.00 40.60    -0.062 C 
HETATM   23  C19 BCR B 620     -40.364 137.016   8.506  1.00 46.29     0.007 C 
HETATM   24  C20 BCR B 620     -40.248 135.733   8.130  1.00 50.06     0.001 C 
HETATM   25  C21 BCR B 620     -39.054 134.979   8.537  1.00 37.91     0.007 C 
HETATM   26  C22 BCR B 620     -38.763 133.715   8.165  1.00 42.97    -0.062 C 
HETATM   27  C23 BCR B 620     -37.637 133.150   8.644  1.00 48.87     0.007 C 
HETATM   28  C24 BCR B 620     -37.393 131.823   8.615  1.00 45.55     0.009 C 
HETATM   29  C25 BCR B 620     -36.138 131.254   9.184  1.00 43.88    -0.048 C 
HETATM   30  C26 BCR B 620     -35.969 131.210  10.524  1.00 47.72    -0.077 C 
HETATM   31  C27 BCR B 620     -34.734 130.655  11.191  1.00 52.50     0.034 C 
HETATM   32  C28 BCR B 620     -33.558 130.721  10.238  1.00 49.92     0.005 C 
HETATM   33  C29 BCR B 620     -33.964 129.985   8.979  1.00 50.61     0.014 C 
HETATM   34  C30 BCR B 620     -35.077 130.725   8.241  1.00 54.77    -0.020 C 
HETATM   35  C35 BCR B 620     -42.484 143.964  10.071  1.00 35.11     0.048 C 
HETATM   36  C36 BCR B 620     -42.665 137.388   7.326  1.00 37.84     0.048 C 
HETATM   37  C37 BCR B 620     -39.661 132.943   7.236  1.00 32.11     0.048 C 
HETATM   38  C38 BCR B 620     -37.023 131.718  11.456  1.00 42.60     0.044 C 
HETATM   39  C39 BCR B 620     -35.714 129.748   7.247  1.00 50.58     0.020 C 
HETATM   40  C40 BCR B 620     -34.458 131.895   7.479  1.00 40.99     0.020 C 
ENDROOT
TORSDOF 10
