REMARK VINA RESULT:   -10.361      1.166     16.105
REMARK INTER + INTRA:         -10.642
REMARK INTER:                  -5.936
REMARK INTRA:                  -4.706
REMARK UNBOUND:                -0.281
REMARK  0 active torsions:
REMARK  status: ('A' for Active; 'I' for Inactive)
REMARK       I    between atoms: C6_6  and  C7_7 
REMARK       I    between atoms: C8_8  and  C9_9 
REMARK       I    between atoms: C10_10  and  C11_11 
REMARK       I    between atoms: C12_16  and  C13_17 
REMARK       I    between atoms: C14_18  and  C15_19 
REMARK       I    between atoms: C16_20  and  C17_21 
REMARK       I    between atoms: C18_22  and  C19_23 
REMARK       I    between atoms: C20_24  and  C21_25 
REMARK       I    between atoms: C22_26  and  C23_27 
REMARK       I    between atoms: C24_28  and  C25_29 
ROOT
HETATM    1  C1  BCR F 101     -33.293 129.236   8.635  1.00 41.36    -0.020 C 
HETATM    2  C2  BCR F 101     -32.521 128.414   7.617  1.00 46.22     0.014 C 
HETATM    3  C3  BCR F 101     -33.424 127.689   6.668  1.00 40.40     0.005 C 
HETATM    4  C4  BCR F 101     -34.315 128.666   5.957  1.00 37.04     0.034 C 
HETATM    5  C5  BCR F 101     -35.059 129.503   6.929  1.00 43.37    -0.077 C 
HETATM    6  C6  BCR F 101     -34.588 129.777   8.147  1.00 36.67    -0.048 C 
HETATM    7  C7  BCR F 101     -35.319 130.583   9.104  1.00 37.51     0.009 C 
HETATM    8  C8  BCR F 101     -35.554 131.864   8.863  1.00 40.99     0.007 C 
HETATM    9  C9  BCR F 101     -36.392 132.659   9.731  1.00 37.99    -0.062 C 
HETATM   10  C10 BCR F 101     -36.864 133.818   9.255  1.00 32.67     0.007 C 
HETATM   11  C11 BCR F 101     -37.702 134.756   9.977  1.00 30.31     0.001 C 
HETATM   12  C33 BCR F 101     -36.388 129.993   6.437  1.00 36.33     0.044 C 
HETATM   13  C31 BCR F 101     -32.389 130.352   9.075  1.00 51.06     0.020 C 
HETATM   14  C32 BCR F 101     -33.505 128.369   9.863  1.00 43.35     0.020 C 
HETATM   15  C34 BCR F 101     -36.861 132.009  10.973  1.00 39.55     0.048 C 
HETATM   16  C12 BCR F 101     -38.171 135.836   9.326  1.00 29.21     0.007 C 
HETATM   17  C13 BCR F 101     -39.113 136.763   9.911  1.00 31.53    -0.062 C 
HETATM   18  C14 BCR F 101     -39.790 137.583   9.099  1.00 36.47     0.007 C 
HETATM   19  C15 BCR F 101     -40.641 138.674   9.525  1.00 33.10     0.001 C 
HETATM   20  C16 BCR F 101     -41.108 139.551   8.607  1.00 33.82     0.001 C 
HETATM   21  C17 BCR F 101     -42.221 140.420   8.950  1.00 36.91     0.007 C 
HETATM   22  C18 BCR F 101     -42.904 141.266   8.155  1.00 32.34    -0.062 C 
HETATM   23  C19 BCR F 101     -44.032 141.975   8.730  1.00 30.12     0.007 C 
HETATM   24  C20 BCR F 101     -44.801 142.815   8.027  1.00 37.50     0.001 C 
HETATM   25  C21 BCR F 101     -46.097 143.229   8.527  1.00 38.83     0.007 C 
HETATM   26  C22 BCR F 101     -46.836 144.250   8.046  1.00 38.49    -0.062 C 
HETATM   27  C23 BCR F 101     -47.992 144.700   8.789  1.00 39.36     0.007 C 
HETATM   28  C24 BCR F 101     -48.610 145.854   8.501  1.00 56.86     0.009 C 
HETATM   29  C25 BCR F 101     -49.959 146.210   8.929  1.00 57.44    -0.048 C 
HETATM   30  C26 BCR F 101     -50.950 146.312   8.049  1.00 61.92    -0.077 C 
HETATM   31  C27 BCR F 101     -52.333 146.644   8.397  1.00 63.69     0.034 C 
HETATM   32  C28 BCR F 101     -52.600 146.129   9.783  1.00 63.72     0.005 C 
HETATM   33  C29 BCR F 101     -51.631 146.805  10.707  1.00 59.25     0.014 C 
HETATM   34  C30 BCR F 101     -50.185 146.491  10.384  1.00 65.60    -0.020 C 
HETATM   35  C35 BCR F 101     -39.606 136.490  11.282  1.00 33.23     0.048 C 
HETATM   36  C36 BCR F 101     -42.715 141.373   6.699  1.00 21.57     0.048 C 
HETATM   37  C37 BCR F 101     -46.689 144.761   6.677  1.00 27.86     0.048 C 
HETATM   38  C38 BCR F 101     -50.779 146.071   6.603  1.00 68.49     0.044 C 
HETATM   39  C39 BCR F 101     -49.695 145.347  11.253  1.00 75.29     0.020 C 
HETATM   40  C40 BCR F 101     -49.412 147.734  10.814  1.00 67.84     0.020 C 
ENDROOT
TORSDOF 10
