REMARK VINA RESULT:    -7.785      1.688     16.471
REMARK INTER + INTRA:         -10.389
REMARK INTER:                  -8.027
REMARK INTRA:                  -2.361
REMARK UNBOUND:                -2.604
REMARK  0 active torsions:
REMARK  status: ('A' for Active; 'I' for Inactive)
REMARK       I    between atoms: C6_6  and  C7_7 
REMARK       I    between atoms: C8_8  and  C9_9 
REMARK       I    between atoms: C10_10  and  C11_11 
REMARK       I    between atoms: C12_16  and  C13_17 
REMARK       I    between atoms: C14_18  and  C15_19 
REMARK       I    between atoms: C16_20  and  C17_21 
REMARK       I    between atoms: C18_22  and  C19_23 
REMARK       I    between atoms: C20_24  and  C21_25 
REMARK       I    between atoms: C22_26  and  C23_27 
REMARK       I    between atoms: C24_28  and  C25_29 
ROOT
HETATM    1  C1  BCR B 618     -50.041 148.856   8.754  1.00 27.36    -0.020 C 
HETATM    2  C2  BCR B 618     -51.273 149.697   9.122  1.00 29.24     0.014 C 
HETATM    3  C3  BCR B 618     -52.129 149.017  10.192  1.00 30.20     0.005 C 
HETATM    4  C4  BCR B 618     -52.600 147.626   9.824  1.00 26.75     0.034 C 
HETATM    5  C5  BCR B 618     -51.567 146.836   9.087  1.00 26.89    -0.077 C 
HETATM    6  C6  BCR B 618     -50.416 147.387   8.572  1.00 26.00    -0.048 C 
HETATM    7  C7  BCR B 618     -49.498 146.504   7.807  1.00 23.65     0.009 C 
HETATM    8  C8  BCR B 618     -48.438 145.882   8.401  1.00 23.63     0.007 C 
HETATM    9  C9  BCR B 618     -47.525 145.020   7.623  1.00 27.01    -0.062 C 
HETATM   10  C10 BCR B 618     -46.611 144.257   8.242  1.00 25.20     0.007 C 
HETATM   11  C11 BCR B 618     -45.672 143.366   7.568  1.00 28.58     0.001 C 
HETATM   12  C33 BCR B 618     -51.900 145.389   8.818  1.00 28.44     0.044 C 
HETATM   13  C31 BCR B 618     -48.941 149.013   9.805  1.00 28.24     0.020 C 
HETATM   14  C32 BCR B 618     -49.516 149.481   7.411  1.00 26.34     0.020 C 
HETATM   15  C34 BCR B 618     -47.577 145.056   6.102  1.00 27.67     0.048 C 
HETATM   16  C12 BCR B 618     -44.744 142.819   8.402  1.00 27.69     0.007 C 
HETATM   17  C13 BCR B 618     -43.805 141.779   7.941  1.00 26.09    -0.062 C 
HETATM   18  C14 BCR B 618     -42.972 141.144   8.835  1.00 26.27     0.007 C 
HETATM   19  C15 BCR B 618     -42.096 140.007   8.425  1.00 24.53     0.001 C 
HETATM   20  C16 BCR B 618     -41.354 139.429   9.385  1.00 25.46     0.001 C 
HETATM   21  C17 BCR B 618     -40.523 138.283   9.038  1.00 26.22     0.007 C 
HETATM   22  C18 BCR B 618     -39.841 137.500   9.912  1.00 26.11    -0.062 C 
HETATM   23  C19 BCR B 618     -39.040 136.369   9.364  1.00 24.69     0.007 C 
HETATM   24  C20 BCR B 618     -38.323 135.472  10.120  1.00 23.86     0.001 C 
HETATM   25  C21 BCR B 618     -37.591 134.419   9.417  1.00 20.93     0.007 C 
HETATM   26  C22 BCR B 618     -37.033 133.323  10.013  1.00 20.93    -0.062 C 
HETATM   27  C23 BCR B 618     -36.298 132.421   9.127  1.00 23.42     0.007 C 
HETATM   28  C24 BCR B 618     -35.615 131.369   9.608  1.00 24.63     0.009 C 
HETATM   29  C25 BCR B 618     -34.795 130.481   8.722  1.00 27.79    -0.048 C 
HETATM   30  C26 BCR B 618     -35.173 129.946   7.526  1.00 29.36    -0.077 C 
HETATM   31  C27 BCR B 618     -34.251 129.036   6.684  1.00 30.45     0.034 C 
HETATM   32  C28 BCR B 618     -32.995 128.499   7.408  1.00 28.93     0.005 C 
HETATM   33  C29 BCR B 618     -32.389 129.614   8.276  1.00 28.29     0.014 C 
HETATM   34  C30 BCR B 618     -33.377 130.195   9.318  1.00 29.32    -0.020 C 
HETATM   35  C35 BCR B 618     -43.935 141.340   6.541  1.00 23.34     0.048 C 
HETATM   36  C36 BCR B 618     -39.827 137.725  11.388  1.00 27.04     0.048 C 
HETATM   37  C37 BCR B 618     -37.160 132.983  11.509  1.00 22.71     0.048 C 
HETATM   38  C38 BCR B 618     -36.488 130.204   6.857  1.00 27.49     0.044 C 
HETATM   39  C39 BCR B 618     -32.727 131.518   9.765  1.00 24.52     0.020 C 
HETATM   40  C40 BCR B 618     -33.575 129.296  10.553  1.00 27.42     0.020 C 
ENDROOT
TORSDOF 10
