REMARK VINA RESULT:    -8.408      0.633     16.364
REMARK INTER + INTRA:         -10.991
REMARK INTER:                  -8.508
REMARK INTRA:                  -2.483
REMARK UNBOUND:                -2.583
REMARK  0 active torsions:
REMARK  status: ('A' for Active; 'I' for Inactive)
REMARK       I    between atoms: C6_6  and  C7_7 
REMARK       I    between atoms: C8_8  and  C9_9 
REMARK       I    between atoms: C10_10  and  C11_11 
REMARK       I    between atoms: C12_16  and  C13_17 
REMARK       I    between atoms: C14_18  and  C15_19 
REMARK       I    between atoms: C16_20  and  C17_21 
REMARK       I    between atoms: C18_22  and  C19_23 
REMARK       I    between atoms: C20_24  and  C21_25 
REMARK       I    between atoms: C22_26  and  C23_27 
REMARK       I    between atoms: C24_28  and  C25_29 
ROOT
HETATM    1  C1  BCR C 515     -32.277 129.923   7.561  1.00 64.45    -0.020 C 
HETATM    2  C2  BCR C 515     -31.446 128.865   6.854  1.00 66.34     0.014 C 
HETATM    3  C3  BCR C 515     -32.063 128.525   5.510  1.00 64.94     0.005 C 
HETATM    4  C4  BCR C 515     -33.403 127.856   5.745  1.00 69.15     0.034 C 
HETATM    5  C5  BCR C 515     -34.275 128.700   6.653  1.00 67.88    -0.077 C 
HETATM    6  C6  BCR C 515     -33.767 129.637   7.481  1.00 62.48    -0.048 C 
HETATM    7  C7  BCR C 515     -34.683 130.421   8.353  1.00 58.32     0.009 C 
HETATM    8  C8  BCR C 515     -35.380 131.483   7.931  1.00 62.07     0.007 C 
HETATM    9  C9  BCR C 515     -36.284 132.204   8.856  1.00 70.38    -0.062 C 
HETATM   10  C10 BCR C 515     -37.149 133.106   8.354  1.00 58.20     0.007 C 
HETATM   11  C11 BCR C 515     -38.106 133.883   9.152  1.00 74.05     0.001 C 
HETATM   12  C33 BCR C 515     -35.756 128.440   6.598  1.00 58.01     0.044 C 
HETATM   13  C31 BCR C 515     -31.982 131.261   6.897  1.00 56.77     0.020 C 
HETATM   14  C32 BCR C 515     -31.879 129.974   9.031  1.00 77.72     0.020 C 
HETATM   15  C34 BCR C 515     -36.231 131.905  10.329  1.00 64.61     0.048 C 
HETATM   16  C12 BCR C 515     -38.880 134.782   8.526  1.00 68.22     0.007 C 
HETATM   17  C13 BCR C 515     -39.885 135.613   9.226  1.00 69.92    -0.062 C 
HETATM   18  C14 BCR C 515     -40.629 136.485   8.516  1.00 61.13     0.007 C 
HETATM   19  C15 BCR C 515     -41.646 137.331   9.154  1.00 67.07     0.001 C 
HETATM   20  C16 BCR C 515     -42.490 138.072   8.432  1.00 65.97     0.001 C 
HETATM   21  C17 BCR C 515     -43.491 138.909   9.100  1.00 63.92     0.007 C 
HETATM   22  C18 BCR C 515     -44.215 139.825   8.424  1.00 72.24    -0.062 C 
HETATM   23  C19 BCR C 515     -45.201 140.666   9.143  1.00 72.11     0.007 C 
HETATM   24  C20 BCR C 515     -45.861 141.663   8.546  1.00 62.37     0.001 C 
HETATM   25  C21 BCR C 515     -46.785 142.452   9.360  1.00 64.97     0.007 C 
HETATM   26  C22 BCR C 515     -47.293 143.643   8.977  1.00 64.05    -0.062 C 
HETATM   27  C23 BCR C 515     -48.118 144.262   9.841  1.00 66.35     0.007 C 
HETATM   28  C24 BCR C 515     -48.895 145.321   9.582  1.00 62.33     0.009 C 
HETATM   29  C25 BCR C 515     -49.795 145.910  10.620  1.00 72.77    -0.048 C 
HETATM   30  C26 BCR C 515     -50.856 145.226  11.103  1.00 78.06    -0.077 C 
HETATM   31  C27 BCR C 515     -51.794 145.788  12.152  1.00 80.00     0.034 C 
HETATM   32  C28 BCR C 515     -51.190 146.974  12.877  1.00 71.02     0.005 C 
HETATM   33  C29 BCR C 515     -50.663 147.937  11.834  1.00 72.75     0.014 C 
HETATM   34  C30 BCR C 515     -49.483 147.309  11.114  1.00 66.18    -0.020 C 
HETATM   35  C35 BCR C 515     -40.088 135.481  10.710  1.00 51.91     0.048 C 
HETATM   36  C36 BCR C 515     -43.998 140.029   6.953  1.00 60.56     0.048 C 
HETATM   37  C37 BCR C 515     -46.959 144.234   7.636  1.00 49.66     0.048 C 
HETATM   38  C38 BCR C 515     -51.191 143.842  10.627  1.00 83.49     0.044 C 
HETATM   39  C39 BCR C 515     -48.301 147.236  12.073  1.00 61.85     0.020 C 
HETATM   40  C40 BCR C 515     -49.151 148.179   9.912  1.00 69.80     0.020 C 
ENDROOT
TORSDOF 10
