REMARK VINA RESULT:    -6.426      0.000      0.000
REMARK INTER + INTRA:         -10.649
REMARK INTER:                  -6.426
REMARK INTRA:                  -4.224
REMARK UNBOUND:                -4.224
REMARK  0 active torsions:
REMARK  status: ('A' for Active; 'I' for Inactive)
REMARK       I    between atoms: C6_6  and  C7_7 
REMARK       I    between atoms: C8_8  and  C9_9 
REMARK       I    between atoms: C10_10  and  C11_11 
REMARK       I    between atoms: C12_16  and  C13_17 
REMARK       I    between atoms: C14_18  and  C15_19 
REMARK       I    between atoms: C16_20  and  C17_21 
REMARK       I    between atoms: C18_22  and  C19_23 
REMARK       I    between atoms: C20_24  and  C21_25 
REMARK       I    between atoms: C22_26  and  C23_27 
REMARK       I    between atoms: C24_28  and  C25_29 
ROOT
HETATM    1  C1  BCR C 530     -50.334 144.453   9.135  1.00 33.21    -0.020 C 
HETATM    2  C2  BCR C 530     -51.715 144.948   9.515  1.00 32.41     0.014 C 
HETATM    3  C3  BCR C 530     -51.844 145.111  11.010  1.00 36.02     0.005 C 
HETATM    4  C4  BCR C 530     -50.838 146.153  11.487  1.00 35.52     0.034 C 
HETATM    5  C5  BCR C 530     -49.434 145.981  10.908  1.00 34.68    -0.077 C 
HETATM    6  C6  BCR C 530     -49.199 145.233   9.835  1.00 31.56    -0.048 C 
HETATM    7  C7  BCR C 530     -47.860 144.987   9.250  1.00 33.72     0.009 C 
HETATM    8  C8  BCR C 530     -46.941 144.233   9.860  1.00 31.52     0.007 C 
HETATM    9  C9  BCR C 530     -45.669 143.865   9.210  1.00 34.03    -0.062 C 
HETATM   10  C10 BCR C 530     -44.845 142.972   9.826  1.00 32.90     0.007 C 
HETATM   11  C11 BCR C 530     -43.622 142.451   9.193  1.00 36.03     0.001 C 
HETATM   12  C33 BCR C 530     -48.308 146.738  11.595  1.00 35.42     0.044 C 
HETATM   13  C31 BCR C 530     -50.291 144.604   7.625  1.00 29.78     0.020 C 
HETATM   14  C32 BCR C 530     -50.207 142.962   9.501  1.00 30.50     0.020 C 
HETATM   15  C34 BCR C 530     -45.311 144.430   7.850  1.00 37.10     0.048 C 
HETATM   16  C12 BCR C 530     -43.090 141.297   9.661  1.00 33.34     0.007 C 
HETATM   17  C13 BCR C 530     -41.960 140.578   9.031  1.00 36.71    -0.062 C 
HETATM   18  C14 BCR C 530     -41.571 139.392   9.579  1.00 36.49     0.007 C 
HETATM   19  C15 BCR C 530     -40.512 138.490   9.091  1.00 36.03     0.001 C 
HETATM   20  C16 BCR C 530     -40.148 137.381   9.790  1.00 34.23     0.001 C 
HETATM   21  C17 BCR C 530     -39.109 136.480   9.279  1.00 30.97     0.007 C 
HETATM   22  C18 BCR C 530     -38.696 135.336   9.918  1.00 31.31    -0.062 C 
HETATM   23  C19 BCR C 530     -37.648 134.533   9.234  1.00 30.42     0.007 C 
HETATM   24  C20 BCR C 530     -37.244 133.298   9.556  1.00 29.22     0.001 C 
HETATM   25  C21 BCR C 530     -36.256 132.663   8.682  1.00 30.56     0.007 C 
HETATM   26  C22 BCR C 530     -35.992 131.337   8.694  1.00 31.69    -0.062 C 
HETATM   27  C23 BCR C 530     -34.988 130.786   7.751  1.00 30.90     0.007 C 
HETATM   28  C24 BCR C 530     -34.791 129.467   7.732  1.00 30.96     0.009 C 
HETATM   29  C25 BCR C 530     -33.819 128.787   6.840  1.00 33.85    -0.048 C 
HETATM   30  C26 BCR C 530     -32.485 128.936   7.054  1.00 31.45    -0.077 C 
HETATM   31  C27 BCR C 530     -31.460 128.251   6.177  1.00 29.19     0.034 C 
HETATM   32  C28 BCR C 530     -32.028 127.713   4.852  1.00 32.92     0.005 C 
HETATM   33  C29 BCR C 530     -33.335 126.960   5.138  1.00 34.47     0.014 C 
HETATM   34  C30 BCR C 530     -34.392 127.893   5.739  1.00 34.23    -0.020 C 
HETATM   35  C35 BCR C 530     -41.355 141.087   7.748  1.00 35.96     0.048 C 
HETATM   36  C36 BCR C 530     -39.300 134.846  11.223  1.00 27.59     0.048 C 
HETATM   37  C37 BCR C 530     -36.721 130.405   9.649  1.00 31.85     0.048 C 
HETATM   38  C38 BCR C 530     -31.970 129.794   8.185  1.00 30.55     0.044 C 
HETATM   39  C39 BCR C 530     -35.458 126.989   6.413  1.00 34.92     0.020 C 
HETATM   40  C40 BCR C 530     -35.028 128.727   4.629  1.00 32.99     0.020 C 
ENDROOT
TORSDOF 10
