REMARK VINA RESULT:    -6.682      1.604     15.964
REMARK INTER + INTRA:          -9.929
REMARK INTER:                  -5.636
REMARK INTRA:                  -4.293
REMARK UNBOUND:                -3.247
REMARK  0 active torsions:
REMARK  status: ('A' for Active; 'I' for Inactive)
REMARK       I    between atoms: C6_6  and  C7_7 
REMARK       I    between atoms: C8_8  and  C9_9 
REMARK       I    between atoms: C10_10  and  C11_11 
REMARK       I    between atoms: C12_16  and  C13_17 
REMARK       I    between atoms: C14_18  and  C15_19 
REMARK       I    between atoms: C16_20  and  C17_21 
REMARK       I    between atoms: C18_22  and  C19_23 
REMARK       I    between atoms: C20_24  and  C21_25 
REMARK       I    between atoms: C22_26  and  C23_27 
REMARK       I    between atoms: C24_28  and  C25_29 
ROOT
HETATM    1  C1  BCR K 102     -50.185 145.051   8.497  1.00 44.36    -0.020 C 
HETATM    2  C2  BCR K 102     -51.606 145.318   8.963  1.00 45.66     0.014 C 
HETATM    3  C3  BCR K 102     -51.706 145.352  10.471  1.00 45.76     0.005 C 
HETATM    4  C4  BCR K 102     -50.798 146.414  11.055  1.00 46.84     0.034 C 
HETATM    5  C5  BCR K 102     -49.414 146.363  10.465  1.00 45.49    -0.077 C 
HETATM    6  C6  BCR K 102     -49.122 145.593   9.422  1.00 44.85    -0.048 C 
HETATM    7  C7  BCR K 102     -47.738 145.254   9.054  1.00 41.42     0.009 C 
HETATM    8  C8  BCR K 102     -46.939 144.479   9.773  1.00 39.50     0.007 C 
HETATM    9  C9  BCR K 102     -45.601 144.192   9.233  1.00 44.88    -0.062 C 
HETATM   10  C10 BCR K 102     -45.058 143.001   9.502  1.00 44.81     0.007 C 
HETATM   11  C11 BCR K 102     -43.773 142.521   9.003  1.00 45.72     0.001 C 
HETATM   12  C33 BCR K 102     -48.367 147.241  11.083  1.00 46.47     0.044 C 
HETATM   13  C31 BCR K 102     -49.983 145.690   7.134  1.00 48.64     0.020 C 
HETATM   14  C32 BCR K 102     -49.977 143.553   8.383  1.00 40.14     0.020 C 
HETATM   15  C34 BCR K 102     -44.886 145.194   8.388  1.00 47.98     0.048 C 
HETATM   16  C12 BCR K 102     -43.502 141.265   9.336  1.00 46.57     0.007 C 
HETATM   17  C13 BCR K 102     -42.317 140.494   8.928  1.00 43.65    -0.062 C 
HETATM   18  C14 BCR K 102     -42.008 139.357   9.567  1.00 41.27     0.007 C 
HETATM   19  C15 BCR K 102     -40.871 138.558   9.133  1.00 46.01     0.001 C 
HETATM   20  C16 BCR K 102     -40.544 137.424   9.746  1.00 47.96     0.001 C 
HETATM   21  C17 BCR K 102     -39.423 136.651   9.219  1.00 48.87     0.007 C 
HETATM   22  C18 BCR K 102     -39.014 135.490   9.753  1.00 44.87    -0.062 C 
HETATM   23  C19 BCR K 102     -37.901 134.767   9.123  1.00 44.84     0.007 C 
HETATM   24  C20 BCR K 102     -37.562 133.546   9.519  1.00 40.19     0.001 C 
HETATM   25  C21 BCR K 102     -36.476 132.909   8.800  1.00 40.61     0.007 C 
HETATM   26  C22 BCR K 102     -36.321 131.583   8.778  1.00 41.40    -0.062 C 
HETATM   27  C23 BCR K 102     -35.223 131.007   7.988  1.00 40.78     0.007 C 
HETATM   28  C24 BCR K 102     -35.017 129.698   7.974  1.00 40.34     0.009 C 
HETATM   29  C25 BCR K 102     -33.956 129.067   7.170  1.00 39.31    -0.048 C 
HETATM   30  C26 BCR K 102     -32.665 129.145   7.483  1.00 41.98    -0.077 C 
HETATM   31  C27 BCR K 102     -31.575 128.606   6.595  1.00 42.86     0.034 C 
HETATM   32  C28 BCR K 102     -32.103 128.354   5.200  1.00 43.57     0.005 C 
HETATM   33  C29 BCR K 102     -33.358 127.512   5.293  1.00 41.79     0.014 C 
HETATM   34  C30 BCR K 102     -34.452 128.291   5.990  1.00 41.39    -0.020 C 
HETATM   35  C35 BCR K 102     -41.505 140.948   7.761  1.00 47.44     0.048 C 
HETATM   36  C36 BCR K 102     -39.678 134.906  10.957  1.00 40.18     0.048 C 
HETATM   37  C37 BCR K 102     -37.263 130.692   9.524  1.00 41.35     0.048 C 
HETATM   38  C38 BCR K 102     -32.240 129.766   8.773  1.00 46.90     0.044 C 
HETATM   39  C39 BCR K 102     -35.511 127.350   6.538  1.00 44.18     0.020 C 
HETATM   40  C40 BCR K 102     -35.102 129.245   5.010  1.00 41.68     0.020 C 
ENDROOT
TORSDOF 10
