REMARK VINA RESULT:    -5.947      1.899      4.185
REMARK INTER + INTRA:         -12.593
REMARK INTER:                 -10.797
REMARK INTRA:                  -1.795
REMARK UNBOUND:                -6.646
REMARK  0 active torsions:
REMARK  status: ('A' for Active; 'I' for Inactive)
REMARK       I    between atoms: C6_6  and  C7_7 
REMARK       I    between atoms: C8_8  and  C9_9 
REMARK       I    between atoms: C10_10  and  C11_11 
REMARK       I    between atoms: C12_16  and  C13_17 
REMARK       I    between atoms: C14_18  and  C15_19 
REMARK       I    between atoms: C16_20  and  C17_21 
REMARK       I    between atoms: C18_22  and  C19_23 
REMARK       I    between atoms: C20_24  and  C21_25 
REMARK       I    between atoms: C22_26  and  C23_27 
REMARK       I    between atoms: C24_28  and  C25_29 
ROOT
HETATM    1  C1  BCR B 617     -34.010 127.119   7.201  1.00 26.29    -0.020 C 
HETATM    2  C2  BCR B 617     -32.920 126.327   6.496  1.00 24.49     0.014 C 
HETATM    3  C3  BCR B 617     -32.659 126.873   5.111  1.00 22.61     0.005 C 
HETATM    4  C4  BCR B 617     -32.242 128.323   5.145  1.00 25.50     0.034 C 
HETATM    5  C5  BCR B 617     -32.789 129.086   6.319  1.00 27.16    -0.077 C 
HETATM    6  C6  BCR B 617     -33.701 128.585   7.167  1.00 26.27    -0.048 C 
HETATM    7  C7  BCR B 617     -34.447 129.435   8.110  1.00 19.27     0.009 C 
HETATM    8  C8  BCR B 617     -35.365 130.302   7.683  1.00 21.60     0.007 C 
HETATM    9  C9  BCR B 617     -36.136 131.153   8.611  1.00 23.86    -0.062 C 
HETATM   10  C10 BCR B 617     -36.837 132.176   8.116  1.00 19.60     0.007 C 
HETATM   11  C11 BCR B 617     -37.642 133.091   8.906  1.00 18.33     0.001 C 
HETATM   12  C33 BCR B 617     -32.256 130.472   6.492  1.00 29.92     0.044 C 
HETATM   13  C31 BCR B 617     -34.105 126.652   8.644  1.00 24.31     0.020 C 
HETATM   14  C32 BCR B 617     -35.337 126.941   6.480  1.00 18.56     0.020 C 
HETATM   15  C34 BCR B 617     -36.143 130.856  10.076  1.00 23.81     0.048 C 
HETATM   16  C12 BCR B 617     -38.600 133.775   8.279  1.00 17.62     0.007 C 
HETATM   17  C13 BCR B 617     -39.484 134.738   8.953  1.00 18.11    -0.062 C 
HETATM   18  C14 BCR B 617     -40.316 135.500   8.210  1.00 18.92     0.007 C 
HETATM   19  C15 BCR B 617     -41.219 136.493   8.796  1.00 19.09     0.001 C 
HETATM   20  C16 BCR B 617     -41.788 137.465   8.077  1.00 23.01     0.001 C 
HETATM   21  C17 BCR B 617     -42.677 138.422   8.738  1.00 24.11     0.007 C 
HETATM   22  C18 BCR B 617     -43.342 139.428   8.144  1.00 19.95    -0.062 C 
HETATM   23  C19 BCR B 617     -44.197 140.281   8.963  1.00 21.01     0.007 C 
HETATM   24  C20 BCR B 617     -44.868 141.308   8.454  1.00 25.10     0.001 C 
HETATM   25  C21 BCR B 617     -45.712 142.062   9.376  1.00 22.05     0.007 C 
HETATM   26  C22 BCR B 617     -46.307 143.217   9.091  1.00 21.59    -0.062 C 
HETATM   27  C23 BCR B 617     -47.131 143.847  10.128  1.00 25.46     0.007 C 
HETATM   28  C24 BCR B 617     -47.571 145.092   9.989  1.00 27.51     0.009 C 
HETATM   29  C25 BCR B 617     -48.428 145.781  10.978  1.00 24.70    -0.048 C 
HETATM   30  C26 BCR B 617     -47.975 146.194  12.157  1.00 30.61    -0.077 C 
HETATM   31  C27 BCR B 617     -48.860 146.983  13.076  1.00 27.25     0.034 C 
HETATM   32  C28 BCR B 617     -50.178 146.248  13.077  1.00 25.90     0.005 C 
HETATM   33  C29 BCR B 617     -50.799 146.351  11.701  1.00 30.03     0.014 C 
HETATM   34  C30 BCR B 617     -49.845 146.053  10.552  1.00 27.09    -0.020 C 
HETATM   35  C35 BCR B 617     -39.460 134.868  10.444  1.00 15.67     0.048 C 
HETATM   36  C36 BCR B 617     -43.244 139.701   6.687  1.00 21.62     0.048 C 
HETATM   37  C37 BCR B 617     -46.170 143.865   7.750  1.00 24.04     0.048 C 
HETATM   38  C38 BCR B 617     -46.591 145.877  12.616  1.00 30.71     0.044 C 
HETATM   39  C39 BCR B 617     -49.777 147.229   9.596  1.00 28.41     0.020 C 
HETATM   40  C40 BCR B 617     -50.400 144.853   9.807  1.00 28.54     0.020 C 
ENDROOT
TORSDOF 10
