REMARK VINA RESULT:    -4.014      2.179      3.423
REMARK INTER + INTRA:          -7.428
REMARK INTER:                  -6.284
REMARK INTRA:                  -1.144
REMARK UNBOUND:                -3.414
REMARK  0 active torsions:
REMARK  status: ('A' for Active; 'I' for Inactive)
REMARK       I    between atoms: C6_6  and  C7_7 
REMARK       I    between atoms: C8_8  and  C9_9 
REMARK       I    between atoms: C10_10  and  C11_11 
REMARK       I    between atoms: C12_16  and  C13_17 
REMARK       I    between atoms: C14_18  and  C15_19 
REMARK       I    between atoms: C16_20  and  C17_21 
REMARK       I    between atoms: C18_22  and  C19_23 
REMARK       I    between atoms: C20_24  and  C21_25 
REMARK       I    between atoms: C22_26  and  C23_27 
REMARK       I    between atoms: C24_28  and  C25_29 
ROOT
HETATM    1  C1  BCR D 403     -51.393 145.850  12.230  1.00 31.64    -0.020 C 
HETATM    2  C2  BCR D 403     -51.908 146.749  13.347  1.00 36.91     0.014 C 
HETATM    3  C3  BCR D 403     -50.777 147.239  14.235  1.00 34.30     0.005 C 
HETATM    4  C4  BCR D 403     -50.140 146.056  14.931  1.00 20.39     0.034 C 
HETATM    5  C5  BCR D 403     -49.812 144.942  13.967  1.00 30.73    -0.077 C 
HETATM    6  C6  BCR D 403     -50.371 144.840  12.737  1.00 34.13    -0.048 C 
HETATM    7  C7  BCR D 403     -50.013 143.702  11.839  1.00 22.47     0.009 C 
HETATM    8  C8  BCR D 403     -48.861 143.551  11.169  1.00 27.46     0.007 C 
HETATM    9  C9  BCR D 403     -48.663 142.338  10.340  1.00 32.57    -0.062 C 
HETATM   10  C10 BCR D 403     -47.421 141.904  10.068  1.00 21.68     0.007 C 
HETATM   11  C11 BCR D 403     -47.115 140.689   9.301  1.00 23.10     0.001 C 
HETATM   12  C33 BCR D 403     -48.820 143.927  14.472  1.00 25.91     0.044 C 
HETATM   13  C31 BCR D 403     -50.777 146.680  11.103  1.00 40.32     0.020 C 
HETATM   14  C32 BCR D 403     -52.600 145.089  11.694  1.00 29.64     0.020 C 
HETATM   15  C34 BCR D 403     -49.858 141.605   9.802  1.00 31.14     0.048 C 
HETATM   16  C12 BCR D 403     -45.821 140.354   9.237  1.00 20.09     0.007 C 
HETATM   17  C13 BCR D 403     -45.262 139.139   8.619  1.00 19.95    -0.062 C 
HETATM   18  C14 BCR D 403     -43.915 138.954   8.619  1.00 30.05     0.007 C 
HETATM   19  C15 BCR D 403     -43.279 137.727   8.111  1.00 30.83     0.001 C 
HETATM   20  C16 BCR D 403     -41.986 137.469   8.385  1.00 27.80     0.001 C 
HETATM   21  C17 BCR D 403     -41.344 136.205   7.984  1.00 19.50     0.007 C 
HETATM   22  C18 BCR D 403     -40.058 135.876   8.287  1.00 20.25    -0.062 C 
HETATM   23  C19 BCR D 403     -39.552 134.526   7.920  1.00 20.98     0.007 C 
HETATM   24  C20 BCR D 403     -38.311 134.076   8.146  1.00 19.16     0.001 C 
HETATM   25  C21 BCR D 403     -38.020 132.677   7.805  1.00 32.99     0.007 C 
HETATM   26  C22 BCR D 403     -36.837 132.055   7.986  1.00 28.53    -0.062 C 
HETATM   27  C23 BCR D 403     -36.752 130.739   7.690  1.00 31.07     0.007 C 
HETATM   28  C24 BCR D 403     -36.028 129.917   8.482  1.00 50.55     0.009 C 
HETATM   29  C25 BCR D 403     -35.910 128.437   8.306  1.00 52.69    -0.048 C 
HETATM   30  C26 BCR D 403     -36.878 127.673   8.825  1.00 59.17    -0.077 C 
HETATM   31  C27 BCR D 403     -36.855 126.173   8.700  1.00 58.46     0.034 C 
HETATM   32  C28 BCR D 403     -36.315 125.850   7.324  1.00 49.26     0.005 C 
HETATM   33  C29 BCR D 403     -34.874 126.311   7.328  1.00 44.20     0.014 C 
HETATM   34  C30 BCR D 403     -34.730 127.804   7.591  1.00 46.31    -0.020 C 
HETATM   35  C35 BCR D 403     -46.188 138.076   8.081  1.00 22.68     0.048 C 
HETATM   36  C36 BCR D 403     -39.169 136.819   9.047  1.00 19.40     0.048 C 
HETATM   37  C37 BCR D 403     -35.666 132.810   8.545  1.00 20.07     0.048 C 
HETATM   38  C38 BCR D 403     -38.037 128.298   9.544  1.00 70.87     0.044 C 
HETATM   39  C39 BCR D 403     -34.554 128.492   6.248  1.00 46.29     0.020 C 
HETATM   40  C40 BCR D 403     -33.499 127.998   8.463  1.00 32.90     0.020 C 
ENDROOT
TORSDOF 10
