REMARK VINA RESULT:   -10.206      2.436     16.411
REMARK INTER + INTRA:         -13.019
REMARK INTER:                 -10.725
REMARK INTRA:                  -2.294
REMARK UNBOUND:                -2.813
REMARK  0 active torsions:
REMARK  status: ('A' for Active; 'I' for Inactive)
REMARK       I    between atoms: C6_6  and  C7_7 
REMARK       I    between atoms: C8_8  and  C9_9 
REMARK       I    between atoms: C10_10  and  C11_11 
REMARK       I    between atoms: C12_16  and  C13_17 
REMARK       I    between atoms: C14_18  and  C15_19 
REMARK       I    between atoms: C16_20  and  C17_21 
REMARK       I    between atoms: C18_22  and  C19_23 
REMARK       I    between atoms: C20_24  and  C21_25 
REMARK       I    between atoms: C22_26  and  C23_27 
REMARK       I    between atoms: C24_28  and  C25_29 
ROOT
HETATM    1  C1  BCR A 410     -50.976 146.093   8.982  1.00 50.64    -0.020 C 
HETATM    2  C2  BCR A 410     -51.873 147.022   9.786  1.00 44.64     0.014 C 
HETATM    3  C3  BCR A 410     -51.412 147.060  11.226  1.00 41.78     0.005 C 
HETATM    4  C4  BCR A 410     -50.070 147.756  11.265  1.00 42.03     0.034 C 
HETATM    5  C5  BCR A 410     -49.104 147.077  10.319  1.00 39.65    -0.077 C 
HETATM    6  C6  BCR A 410     -49.505 146.314   9.283  1.00 44.55    -0.048 C 
HETATM    7  C7  BCR A 410     -48.514 145.665   8.377  1.00 44.34     0.009 C 
HETATM    8  C8  BCR A 410     -47.712 144.684   8.811  1.00 45.94     0.007 C 
HETATM    9  C9  BCR A 410     -46.717 143.982   7.976  1.00 39.93    -0.062 C 
HETATM   10  C10 BCR A 410     -45.958 143.032   8.552  1.00 44.48     0.007 C 
HETATM   11  C11 BCR A 410     -44.951 142.229   7.860  1.00 36.88     0.001 C 
HETATM   12  C33 BCR A 410     -47.658 147.317  10.609  1.00 34.70     0.044 C 
HETATM   13  C31 BCR A 410     -51.208 146.358   7.498  1.00 36.72     0.020 C 
HETATM   14  C32 BCR A 410     -51.377 144.661   9.324  1.00 32.71     0.020 C 
HETATM   15  C34 BCR A 410     -46.574 144.315   6.521  1.00 43.39     0.048 C 
HETATM   16  C12 BCR A 410     -44.268 141.317   8.566  1.00 44.33     0.007 C 
HETATM   17  C13 BCR A 410     -43.247 140.416   7.979  1.00 40.83    -0.062 C 
HETATM   18  C14 BCR A 410     -42.759 139.406   8.745  1.00 44.56     0.007 C 
HETATM   19  C15 BCR A 410     -41.770 138.401   8.312  1.00 44.82     0.001 C 
HETATM   20  C16 BCR A 410     -41.302 137.453   9.152  1.00 40.83     0.001 C 
HETATM   21  C17 BCR A 410     -40.346 136.440   8.674  1.00 39.03     0.007 C 
HETATM   22  C18 BCR A 410     -39.818 135.404   9.378  1.00 45.07    -0.062 C 
HETATM   23  C19 BCR A 410     -38.888 134.490   8.673  1.00 37.89     0.007 C 
HETATM   24  C20 BCR A 410     -38.120 133.573   9.267  1.00 33.16     0.001 C 
HETATM   25  C21 BCR A 410     -37.244 132.762   8.402  1.00 38.89     0.007 C 
HETATM   26  C22 BCR A 410     -36.175 132.063   8.841  1.00 47.65    -0.062 C 
HETATM   27  C23 BCR A 410     -35.419 131.347   7.965  1.00 36.20     0.007 C 
HETATM   28  C24 BCR A 410     -34.409 130.558   8.358  1.00 32.05     0.009 C 
HETATM   29  C25 BCR A 410     -33.544 129.727   7.463  1.00 34.54    -0.048 C 
HETATM   30  C26 BCR A 410     -34.054 128.671   6.781  1.00 38.36    -0.077 C 
HETATM   31  C27 BCR A 410     -33.204 127.806   5.867  1.00 39.17     0.034 C 
HETATM   32  C28 BCR A 410     -31.891 128.487   5.469  1.00 35.95     0.005 C 
HETATM   33  C29 BCR A 410     -31.231 128.988   6.743  1.00 35.50     0.014 C 
HETATM   34  C30 BCR A 410     -32.068 130.096   7.371  1.00 37.31    -0.020 C 
HETATM   35  C35 BCR A 410     -42.793 140.641   6.560  1.00 35.03     0.048 C 
HETATM   36  C36 BCR A 410     -40.128 135.157  10.826  1.00 40.96     0.048 C 
HETATM   37  C37 BCR A 410     -35.839 132.080  10.301  1.00 31.89     0.048 C 
HETATM   38  C38 BCR A 410     -35.513 128.295   6.889  1.00 30.43     0.044 C 
HETATM   39  C39 BCR A 410     -31.891 131.363   6.536  1.00 34.95     0.020 C 
HETATM   40  C40 BCR A 410     -31.539 130.327   8.780  1.00 30.42     0.020 C 
ENDROOT
TORSDOF 10
