REMARK VINA RESULT:    -7.015      2.098     16.654
REMARK INTER + INTRA:         -13.810
REMARK INTER:                 -10.958
REMARK INTRA:                  -2.852
REMARK UNBOUND:                -6.795
REMARK  0 active torsions:
REMARK  status: ('A' for Active; 'I' for Inactive)
REMARK       I    between atoms: C6_6  and  C7_7 
REMARK       I    between atoms: C8_8  and  C9_9 
REMARK       I    between atoms: C10_10  and  C11_11 
REMARK       I    between atoms: C12_16  and  C13_17 
REMARK       I    between atoms: C14_18  and  C15_19 
REMARK       I    between atoms: C16_20  and  C17_21 
REMARK       I    between atoms: C18_22  and  C19_23 
REMARK       I    between atoms: C20_24  and  C21_25 
REMARK       I    between atoms: C22_26  and  C23_27 
REMARK       I    between atoms: C24_28  and  C25_29 
ROOT
HETATM    1  C1  BCR H 101     -31.914 130.055   6.987  1.00 30.28    -0.020 C 
HETATM    2  C2  BCR H 101     -31.021 129.076   6.223  1.00 26.44     0.014 C 
HETATM    3  C3  BCR H 101     -31.713 128.475   5.004  1.00 21.67     0.005 C 
HETATM    4  C4  BCR H 101     -32.881 127.661   5.504  1.00 20.41     0.034 C 
HETATM    5  C5  BCR H 101     -33.779 128.447   6.445  1.00 27.23    -0.077 C 
HETATM    6  C6  BCR H 101     -33.351 129.534   7.142  1.00 20.11    -0.048 C 
HETATM    7  C7  BCR H 101     -34.193 130.360   8.073  1.00 20.66     0.009 C 
HETATM    8  C8  BCR H 101     -35.517 130.586   8.062  1.00 22.34     0.007 C 
HETATM    9  C9  BCR H 101     -36.180 131.490   9.040  1.00 34.94    -0.062 C 
HETATM   10  C10 BCR H 101     -37.318 132.113   8.664  1.00 21.22     0.007 C 
HETATM   11  C11 BCR H 101     -38.082 133.065   9.484  1.00 28.87     0.001 C 
HETATM   12  C33 BCR H 101     -35.174 127.875   6.533  1.00 23.66     0.044 C 
HETATM   13  C31 BCR H 101     -31.993 131.376   6.227  1.00 19.41     0.020 C 
HETATM   14  C32 BCR H 101     -31.231 130.374   8.331  1.00 20.38     0.020 C 
HETATM   15  C34 BCR H 101     -35.577 131.740  10.393  1.00 27.97     0.048 C 
HETATM   16  C12 BCR H 101     -38.963 133.862   8.863  1.00 26.46     0.007 C 
HETATM   17  C13 BCR H 101     -39.813 134.887   9.522  1.00 41.86    -0.062 C 
HETATM   18  C14 BCR H 101     -40.594 135.682   8.750  1.00 35.90     0.007 C 
HETATM   19  C15 BCR H 101     -41.505 136.740   9.231  1.00 29.55     0.001 C 
HETATM   20  C16 BCR H 101     -42.122 137.553   8.344  1.00 30.73     0.001 C 
HETATM   21  C17 BCR H 101     -43.065 138.609   8.751  1.00 38.08     0.007 C 
HETATM   22  C18 BCR H 101     -43.551 139.538   7.889  1.00 36.14    -0.062 C 
HETATM   23  C19 BCR H 101     -44.509 140.573   8.354  1.00 38.04     0.007 C 
HETATM   24  C20 BCR H 101     -44.952 141.599   7.606  1.00 32.76     0.001 C 
HETATM   25  C21 BCR H 101     -45.903 142.537   8.224  1.00 37.36     0.007 C 
HETATM   26  C22 BCR H 101     -46.388 143.638   7.612  1.00 42.44    -0.062 C 
HETATM   27  C23 BCR H 101     -47.262 144.456   8.250  1.00 37.41     0.007 C 
HETATM   28  C24 BCR H 101     -47.804 145.548   7.673  1.00 28.37     0.009 C 
HETATM   29  C25 BCR H 101     -48.755 146.503   8.333  1.00 39.73    -0.048 C 
HETATM   30  C26 BCR H 101     -48.311 147.375   9.264  1.00 39.78    -0.077 C 
HETATM   31  C27 BCR H 101     -49.197 148.382   9.969  1.00 29.87     0.034 C 
HETATM   32  C28 BCR H 101     -50.687 148.172   9.761  1.00 35.21     0.005 C 
HETATM   33  C29 BCR H 101     -50.983 147.750   8.328  1.00 34.71     0.014 C 
HETATM   34  C30 BCR H 101     -50.217 146.490   7.917  1.00 48.99    -0.020 C 
HETATM   35  C35 BCR H 101     -39.779 135.033  11.016  1.00 43.67     0.048 C 
HETATM   36  C36 BCR H 101     -43.120 139.535   6.452  1.00 38.66     0.048 C 
HETATM   37  C37 BCR H 101     -45.923 143.949   6.221  1.00 32.15     0.048 C 
HETATM   38  C38 BCR H 101     -46.859 147.399   9.654  1.00 38.36     0.044 C 
HETATM   39  C39 BCR H 101     -50.283 146.389   6.397  1.00 45.00     0.020 C 
HETATM   40  C40 BCR H 101     -50.889 145.253   8.499  1.00 59.25     0.020 C 
ENDROOT
TORSDOF 10
