REMARK VINA RESULT:    -7.175      2.720      4.593
REMARK INTER + INTRA:         -13.468
REMARK INTER:                 -10.470
REMARK INTRA:                  -2.998
REMARK UNBOUND:                -6.293
REMARK  0 active torsions:
REMARK  status: ('A' for Active; 'I' for Inactive)
REMARK       I    between atoms: C6_6  and  C7_7 
REMARK       I    between atoms: C8_8  and  C9_9 
REMARK       I    between atoms: C10_10  and  C11_11 
REMARK       I    between atoms: C12_16  and  C13_17 
REMARK       I    between atoms: C14_18  and  C15_19 
REMARK       I    between atoms: C16_20  and  C17_21 
REMARK       I    between atoms: C18_22  and  C19_23 
REMARK       I    between atoms: C20_24  and  C21_25 
REMARK       I    between atoms: C22_26  and  C23_27 
REMARK       I    between atoms: C24_28  and  C25_29 
ROOT
HETATM    1  C1  BCR B 620     -44.123 149.279  12.100  1.00 38.40    -0.020 C 
HETATM    2  C2  BCR B 620     -44.443 150.352  13.119  1.00 47.49     0.014 C 
HETATM    3  C3  BCR B 620     -44.181 149.899  14.532  1.00 50.89     0.005 C 
HETATM    4  C4  BCR B 620     -45.007 148.656  14.879  1.00 46.16     0.034 C 
HETATM    5  C5  BCR B 620     -45.041 147.655  13.730  1.00 38.82    -0.077 C 
HETATM    6  C6  BCR B 620     -44.603 147.898  12.481  1.00 39.21    -0.048 C 
HETATM    7  C7  BCR B 620     -44.408 146.880  11.401  1.00 32.23     0.009 C 
HETATM    8  C8  BCR B 620     -44.102 145.608  11.631  1.00 34.61     0.007 C 
HETATM    9  C9  BCR B 620     -43.731 144.654  10.562  1.00 31.92    -0.062 C 
HETATM   10  C10 BCR B 620     -43.173 143.459  10.885  1.00 31.22     0.007 C 
HETATM   11  C11 BCR B 620     -42.676 142.477   9.892  1.00 31.10     0.001 C 
HETATM   12  C33 BCR B 620     -45.695 146.368  14.121  1.00 45.14     0.044 C 
HETATM   13  C31 BCR B 620     -42.591 149.159  11.847  1.00 38.78     0.020 C 
HETATM   14  C32 BCR B 620     -44.821 149.699  10.831  1.00 41.66     0.020 C 
HETATM   15  C34 BCR B 620     -44.000 145.050   9.163  1.00 35.43     0.048 C 
HETATM   16  C12 BCR B 620     -42.130 141.376  10.343  1.00 29.25     0.007 C 
HETATM   17  C13 BCR B 620     -41.559 140.313   9.527  1.00 26.81    -0.062 C 
HETATM   18  C14 BCR B 620     -40.988 139.231  10.157  1.00 28.71     0.007 C 
HETATM   19  C15 BCR B 620     -40.289 138.112   9.458  1.00 30.34     0.001 C 
HETATM   20  C16 BCR B 620     -39.710 137.123  10.162  1.00 27.99     0.001 C 
HETATM   21  C17 BCR B 620     -39.013 136.078   9.511  1.00 26.90     0.007 C 
HETATM   22  C18 BCR B 620     -38.375 135.045  10.121  1.00 28.89    -0.062 C 
HETATM   23  C19 BCR B 620     -37.628 134.072   9.272  1.00 22.77     0.007 C 
HETATM   24  C20 BCR B 620     -37.020 132.951   9.711  1.00 22.75     0.001 C 
HETATM   25  C21 BCR B 620     -36.323 132.100   8.768  1.00 23.82     0.007 C 
HETATM   26  C22 BCR B 620     -35.724 130.932   9.099  1.00 27.13    -0.062 C 
HETATM   27  C23 BCR B 620     -35.010 130.234   7.965  1.00 29.91     0.007 C 
HETATM   28  C24 BCR B 620     -34.237 129.141   8.117  1.00 28.77     0.009 C 
HETATM   29  C25 BCR B 620     -33.583 128.470   6.983  1.00 30.94    -0.048 C 
HETATM   30  C26 BCR B 620     -32.804 129.140   6.121  1.00 34.73    -0.077 C 
HETATM   31  C27 BCR B 620     -32.085 128.521   4.918  1.00 33.71     0.034 C 
HETATM   32  C28 BCR B 620     -32.712 127.184   4.524  1.00 33.02     0.005 C 
HETATM   33  C29 BCR B 620     -32.899 126.397   5.751  1.00 35.61     0.014 C 
HETATM   34  C30 BCR B 620     -33.870 127.001   6.786  1.00 35.27    -0.020 C 
HETATM   35  C35 BCR B 620     -41.591 140.438   8.042  1.00 27.35     0.048 C 
HETATM   36  C36 BCR B 620     -38.358 134.924  11.592  1.00 25.88     0.048 C 
HETATM   37  C37 BCR B 620     -35.671 130.423  10.547  1.00 25.34     0.048 C 
HETATM   38  C38 BCR B 620     -32.459 130.567   6.351  1.00 34.43     0.044 C 
HETATM   39  C39 BCR B 620     -33.674 126.226   8.107  1.00 41.91     0.020 C 
HETATM   40  C40 BCR B 620     -35.336 126.863   6.314  1.00 32.72     0.020 C 
ENDROOT
TORSDOF 10
