REMARK VINA RESULT:    -6.171      2.068     16.462
REMARK INTER + INTRA:         -10.744
REMARK INTER:                  -7.320
REMARK INTRA:                  -3.424
REMARK UNBOUND:                -4.573
REMARK  0 active torsions:
REMARK  status: ('A' for Active; 'I' for Inactive)
REMARK       I    between atoms: C6_6  and  C7_7 
REMARK       I    between atoms: C8_8  and  C9_9 
REMARK       I    between atoms: C10_10  and  C11_11 
REMARK       I    between atoms: C12_16  and  C13_17 
REMARK       I    between atoms: C14_18  and  C15_19 
REMARK       I    between atoms: C16_20  and  C17_21 
REMARK       I    between atoms: C18_22  and  C19_23 
REMARK       I    between atoms: C20_24  and  C21_25 
REMARK       I    between atoms: C22_26  and  C23_27 
REMARK       I    between atoms: C24_28  and  C25_29 
ROOT
HETATM    1  C1  BCR C 514     -36.690 127.521   8.660  1.00 35.58    -0.020 C 
HETATM    2  C2  BCR C 514     -35.641 126.465   8.576  1.00 41.22     0.014 C 
HETATM    3  C3  BCR C 514     -34.236 126.960   8.759  1.00 43.51     0.005 C 
HETATM    4  C4  BCR C 514     -33.891 128.095   7.831  1.00 41.68     0.034 C 
HETATM    5  C5  BCR C 514     -35.043 129.021   7.514  1.00 42.53    -0.077 C 
HETATM    6  C6  BCR C 514     -36.335 128.736   7.835  1.00 37.16    -0.048 C 
HETATM    7  C7  BCR C 514     -37.425 129.662   7.490  1.00 40.52     0.009 C 
HETATM    8  C8  BCR C 514     -37.383 130.913   7.988  1.00 40.92     0.007 C 
HETATM    9  C9  BCR C 514     -38.544 131.847   7.746  1.00 42.01    -0.062 C 
HETATM   10  C10 BCR C 514     -38.503 133.038   8.281  1.00 37.28     0.007 C 
HETATM   11  C11 BCR C 514     -39.560 134.045   8.083  1.00 41.23     0.001 C 
HETATM   12  C33 BCR C 514     -34.631 130.149   6.619  1.00 40.30     0.044 C 
HETATM   13  C31 BCR C 514     -36.737 128.007  10.103  1.00 39.42     0.020 C 
HETATM   14  C32 BCR C 514     -38.004 126.879   8.149  1.00 41.23     0.020 C 
HETATM   15  C34 BCR C 514     -39.686 131.455   6.832  1.00 46.73     0.048 C 
HETATM   16  C12 BCR C 514     -39.431 135.266   8.604  1.00 43.50     0.007 C 
HETATM   17  C13 BCR C 514     -40.396 136.352   8.418  1.00 41.12    -0.062 C 
HETATM   18  C14 BCR C 514     -40.162 137.536   9.032  1.00 37.55     0.007 C 
HETATM   19  C15 BCR C 514     -41.048 138.739   8.922  1.00 39.88     0.001 C 
HETATM   20  C16 BCR C 514     -40.780 139.844   9.623  1.00 39.12     0.001 C 
HETATM   21  C17 BCR C 514     -41.604 141.043   9.532  1.00 41.68     0.007 C 
HETATM   22  C18 BCR C 514     -41.560 142.182  10.282  1.00 39.37    -0.062 C 
HETATM   23  C19 BCR C 514     -42.543 143.274   9.998  1.00 44.12     0.007 C 
HETATM   24  C20 BCR C 514     -42.638 144.424  10.704  1.00 37.68     0.001 C 
HETATM   25  C21 BCR C 514     -43.667 145.425  10.339  1.00 39.34     0.007 C 
HETATM   26  C22 BCR C 514     -43.925 146.508  11.130  1.00 42.90    -0.062 C 
HETATM   27  C23 BCR C 514     -44.997 147.437  10.665  1.00 39.44     0.007 C 
HETATM   28  C24 BCR C 514     -45.376 148.495  11.475  1.00 55.37     0.009 C 
HETATM   29  C25 BCR C 514     -46.526 149.275  10.956  1.00 47.75    -0.048 C 
HETATM   30  C26 BCR C 514     -46.601 149.600   9.679  1.00 47.05    -0.077 C 
HETATM   31  C27 BCR C 514     -47.925 149.810   9.026  1.00 57.69     0.034 C 
HETATM   32  C28 BCR C 514     -48.616 150.880   9.796  1.00 50.11     0.005 C 
HETATM   33  C29 BCR C 514     -48.657 150.601  11.291  1.00 48.72     0.014 C 
HETATM   34  C30 BCR C 514     -47.718 149.528  11.825  1.00 46.83    -0.020 C 
HETATM   35  C35 BCR C 514     -41.541 136.128   7.476  1.00 42.11     0.048 C 
HETATM   36  C36 BCR C 514     -40.521 142.362  11.339  1.00 38.24     0.048 C 
HETATM   37  C37 BCR C 514     -43.101 146.800  12.358  1.00 31.50     0.048 C 
HETATM   38  C38 BCR C 514     -45.444 149.899   8.807  1.00 38.56     0.044 C 
HETATM   39  C39 BCR C 514     -48.469 148.186  11.908  1.00 46.44     0.020 C 
HETATM   40  C40 BCR C 514     -47.220 149.918  13.209  1.00 48.77     0.020 C 
ENDROOT
TORSDOF 10
