REMARK VINA RESULT:    -8.792      0.000      0.000
REMARK INTER + INTRA:         -15.438
REMARK INTER:                  -8.792
REMARK INTRA:                  -6.646
REMARK UNBOUND:                -6.646
REMARK  0 active torsions:
REMARK  status: ('A' for Active; 'I' for Inactive)
REMARK       I    between atoms: C6_6  and  C7_7 
REMARK       I    between atoms: C8_8  and  C9_9 
REMARK       I    between atoms: C10_10  and  C11_11 
REMARK       I    between atoms: C12_16  and  C13_17 
REMARK       I    between atoms: C14_18  and  C15_19 
REMARK       I    between atoms: C16_20  and  C17_21 
REMARK       I    between atoms: C18_22  and  C19_23 
REMARK       I    between atoms: C20_24  and  C21_25 
REMARK       I    between atoms: C22_26  and  C23_27 
REMARK       I    between atoms: C24_28  and  C25_29 
ROOT
HETATM    1  C1  BCR B 617     -34.957 130.785   8.106  1.00 26.29    -0.020 C 
HETATM    2  C2  BCR B 617     -33.925 129.818   8.665  1.00 24.49     0.014 C 
HETATM    3  C3  BCR B 617     -33.310 130.353   9.938  1.00 22.61     0.005 C 
HETATM    4  C4  BCR B 617     -34.347 130.605  11.004  1.00 25.50     0.034 C 
HETATM    5  C5  BCR B 617     -35.710 130.935  10.461  1.00 27.16    -0.077 C 
HETATM    6  C6  BCR B 617     -35.954 131.158   9.160  1.00 26.27    -0.048 C 
HETATM    7  C7  BCR B 617     -37.205 131.777   8.691  1.00 19.27     0.009 C 
HETATM    8  C8  BCR B 617     -37.476 133.059   8.931  1.00 21.60     0.007 C 
HETATM    9  C9  BCR B 617     -38.717 133.704   8.456  1.00 23.86    -0.062 C 
HETATM   10  C10 BCR B 617     -39.051 134.899   8.949  1.00 19.60     0.007 C 
HETATM   11  C11 BCR B 617     -40.236 135.651   8.573  1.00 18.33     0.001 C 
HETATM   12  C33 BCR B 617     -36.806 131.013  11.475  1.00 29.92     0.044 C 
HETATM   13  C31 BCR B 617     -35.673 130.123   6.940  1.00 24.31     0.020 C 
HETATM   14  C32 BCR B 617     -34.283 132.077   7.672  1.00 18.56     0.020 C 
HETATM   15  C34 BCR B 617     -39.569 133.033   7.427  1.00 23.81     0.048 C 
HETATM   16  C12 BCR B 617     -40.235 136.965   8.799  1.00 17.62     0.007 C 
HETATM   17  C13 BCR B 617     -41.367 137.845   8.474  1.00 18.11    -0.062 C 
HETATM   18  C14 BCR B 617     -41.339 139.133   8.884  1.00 18.92     0.007 C 
HETATM   19  C15 BCR B 617     -42.428 140.075   8.618  1.00 19.09     0.001 C 
HETATM   20  C16 BCR B 617     -42.569 141.224   9.286  1.00 23.01     0.001 C 
HETATM   21  C17 BCR B 617     -43.687 142.110   8.962  1.00 24.11     0.007 C 
HETATM   22  C18 BCR B 617     -43.940 143.306   9.522  1.00 19.95    -0.062 C 
HETATM   23  C19 BCR B 617     -45.102 144.062   9.065  1.00 21.01     0.007 C 
HETATM   24  C20 BCR B 617     -45.430 145.239   9.586  1.00 25.10     0.001 C 
HETATM   25  C21 BCR B 617     -46.596 145.906   9.017  1.00 22.05     0.007 C 
HETATM   26  C22 BCR B 617     -47.177 146.990   9.525  1.00 21.59    -0.062 C 
HETATM   27  C23 BCR B 617     -48.342 147.544   8.828  1.00 25.46     0.007 C 
HETATM   28  C24 BCR B 617     -49.093 148.483   9.391  1.00 27.51     0.009 C 
HETATM   29  C25 BCR B 617     -50.263 149.108   8.738  1.00 24.70    -0.048 C 
HETATM   30  C26 BCR B 617     -51.410 148.463   8.551  1.00 30.61    -0.077 C 
HETATM   31  C27 BCR B 617     -52.600 149.179   7.981  1.00 27.25     0.034 C 
HETATM   32  C28 BCR B 617     -52.061 149.958   6.806  1.00 25.90     0.005 C 
HETATM   33  C29 BCR B 617     -51.125 151.032   7.316  1.00 30.03     0.014 C 
HETATM   34  C30 BCR B 617     -50.112 150.552   8.346  1.00 27.09    -0.020 C 
HETATM   35  C35 BCR B 617     -42.533 137.319   7.698  1.00 15.67     0.048 C 
HETATM   36  C36 BCR B 617     -43.080 143.888  10.585  1.00 21.62     0.048 C 
HETATM   37  C37 BCR B 617     -46.661 147.654  10.762  1.00 24.04     0.048 C 
HETATM   38  C38 BCR B 617     -51.555 147.014   8.878  1.00 30.71     0.044 C 
HETATM   39  C39 BCR B 617     -50.237 151.350   9.631  1.00 28.41     0.020 C 
HETATM   40  C40 BCR B 617     -48.732 150.786   7.762  1.00 28.54     0.020 C 
ENDROOT
TORSDOF 10
