REMARK VINA RESULT:    -7.700      1.979      2.971
REMARK INTER + INTRA:         -11.242
REMARK INTER:                  -8.337
REMARK INTRA:                  -2.905
REMARK UNBOUND:                -3.542
REMARK  0 active torsions:
REMARK  status: ('A' for Active; 'I' for Inactive)
REMARK       I    between atoms: C6_6  and  C7_7 
REMARK       I    between atoms: C8_8  and  C9_9 
REMARK       I    between atoms: C10_10  and  C11_11 
REMARK       I    between atoms: C12_16  and  C13_17 
REMARK       I    between atoms: C14_18  and  C15_19 
REMARK       I    between atoms: C16_20  and  C17_21 
REMARK       I    between atoms: C18_22  and  C19_23 
REMARK       I    between atoms: C20_24  and  C21_25 
REMARK       I    between atoms: C22_26  and  C23_27 
REMARK       I    between atoms: C24_28  and  C25_29 
ROOT
HETATM    1  C1  BCR C 515     -33.832 127.253   7.375  1.00 39.71    -0.020 C 
HETATM    2  C2  BCR C 515     -32.910 126.261   6.696  1.00 40.37     0.014 C 
HETATM    3  C3  BCR C 515     -32.491 126.786   5.343  1.00 43.17     0.005 C 
HETATM    4  C4  BCR C 515     -33.722 126.871   4.469  1.00 48.98     0.034 C 
HETATM    5  C5  BCR C 515     -34.742 127.775   5.111  1.00 42.59    -0.077 C 
HETATM    6  C6  BCR C 515     -34.822 127.905   6.436  1.00 38.03    -0.048 C 
HETATM    7  C7  BCR C 515     -35.922 128.688   7.035  1.00 39.13     0.009 C 
HETATM    8  C8  BCR C 515     -36.018 130.015   7.040  1.00 40.01     0.007 C 
HETATM    9  C9  BCR C 515     -37.180 130.668   7.674  1.00 48.45    -0.062 C 
HETATM   10  C10 BCR C 515     -37.299 131.999   7.638  1.00 46.14     0.007 C 
HETATM   11  C11 BCR C 515     -38.428 132.698   8.246  1.00 42.52     0.001 C 
HETATM   12  C33 BCR C 515     -35.672 128.514   4.200  1.00 41.43     0.044 C 
HETATM   13  C31 BCR C 515     -32.987 128.331   8.024  1.00 36.91     0.020 C 
HETATM   14  C32 BCR C 515     -34.604 126.523   8.458  1.00 47.25     0.020 C 
HETATM   15  C34 BCR C 515     -38.222 129.851   8.378  1.00 41.23     0.048 C 
HETATM   16  C12 BCR C 515     -38.322 134.003   8.469  1.00 42.82     0.007 C 
HETATM   17  C13 BCR C 515     -39.399 134.827   9.048  1.00 44.74    -0.062 C 
HETATM   18  C14 BCR C 515     -39.325 136.149   8.865  1.00 43.56     0.007 C 
HETATM   19  C15 BCR C 515     -40.331 137.076   9.354  1.00 39.26     0.001 C 
HETATM   20  C16 BCR C 515     -40.174 138.372   9.118  1.00 40.16     0.001 C 
HETATM   21  C17 BCR C 515     -41.187 139.309   9.573  1.00 42.34     0.007 C 
HETATM   22  C18 BCR C 515     -41.021 140.634   9.555  1.00 44.22    -0.062 C 
HETATM   23  C19 BCR C 515     -42.140 141.464  10.026  1.00 48.96     0.007 C 
HETATM   24  C20 BCR C 515     -42.071 142.777  10.182  1.00 51.51     0.001 C 
HETATM   25  C21 BCR C 515     -43.288 143.421  10.645  1.00 48.83     0.007 C 
HETATM   26  C22 BCR C 515     -43.329 144.692  11.040  1.00 46.78    -0.062 C 
HETATM   27  C23 BCR C 515     -44.620 145.227  11.481  1.00 46.17     0.007 C 
HETATM   28  C24 BCR C 515     -44.835 146.531  11.593  1.00 45.08     0.009 C 
HETATM   29  C25 BCR C 515     -46.141 147.064  12.023  1.00 45.02    -0.048 C 
HETATM   30  C26 BCR C 515     -47.189 147.010  11.201  1.00 46.86    -0.077 C 
HETATM   31  C27 BCR C 515     -48.573 147.438  11.627  1.00 50.72     0.034 C 
HETATM   32  C28 BCR C 515     -48.684 147.427  13.133  1.00 55.86     0.005 C 
HETATM   33  C29 BCR C 515     -47.580 148.311  13.669  1.00 52.85     0.014 C 
HETATM   34  C30 BCR C 515     -46.224 147.682  13.392  1.00 52.22    -0.020 C 
HETATM   35  C35 BCR C 515     -40.545 134.224   9.804  1.00 45.43     0.048 C 
HETATM   36  C36 BCR C 515     -39.751 141.254   9.062  1.00 42.28     0.048 C 
HETATM   37  C37 BCR C 515     -42.095 145.534  11.036  1.00 46.03     0.048 C 
HETATM   38  C38 BCR C 515     -47.034 146.521   9.792  1.00 45.04     0.044 C 
HETATM   39  C39 BCR C 515     -45.956 146.599  14.424  1.00 52.25     0.020 C 
HETATM   40  C40 BCR C 515     -45.154 148.752  13.471  1.00 47.46     0.020 C 
ENDROOT
TORSDOF 10
