REMARK VINA RESULT:    -6.344      1.720     16.461
REMARK INTER + INTRA:          -8.831
REMARK INTER:                  -5.870
REMARK INTRA:                  -2.961
REMARK UNBOUND:                -2.486
REMARK  0 active torsions:
REMARK  status: ('A' for Active; 'I' for Inactive)
REMARK       I    between atoms: C6_6  and  C7_7 
REMARK       I    between atoms: C8_8  and  C9_9 
REMARK       I    between atoms: C10_10  and  C11_11 
REMARK       I    between atoms: C12_16  and  C13_17 
REMARK       I    between atoms: C14_18  and  C15_19 
REMARK       I    between atoms: C16_20  and  C17_21 
REMARK       I    between atoms: C18_22  and  C19_23 
REMARK       I    between atoms: C20_24  and  C21_25 
REMARK       I    between atoms: C22_26  and  C23_27 
REMARK       I    between atoms: C24_28  and  C25_29 
ROOT
HETATM    1  C1  BCR B 616     -48.813 146.698   9.857  1.00 31.32    -0.020 C 
HETATM    2  C2  BCR B 616     -50.093 147.463  10.121  1.00 32.97     0.014 C 
HETATM    3  C3  BCR B 616     -51.206 146.471  10.366  1.00 29.93     0.005 C 
HETATM    4  C4  BCR B 616     -51.507 145.736   9.083  1.00 26.02     0.034 C 
HETATM    5  C5  BCR B 616     -50.235 145.261   8.419  1.00 31.50    -0.077 C 
HETATM    6  C6  BCR B 616     -49.005 145.667   8.782  1.00 32.71    -0.048 C 
HETATM    7  C7  BCR B 616     -47.838 145.061   8.099  1.00 27.07     0.009 C 
HETATM    8  C8  BCR B 616     -47.106 144.098   8.661  1.00 26.19     0.007 C 
HETATM    9  C9  BCR B 616     -45.973 143.443   7.971  1.00 26.80    -0.062 C 
HETATM   10  C10 BCR B 616     -45.391 142.367   8.503  1.00 24.87     0.007 C 
HETATM   11  C11 BCR B 616     -44.308 141.653   7.833  1.00 26.76     0.001 C 
HETATM   12  C33 BCR B 616     -50.414 144.290   7.293  1.00 25.10     0.044 C 
HETATM   13  C31 BCR B 616     -48.400 146.009  11.146  1.00 28.04     0.020 C 
HETATM   14  C32 BCR B 616     -47.747 147.657   9.382  1.00 25.30     0.020 C 
HETATM   15  C34 BCR B 616     -45.475 143.935   6.653  1.00 25.88     0.048 C 
HETATM   16  C12 BCR B 616     -43.782 140.606   8.463  1.00 27.03     0.007 C 
HETATM   17  C13 BCR B 616     -42.729 139.742   7.914  1.00 24.87    -0.062 C 
HETATM   18  C14 BCR B 616     -42.307 138.687   8.630  1.00 25.36     0.007 C 
HETATM   19  C15 BCR B 616     -41.299 137.760   8.127  1.00 24.12     0.001 C 
HETATM   20  C16 BCR B 616     -41.008 136.628   8.754  1.00 24.28     0.001 C 
HETATM   21  C17 BCR B 616     -40.025 135.717   8.194  1.00 25.58     0.007 C 
HETATM   22  C18 BCR B 616     -39.686 134.569   8.793  1.00 28.46    -0.062 C 
HETATM   23  C19 BCR B 616     -38.693 133.703   8.133  1.00 23.05     0.007 C 
HETATM   24  C20 BCR B 616     -38.387 132.465   8.498  1.00 21.86     0.001 C 
HETATM   25  C21 BCR B 616     -37.389 131.780   7.689  1.00 26.78     0.007 C 
HETATM   26  C22 BCR B 616     -37.086 130.477   7.765  1.00 25.31    -0.062 C 
HETATM   27  C23 BCR B 616     -36.048 129.922   6.873  1.00 19.67     0.007 C 
HETATM   28  C24 BCR B 616     -35.704 128.641   6.931  1.00 21.08     0.009 C 
HETATM   29  C25 BCR B 616     -34.664 128.005   6.091  1.00 24.69    -0.048 C 
HETATM   30  C26 BCR B 616     -34.692 128.071   4.762  1.00 24.70    -0.077 C 
HETATM   31  C27 BCR B 616     -33.452 127.809   3.955  1.00 28.87     0.034 C 
HETATM   32  C28 BCR B 616     -32.735 126.613   4.530  1.00 22.34     0.005 C 
HETATM   33  C29 BCR B 616     -32.332 126.977   5.939  1.00 23.43     0.014 C 
HETATM   34  C30 BCR B 616     -33.556 127.244   6.799  1.00 25.38    -0.020 C 
HETATM   35  C35 BCR B 616     -42.177 140.027   6.556  1.00 22.52     0.048 C 
HETATM   36  C36 BCR B 616     -40.298 134.178  10.102  1.00 21.22     0.048 C 
HETATM   37  C37 BCR B 616     -37.789 129.607   8.755  1.00 24.02     0.048 C 
HETATM   38  C38 BCR B 616     -35.937 128.381   3.993  1.00 26.85     0.044 C 
HETATM   39  C39 BCR B 616     -33.100 128.047   7.999  1.00 22.16     0.020 C 
HETATM   40  C40 BCR B 616     -34.079 125.913   7.286  1.00 23.21     0.020 C 
ENDROOT
TORSDOF 10
