REMARK VINA RESULT:    -8.661      2.100     16.399
REMARK INTER + INTRA:         -11.089
REMARK INTER:                  -7.778
REMARK INTRA:                  -3.310
REMARK UNBOUND:                -2.428
REMARK  0 active torsions:
REMARK  status: ('A' for Active; 'I' for Inactive)
REMARK       I    between atoms: C6_6  and  C7_7 
REMARK       I    between atoms: C8_8  and  C9_9 
REMARK       I    between atoms: C10_10  and  C11_11 
REMARK       I    between atoms: C12_16  and  C13_17 
REMARK       I    between atoms: C14_18  and  C15_19 
REMARK       I    between atoms: C16_20  and  C17_21 
REMARK       I    between atoms: C18_22  and  C19_23 
REMARK       I    between atoms: C20_24  and  C21_25 
REMARK       I    between atoms: C22_26  and  C23_27 
REMARK       I    between atoms: C24_28  and  C25_29 
ROOT
HETATM    1  C1  BCR C 515     -36.711 127.518   8.733  1.00 38.64    -0.020 C 
HETATM    2  C2  BCR C 515     -35.645 126.426   8.609  1.00 35.63     0.014 C 
HETATM    3  C3  BCR C 515     -34.225 126.954   8.724  1.00 36.63     0.005 C 
HETATM    4  C4  BCR C 515     -33.937 128.069   7.765  1.00 37.53     0.034 C 
HETATM    5  C5  BCR C 515     -35.118 128.975   7.483  1.00 37.33    -0.077 C 
HETATM    6  C6  BCR C 515     -36.372 128.735   7.910  1.00 36.93    -0.048 C 
HETATM    7  C7  BCR C 515     -37.502 129.657   7.579  1.00 39.97     0.009 C 
HETATM    8  C8  BCR C 515     -37.540 130.907   8.043  1.00 43.71     0.007 C 
HETATM    9  C9  BCR C 515     -38.624 131.865   7.754  1.00 46.26    -0.062 C 
HETATM   10  C10 BCR C 515     -38.572 133.043   8.410  1.00 44.64     0.007 C 
HETATM   11  C11 BCR C 515     -39.580 134.104   8.246  1.00 42.43     0.001 C 
HETATM   12  C33 BCR C 515     -34.790 130.178   6.650  1.00 39.04     0.044 C 
HETATM   13  C31 BCR C 515     -36.865 127.926  10.213  1.00 36.17     0.020 C 
HETATM   14  C32 BCR C 515     -38.019 126.971   8.131  1.00 37.04     0.020 C 
HETATM   15  C34 BCR C 515     -39.714 131.547   6.748  1.00 45.26     0.048 C 
HETATM   16  C12 BCR C 515     -39.267 135.358   8.575  1.00 41.87     0.007 C 
HETATM   17  C13 BCR C 515     -40.224 136.469   8.443  1.00 44.10    -0.062 C 
HETATM   18  C14 BCR C 515     -39.990 137.628   9.114  1.00 43.10     0.007 C 
HETATM   19  C15 BCR C 515     -40.898 138.788   9.049  1.00 44.95     0.001 C 
HETATM   20  C16 BCR C 515     -40.715 139.886   9.795  1.00 42.57     0.001 C 
HETATM   21  C17 BCR C 515     -41.663 141.003   9.724  1.00 44.11     0.007 C 
HETATM   22  C18 BCR C 515     -41.470 142.205  10.328  1.00 45.12    -0.062 C 
HETATM   23  C19 BCR C 515     -42.551 143.223  10.191  1.00 42.40     0.007 C 
HETATM   24  C20 BCR C 515     -42.519 144.429  10.762  1.00 44.25     0.001 C 
HETATM   25  C21 BCR C 515     -43.643 145.359  10.593  1.00 44.77     0.007 C 
HETATM   26  C22 BCR C 515     -43.842 146.499  11.303  1.00 45.45    -0.062 C 
HETATM   27  C23 BCR C 515     -45.044 147.313  10.978  1.00 43.97     0.007 C 
HETATM   28  C24 BCR C 515     -45.137 148.618  11.280  1.00 46.37     0.009 C 
HETATM   29  C25 BCR C 515     -46.346 149.422  10.916  1.00 44.97    -0.048 C 
HETATM   30  C26 BCR C 515     -46.313 150.068   9.734  1.00 43.46    -0.077 C 
HETATM   31  C27 BCR C 515     -47.452 150.928   9.203  1.00 42.55     0.034 C 
HETATM   32  C28 BCR C 515     -48.757 150.792   9.993  1.00 44.37     0.005 C 
HETATM   33  C29 BCR C 515     -48.508 150.628  11.492  1.00 46.88     0.014 C 
HETATM   34  C30 BCR C 515     -47.539 149.491  11.848  1.00 44.50    -0.020 C 
HETATM   35  C35 BCR C 515     -41.420 136.280   7.531  1.00 43.98     0.048 C 
HETATM   36  C36 BCR C 515     -40.225 142.488  11.153  1.00 37.46     0.048 C 
HETATM   37  C37 BCR C 515     -42.897 146.954  12.392  1.00 40.96     0.048 C 
HETATM   38  C38 BCR C 515     -45.080 149.958   8.879  1.00 36.94     0.044 C 
HETATM   39  C39 BCR C 515     -48.278 148.146  11.872  1.00 44.31     0.020 C 
HETATM   40  C40 BCR C 515     -47.022 149.799  13.249  1.00 48.67     0.020 C 
ENDROOT
TORSDOF 10
