REMARK VINA RESULT:   -10.093      2.906     16.174
REMARK INTER + INTRA:         -13.329
REMARK INTER:                 -11.575
REMARK INTRA:                  -1.755
REMARK UNBOUND:                -3.236
REMARK  0 active torsions:
REMARK  status: ('A' for Active; 'I' for Inactive)
REMARK       I    between atoms: C6_6  and  C7_7 
REMARK       I    between atoms: C8_8  and  C9_9 
REMARK       I    between atoms: C10_10  and  C11_11 
REMARK       I    between atoms: C12_16  and  C13_17 
REMARK       I    between atoms: C14_18  and  C15_19 
REMARK       I    between atoms: C16_20  and  C17_21 
REMARK       I    between atoms: C18_22  and  C19_23 
REMARK       I    between atoms: C20_24  and  C21_25 
REMARK       I    between atoms: C22_26  and  C23_27 
REMARK       I    between atoms: C24_28  and  C25_29 
ROOT
HETATM    1  C1  BCR H 102     -44.026 147.894  14.689  1.00 48.43    -0.020 C 
HETATM    2  C2  BCR H 102     -44.610 148.368  16.003  1.00 45.30     0.014 C 
HETATM    3  C3  BCR H 102     -46.071 148.655  15.870  1.00 43.50     0.005 C 
HETATM    4  C4  BCR H 102     -46.767 147.382  15.497  1.00 33.84     0.034 C 
HETATM    5  C5  BCR H 102     -46.190 146.774  14.287  1.00 31.85    -0.077 C 
HETATM    6  C6  BCR H 102     -44.934 146.989  13.876  1.00 30.25    -0.048 C 
HETATM    7  C7  BCR H 102     -44.355 146.388  12.672  1.00 35.33     0.009 C 
HETATM    8  C8  BCR H 102     -44.421 145.077  12.379  1.00 43.57     0.007 C 
HETATM    9  C9  BCR H 102     -43.857 144.481  11.171  1.00 33.88    -0.062 C 
HETATM   10  C10 BCR H 102     -43.566 143.172  11.112  1.00 37.36     0.007 C 
HETATM   11  C11 BCR H 102     -42.652 142.551  10.177  1.00 39.57     0.001 C 
HETATM   12  C33 BCR H 102     -47.147 145.857  13.619  1.00 42.29     0.044 C 
HETATM   13  C31 BCR H 102     -42.743 147.187  15.066  1.00 39.85     0.020 C 
HETATM   14  C32 BCR H 102     -43.627 149.152  13.950  1.00 37.04     0.020 C 
HETATM   15  C34 BCR H 102     -43.323 145.409  10.154  1.00 43.60     0.048 C 
HETATM   16  C12 BCR H 102     -42.613 141.210  10.061  1.00 44.45     0.007 C 
HETATM   17  C13 BCR H 102     -41.557 140.451   9.411  1.00 40.33    -0.062 C 
HETATM   18  C14 BCR H 102     -41.271 139.209   9.834  1.00 40.69     0.007 C 
HETATM   19  C15 BCR H 102     -40.395 138.264   9.169  1.00 43.47     0.001 C 
HETATM   20  C16 BCR H 102     -40.164 137.087   9.764  1.00 39.77     0.001 C 
HETATM   21  C17 BCR H 102     -39.225 136.166   9.183  1.00 45.28     0.007 C 
HETATM   22  C18 BCR H 102     -38.677 135.103   9.789  1.00 40.17    -0.062 C 
HETATM   23  C19 BCR H 102     -37.855 134.208   8.989  1.00 43.20     0.007 C 
HETATM   24  C20 BCR H 102     -36.999 133.318   9.500  1.00 48.88     0.001 C 
HETATM   25  C21 BCR H 102     -36.432 132.294   8.636  1.00 49.74     0.007 C 
HETATM   26  C22 BCR H 102     -35.654 131.272   9.035  1.00 50.14    -0.062 C 
HETATM   27  C23 BCR H 102     -35.015 130.431   8.018  1.00 44.53     0.007 C 
HETATM   28  C24 BCR H 102     -34.061 129.526   8.295  1.00 55.23     0.009 C 
HETATM   29  C25 BCR H 102     -33.450 128.605   7.328  1.00 54.54    -0.048 C 
HETATM   30  C26 BCR H 102     -32.304 128.896   6.710  1.00 52.60    -0.077 C 
HETATM   31  C27 BCR H 102     -31.598 128.047   5.717  1.00 52.80     0.034 C 
HETATM   32  C28 BCR H 102     -32.035 126.600   5.725  1.00 54.83     0.005 C 
HETATM   33  C29 BCR H 102     -33.518 126.472   5.949  1.00 57.72     0.014 C 
HETATM   34  C30 BCR H 102     -34.134 127.307   7.074  1.00 53.00    -0.020 C 
HETATM   35  C35 BCR H 102     -40.908 140.956   8.190  1.00 52.18     0.048 C 
HETATM   36  C36 BCR H 102     -38.868 134.826  11.232  1.00 35.95     0.048 C 
HETATM   37  C37 BCR H 102     -35.514 130.961  10.484  1.00 46.70     0.048 C 
HETATM   38  C38 BCR H 102     -31.592 130.176   6.963  1.00 55.38     0.044 C 
HETATM   39  C39 BCR H 102     -34.233 126.522   8.362  1.00 45.73     0.020 C 
HETATM   40  C40 BCR H 102     -35.561 127.545   6.628  1.00 63.22     0.020 C 
ENDROOT
TORSDOF 10
