REMARK VINA RESULT:    -5.671      1.922     16.168
REMARK INTER + INTRA:         -10.023
REMARK INTER:                  -5.765
REMARK INTRA:                  -4.259
REMARK UNBOUND:                -4.353
REMARK  0 active torsions:
REMARK  status: ('A' for Active; 'I' for Inactive)
REMARK       I    between atoms: C6_6  and  C7_7 
REMARK       I    between atoms: C8_8  and  C9_9 
REMARK       I    between atoms: C10_10  and  C11_11 
REMARK       I    between atoms: C12_16  and  C13_17 
REMARK       I    between atoms: C14_18  and  C15_19 
REMARK       I    between atoms: C16_20  and  C17_21 
REMARK       I    between atoms: C18_22  and  C19_23 
REMARK       I    between atoms: C20_24  and  C21_25 
REMARK       I    between atoms: C22_26  and  C23_27 
REMARK       I    between atoms: C24_28  and  C25_29 
ROOT
HETATM    1  C1  BCR T 102     -43.862 148.164  11.158  1.00 34.19    -0.020 C 
HETATM    2  C2  BCR T 102     -44.018 149.658  11.465  1.00 31.05     0.014 C 
HETATM    3  C3  BCR T 102     -44.609 150.447  10.308  1.00 29.41     0.005 C 
HETATM    4  C4  BCR T 102     -45.965 149.898   9.923  1.00 30.85     0.034 C 
HETATM    5  C5  BCR T 102     -45.876 148.413   9.663  1.00 27.12    -0.077 C 
HETATM    6  C6  BCR T 102     -44.937 147.619  10.211  1.00 27.96    -0.048 C 
HETATM    7  C7  BCR T 102     -45.018 146.176   9.823  1.00 26.87     0.009 C 
HETATM    8  C8  BCR T 102     -44.159 145.204  10.156  1.00 27.18     0.007 C 
HETATM    9  C9  BCR T 102     -44.311 143.802   9.707  1.00 30.62    -0.062 C 
HETATM   10  C10 BCR T 102     -43.388 142.889  10.083  1.00 30.16     0.007 C 
HETATM   11  C11 BCR T 102     -43.406 141.489   9.655  1.00 28.29     0.001 C 
HETATM   12  C33 BCR T 102     -46.906 147.832   8.741  1.00 35.59     0.044 C 
HETATM   13  C31 BCR T 102     -43.903 147.418  12.488  1.00 18.19     0.020 C 
HETATM   14  C32 BCR T 102     -42.477 147.992  10.526  1.00 42.41     0.020 C 
HETATM   15  C34 BCR T 102     -45.475 143.420   8.835  1.00 37.30     0.048 C 
HETATM   16  C12 BCR T 102     -42.370 140.715   9.993  1.00 32.33     0.007 C 
HETATM   17  C13 BCR T 102     -42.211 139.312   9.544  1.00 37.30    -0.062 C 
HETATM   18  C14 BCR T 102     -41.035 138.722   9.848  1.00 30.82     0.007 C 
HETATM   19  C15 BCR T 102     -40.545 137.401   9.440  1.00 19.09     0.001 C 
HETATM   20  C16 BCR T 102     -39.609 136.696  10.109  1.00 25.22     0.001 C 
HETATM   21  C17 BCR T 102     -39.105 135.441   9.527  1.00 26.84     0.007 C 
HETATM   22  C18 BCR T 102     -38.189 134.599  10.082  1.00 21.71    -0.062 C 
HETATM   23  C19 BCR T 102     -37.717 133.458   9.264  1.00 29.36     0.007 C 
HETATM   24  C20 BCR T 102     -36.812 132.532   9.609  1.00 22.88     0.001 C 
HETATM   25  C21 BCR T 102     -36.452 131.585   8.543  1.00 23.49     0.007 C 
HETATM   26  C22 BCR T 102     -35.456 130.680   8.621  1.00 22.88    -0.062 C 
HETATM   27  C23 BCR T 102     -35.177 129.924   7.528  1.00 19.61     0.007 C 
HETATM   28  C24 BCR T 102     -34.205 128.998   7.433  1.00 16.86     0.009 C 
HETATM   29  C25 BCR T 102     -33.924 128.231   6.171  1.00 24.91    -0.048 C 
HETATM   30  C26 BCR T 102     -34.874 127.577   5.464  1.00 26.40    -0.077 C 
HETATM   31  C27 BCR T 102     -34.558 126.821   4.186  1.00 13.58     0.034 C 
HETATM   32  C28 BCR T 102     -33.314 127.360   3.512  1.00 15.86     0.005 C 
HETATM   33  C29 BCR T 102     -32.205 127.299   4.542  1.00 17.31     0.014 C 
HETATM   34  C30 BCR T 102     -32.454 128.221   5.732  1.00 34.25    -0.020 C 
HETATM   35  C35 BCR T 102     -43.291 138.624   8.750  1.00 22.35     0.048 C 
HETATM   36  C36 BCR T 102     -37.587 134.837  11.437  1.00 20.74     0.048 C 
HETATM   37  C37 BCR T 102     -34.662 130.551   9.889  1.00 18.69     0.048 C 
HETATM   38  C38 BCR T 102     -36.329 127.526   5.878  1.00 17.22     0.044 C 
HETATM   39  C39 BCR T 102     -31.983 129.644   5.429  1.00 23.16     0.020 C 
HETATM   40  C40 BCR T 102     -31.595 127.669   6.869  1.00 17.04     0.020 C 
ENDROOT
TORSDOF 10
