REMARK VINA RESULT:    -8.429      2.771     16.382
REMARK INTER + INTRA:         -11.305
REMARK INTER:                  -7.940
REMARK INTRA:                  -3.365
REMARK UNBOUND:                -2.876
REMARK  0 active torsions:
REMARK  status: ('A' for Active; 'I' for Inactive)
REMARK       I    between atoms: C6_6  and  C7_7 
REMARK       I    between atoms: C8_8  and  C9_9 
REMARK       I    between atoms: C10_10  and  C11_11 
REMARK       I    between atoms: C12_16  and  C13_17 
REMARK       I    between atoms: C14_18  and  C15_19 
REMARK       I    between atoms: C16_20  and  C17_21 
REMARK       I    between atoms: C18_22  and  C19_23 
REMARK       I    between atoms: C20_24  and  C21_25 
REMARK       I    between atoms: C22_26  and  C23_27 
REMARK       I    between atoms: C24_28  and  C25_29 
ROOT
HETATM    1  C1  BCR B 618     -46.121 149.996  11.953  1.00 29.97    -0.020 C 
HETATM    2  C2  BCR B 618     -46.944 151.273  11.720  1.00 30.11     0.014 C 
HETATM    3  C3  BCR B 618     -47.649 151.350  10.359  1.00 28.88     0.005 C 
HETATM    4  C4  BCR B 618     -46.739 151.093   9.171  1.00 28.77     0.034 C 
HETATM    5  C5  BCR B 618     -45.584 150.162   9.489  1.00 28.24    -0.077 C 
HETATM    6  C6  BCR B 618     -45.295 149.689  10.731  1.00 26.72    -0.048 C 
HETATM    7  C7  BCR B 618     -44.133 148.786  10.885  1.00 26.16     0.009 C 
HETATM    8  C8  BCR B 618     -44.236 147.448  10.912  1.00 23.90     0.007 C 
HETATM    9  C9  BCR B 618     -43.006 146.605  11.048  1.00 22.06    -0.062 C 
HETATM   10  C10 BCR B 618     -43.090 145.277  10.837  1.00 23.67     0.007 C 
HETATM   11  C11 BCR B 618     -41.990 144.316  10.870  1.00 23.73     0.001 C 
HETATM   12  C33 BCR B 618     -44.723 149.832   8.308  1.00 30.53     0.044 C 
HETATM   13  C31 BCR B 618     -46.994 148.769  12.287  1.00 30.85     0.020 C 
HETATM   14  C32 BCR B 618     -45.233 150.307  13.179  1.00 30.08     0.020 C 
HETATM   15  C34 BCR B 618     -41.691 147.222  11.456  1.00 25.71     0.048 C 
HETATM   16  C12 BCR B 618     -42.309 143.001  10.740  1.00 24.44     0.007 C 
HETATM   17  C13 BCR B 618     -41.291 141.932  10.677  1.00 23.39    -0.062 C 
HETATM   18  C14 BCR B 618     -41.717 140.633  10.417  1.00 20.98     0.007 C 
HETATM   19  C15 BCR B 618     -40.741 139.547  10.209  1.00 21.06     0.001 C 
HETATM   20  C16 BCR B 618     -41.188 138.339   9.799  1.00 22.19     0.001 C 
HETATM   21  C17 BCR B 618     -40.235 137.248   9.558  1.00 21.58     0.007 C 
HETATM   22  C18 BCR B 618     -40.545 136.008   9.056  1.00 20.96    -0.062 C 
HETATM   23  C19 BCR B 618     -39.450 135.035   8.899  1.00 19.82     0.007 C 
HETATM   24  C20 BCR B 618     -39.559 133.781   8.355  1.00 20.56     0.001 C 
HETATM   25  C21 BCR B 618     -38.329 132.957   8.348  1.00 20.57     0.007 C 
HETATM   26  C22 BCR B 618     -38.205 131.770   7.688  1.00 19.60    -0.062 C 
HETATM   27  C23 BCR B 618     -36.926 131.058   7.791  1.00 22.92     0.007 C 
HETATM   28  C24 BCR B 618     -36.754 129.800   7.333  1.00 24.17     0.009 C 
HETATM   29  C25 BCR B 618     -35.460 129.042   7.437  1.00 26.94    -0.048 C 
HETATM   30  C26 BCR B 618     -34.214 129.547   7.215  1.00 28.75    -0.077 C 
HETATM   31  C27 BCR B 618     -32.921 128.715   7.331  1.00 30.75     0.034 C 
HETATM   32  C28 BCR B 618     -33.167 127.205   7.411  1.00 33.35     0.005 C 
HETATM   33  C29 BCR B 618     -34.382 126.876   8.274  1.00 31.28     0.014 C 
HETATM   34  C30 BCR B 618     -35.672 127.567   7.794  1.00 29.59    -0.020 C 
HETATM   35  C35 BCR B 618     -39.852 142.356  10.853  1.00 23.27     0.048 C 
HETATM   36  C36 BCR B 618     -41.932 135.605   8.715  1.00 21.00     0.048 C 
HETATM   37  C37 BCR B 618     -39.355 131.224   6.839  1.00 20.72     0.048 C 
HETATM   38  C38 BCR B 618     -33.935 130.986   6.859  1.00 30.08     0.044 C 
HETATM   39  C39 BCR B 618     -36.662 127.457   8.957  1.00 28.53     0.020 C 
HETATM   40  C40 BCR B 618     -36.229 126.874   6.556  1.00 29.57     0.020 C 
ENDROOT
TORSDOF 10
