REMARK VINA RESULT:    -8.353      0.000      0.000
REMARK INTER + INTRA:         -15.285
REMARK INTER:                  -8.353
REMARK INTRA:                  -6.933
REMARK UNBOUND:                -6.933
REMARK  0 active torsions:
REMARK  status: ('A' for Active; 'I' for Inactive)
REMARK       I    between atoms: C6_6  and  C7_7 
REMARK       I    between atoms: C8_8  and  C9_9 
REMARK       I    between atoms: C10_10  and  C11_11 
REMARK       I    between atoms: C12_16  and  C13_17 
REMARK       I    between atoms: C14_18  and  C15_19 
REMARK       I    between atoms: C16_20  and  C17_21 
REMARK       I    between atoms: C18_22  and  C19_23 
REMARK       I    between atoms: C20_24  and  C21_25 
REMARK       I    between atoms: C22_26  and  C23_27 
REMARK       I    between atoms: C24_28  and  C25_29 
ROOT
HETATM    1  C1  BCR C 516     -35.276 131.451   8.534  1.00 26.01    -0.020 C 
HETATM    2  C2  BCR C 516     -34.260 130.510   9.144  1.00 26.00     0.014 C 
HETATM    3  C3  BCR C 516     -34.085 130.770  10.608  1.00 26.01     0.005 C 
HETATM    4  C4  BCR C 516     -35.399 130.556  11.310  1.00 26.06     0.034 C 
HETATM    5  C5  BCR C 516     -36.467 131.367  10.691  1.00 26.05    -0.077 C 
HETATM    6  C6  BCR C 516     -36.427 131.809   9.428  1.00 25.99    -0.048 C 
HETATM    7  C7  BCR C 516     -37.501 132.619   8.837  1.00 25.93     0.009 C 
HETATM    8  C8  BCR C 516     -37.661 133.934   9.050  1.00 25.79     0.007 C 
HETATM    9  C9  BCR C 516     -38.905 134.641   8.819  1.00 25.69    -0.062 C 
HETATM   10  C10 BCR C 516     -39.029 135.908   9.237  1.00 25.62     0.007 C 
HETATM   11  C11 BCR C 516     -40.266 136.652   9.176  1.00 25.56     0.001 C 
HETATM   12  C33 BCR C 516     -37.578 131.648  11.622  1.00 26.12     0.044 C 
HETATM   13  C31 BCR C 516     -35.765 130.747   7.286  1.00 25.98     0.020 C 
HETATM   14  C32 BCR C 516     -34.501 132.686   8.130  1.00 26.02     0.020 C 
HETATM   15  C34 BCR C 516     -39.856 134.036   7.874  1.00 25.63     0.048 C 
HETATM   16  C12 BCR C 516     -40.324 137.945   9.511  1.00 25.46     0.007 C 
HETATM   17  C13 BCR C 516     -41.429 138.826   9.192  1.00 25.42    -0.062 C 
HETATM   18  C14 BCR C 516     -41.407 140.099   9.616  1.00 25.36     0.007 C 
HETATM   19  C15 BCR C 516     -42.374 141.117   9.276  1.00 25.30     0.001 C 
HETATM   20  C16 BCR C 516     -42.235 142.382   9.707  1.00 25.21     0.001 C 
HETATM   21  C17 BCR C 516     -43.205 143.386   9.336  1.00 25.08     0.007 C 
HETATM   22  C18 BCR C 516     -43.199 144.693   9.638  1.00 24.90    -0.062 C 
HETATM   23  C19 BCR C 516     -44.462 145.417   9.604  1.00 24.65     0.007 C 
HETATM   24  C20 BCR C 516     -44.597 146.743   9.688  1.00 24.34     0.001 C 
HETATM   25  C21 BCR C 516     -45.934 147.290   9.668  1.00 24.01     0.007 C 
HETATM   26  C22 BCR C 516     -46.319 148.537   9.955  1.00 23.78    -0.062 C 
HETATM   27  C23 BCR C 516     -47.728 148.859   9.754  1.00 23.53     0.007 C 
HETATM   28  C24 BCR C 516     -48.303 150.052   9.940  1.00 23.23     0.009 C 
HETATM   29  C25 BCR C 516     -49.725 150.363   9.761  1.00 23.01    -0.048 C 
HETATM   30  C26 BCR C 516     -50.279 150.568   8.557  1.00 22.93    -0.077 C 
HETATM   31  C27 BCR C 516     -51.697 150.886   8.278  1.00 22.89     0.034 C 
HETATM   32  C28 BCR C 516     -52.598 150.625   9.454  1.00 22.87     0.005 C 
HETATM   33  C29 BCR C 516     -51.941 151.065  10.724  1.00 22.93     0.014 C 
HETATM   34  C30 BCR C 516     -50.585 150.434  10.992  1.00 22.97    -0.020 C 
HETATM   35  C35 BCR C 516     -42.666 138.234   8.662  1.00 25.42     0.048 C 
HETATM   36  C36 BCR C 516     -41.971 145.406  10.036  1.00 24.91     0.048 C 
HETATM   37  C37 BCR C 516     -45.481 149.395  10.820  1.00 23.74     0.048 C 
HETATM   38  C38 BCR C 516     -49.533 150.537   7.287  1.00 22.86     0.044 C 
HETATM   39  C39 BCR C 516     -50.757 149.074  11.636  1.00 22.94     0.020 C 
HETATM   40  C40 BCR C 516     -49.976 151.332  12.062  1.00 22.96     0.020 C 
ENDROOT
TORSDOF 10
