REMARK VINA RESULT:    -5.998      2.120     16.302
REMARK INTER + INTRA:         -10.962
REMARK INTER:                  -7.943
REMARK INTRA:                  -3.019
REMARK UNBOUND:                -4.964
REMARK  0 active torsions:
REMARK  status: ('A' for Active; 'I' for Inactive)
REMARK       I    between atoms: C6_6  and  C7_7 
REMARK       I    between atoms: C8_8  and  C9_9 
REMARK       I    between atoms: C10_10  and  C11_11 
REMARK       I    between atoms: C12_16  and  C13_17 
REMARK       I    between atoms: C14_18  and  C15_19 
REMARK       I    between atoms: C16_20  and  C17_21 
REMARK       I    between atoms: C18_22  and  C19_23 
REMARK       I    between atoms: C20_24  and  C21_25 
REMARK       I    between atoms: C22_26  and  C23_27 
REMARK       I    between atoms: C24_28  and  C25_29 
ROOT
HETATM    1  C1  BCR C 515     -44.982 148.195  13.305  1.00 33.76    -0.020 C 
HETATM    2  C2  BCR C 515     -45.803 149.396  13.728  1.00 33.74     0.014 C 
HETATM    3  C3  BCR C 515     -47.276 149.097  13.687  1.00 33.67     0.005 C 
HETATM    4  C4  BCR C 515     -47.739 148.566  12.354  1.00 33.69     0.034 C 
HETATM    5  C5  BCR C 515     -46.705 147.818  11.605  1.00 33.72    -0.077 C 
HETATM    6  C6  BCR C 515     -45.456 147.610  12.022  1.00 33.76    -0.048 C 
HETATM    7  C7  BCR C 515     -44.489 146.881  11.207  1.00 33.87     0.009 C 
HETATM    8  C8  BCR C 515     -44.211 145.587  11.357  1.00 34.01     0.007 C 
HETATM    9  C9  BCR C 515     -43.082 144.964  10.691  1.00 34.09    -0.062 C 
HETATM   10  C10 BCR C 515     -43.093 143.645  10.492  1.00 34.13     0.007 C 
HETATM   11  C11 BCR C 515     -41.941 142.855  10.131  1.00 34.14     0.001 C 
HETATM   12  C33 BCR C 515     -47.203 147.275  10.331  1.00 33.67     0.044 C 
HETATM   13  C31 BCR C 515     -45.047 147.189  14.441  1.00 33.78     0.020 C 
HETATM   14  C32 BCR C 515     -43.560 148.690  13.157  1.00 33.75     0.020 C 
HETATM   15  C34 BCR C 515     -42.120 145.855  10.010  1.00 34.15     0.048 C 
HETATM   16  C12 BCR C 515     -42.119 141.559   9.874  1.00 34.13     0.007 C 
HETATM   17  C13 BCR C 515     -41.101 140.626   9.447  1.00 34.08    -0.062 C 
HETATM   18  C14 BCR C 515     -41.422 139.331   9.345  1.00 33.92     0.007 C 
HETATM   19  C15 BCR C 515     -40.454 138.298   9.101  1.00 33.87     0.001 C 
HETATM   20  C16 BCR C 515     -40.828 137.020   9.054  1.00 33.76     0.001 C 
HETATM   21  C17 BCR C 515     -39.926 136.075   8.464  1.00 33.69     0.007 C 
HETATM   22  C18 BCR C 515     -39.812 134.789   8.803  1.00 33.60    -0.062 C 
HETATM   23  C19 BCR C 515     -38.792 133.990   8.155  1.00 33.52     0.007 C 
HETATM   24  C20 BCR C 515     -38.676 132.674   8.321  1.00 33.41     0.001 C 
HETATM   25  C21 BCR C 515     -37.541 131.987   7.758  1.00 33.33     0.007 C 
HETATM   26  C22 BCR C 515     -37.315 130.675   7.859  1.00 33.23    -0.062 C 
HETATM   27  C23 BCR C 515     -36.102 130.118   7.283  1.00 33.14     0.007 C 
HETATM   28  C24 BCR C 515     -35.922 128.819   7.024  1.00 33.02     0.009 C 
HETATM   29  C25 BCR C 515     -34.702 128.215   6.477  1.00 32.98    -0.048 C 
HETATM   30  C26 BCR C 515     -34.411 128.238   5.171  1.00 32.96    -0.077 C 
HETATM   31  C27 BCR C 515     -33.210 127.655   4.526  1.00 32.93     0.034 C 
HETATM   32  C28 BCR C 515     -32.132 127.333   5.529  1.00 32.96     0.005 C 
HETATM   33  C29 BCR C 515     -32.746 126.658   6.721  1.00 32.98     0.014 C 
HETATM   34  C30 BCR C 515     -33.766 127.532   7.435  1.00 33.02    -0.020 C 
HETATM   35  C35 BCR C 515     -39.836 141.120   8.873  1.00 34.12     0.048 C 
HETATM   36  C36 BCR C 515     -40.770 134.138   9.711  1.00 33.59     0.048 C 
HETATM   37  C37 BCR C 515     -38.255 129.806   8.586  1.00 33.23     0.048 C 
HETATM   38  C38 BCR C 515     -35.267 128.861   4.147  1.00 32.96     0.044 C 
HETATM   39  C39 BCR C 515     -33.059 128.529   8.333  1.00 33.04     0.020 C 
HETATM   40  C40 BCR C 515     -34.505 126.566   8.353  1.00 33.02     0.020 C 
ENDROOT
TORSDOF 10
