REMARK VINA RESULT:    -8.500      0.000      0.000
REMARK INTER + INTRA:         -13.828
REMARK INTER:                  -8.500
REMARK INTRA:                  -5.328
REMARK UNBOUND:                -5.328
REMARK  0 active torsions:
REMARK  status: ('A' for Active; 'I' for Inactive)
REMARK       I    between atoms: C6_6  and  C7_7 
REMARK       I    between atoms: C8_8  and  C9_9 
REMARK       I    between atoms: C10_10  and  C11_11 
REMARK       I    between atoms: C12_16  and  C13_17 
REMARK       I    between atoms: C14_18  and  C15_19 
REMARK       I    between atoms: C16_20  and  C17_21 
REMARK       I    between atoms: C18_22  and  C19_23 
REMARK       I    between atoms: C20_24  and  C21_25 
REMARK       I    between atoms: C22_26  and  C23_27 
REMARK       I    between atoms: C24_28  and  C25_29 
ROOT
HETATM    1  C1  BCR Y 101     -34.640 127.031   4.927  1.00 33.68    -0.020 C 
HETATM    2  C2  BCR Y 101     -33.901 125.857   4.270  1.00 30.72     0.014 C 
HETATM    3  C3  BCR Y 101     -32.717 126.271   3.408  1.00 33.07     0.005 C 
HETATM    4  C4  BCR Y 101     -31.682 127.072   4.191  1.00 35.17     0.034 C 
HETATM    5  C5  BCR Y 101     -32.301 127.849   5.342  1.00 36.06    -0.077 C 
HETATM    6  C6  BCR Y 101     -33.605 127.848   5.697  1.00 32.74    -0.048 C 
HETATM    7  C7  BCR Y 101     -34.000 128.697   6.867  1.00 33.30     0.009 C 
HETATM    8  C8  BCR Y 101     -35.133 129.423   6.885  1.00 34.03     0.007 C 
HETATM    9  C9  BCR Y 101     -35.487 130.290   8.051  1.00 34.07    -0.062 C 
HETATM   10  C10 BCR Y 101     -36.574 131.052   7.894  1.00 33.18     0.007 C 
HETATM   11  C11 BCR Y 101     -37.119 132.043   8.824  1.00 32.97     0.001 C 
HETATM   12  C33 BCR Y 101     -31.320 128.665   6.131  1.00 41.02     0.044 C 
HETATM   13  C31 BCR Y 101     -35.672 126.393   5.860  1.00 33.70     0.020 C 
HETATM   14  C32 BCR Y 101     -35.389 127.944   3.902  1.00 32.39     0.020 C 
HETATM   15  C34 BCR Y 101     -34.648 130.288   9.306  1.00 34.31     0.048 C 
HETATM   16  C12 BCR Y 101     -38.087 132.833   8.341  1.00 30.70     0.007 C 
HETATM   17  C13 BCR Y 101     -38.691 133.968   9.109  1.00 33.77    -0.062 C 
HETATM   18  C14 BCR Y 101     -39.697 134.674   8.513  1.00 29.99     0.007 C 
HETATM   19  C15 BCR Y 101     -40.378 135.859   9.051  1.00 30.27     0.001 C 
HETATM   20  C16 BCR Y 101     -41.126 136.633   8.230  1.00 31.72     0.001 C 
HETATM   21  C17 BCR Y 101     -41.750 137.832   8.789  1.00 30.45     0.007 C 
HETATM   22  C18 BCR Y 101     -42.472 138.748   8.120  1.00 36.03    -0.062 C 
HETATM   23  C19 BCR Y 101     -42.988 139.906   8.868  1.00 33.37     0.007 C 
HETATM   24  C20 BCR Y 101     -43.463 141.025   8.317  1.00 32.83     0.001 C 
HETATM   25  C21 BCR Y 101     -43.967 142.010   9.281  1.00 33.39     0.007 C 
HETATM   26  C22 BCR Y 101     -44.745 143.082   8.954  1.00 31.42    -0.062 C 
HETATM   27  C23 BCR Y 101     -45.210 143.931  10.080  1.00 32.46     0.007 C 
HETATM   28  C24 BCR Y 101     -46.244 144.769   9.948  1.00 32.77     0.009 C 
HETATM   29  C25 BCR Y 101     -46.769 145.615  11.070  1.00 33.52    -0.048 C 
HETATM   30  C26 BCR Y 101     -47.315 145.024  12.136  1.00 32.09    -0.077 C 
HETATM   31  C27 BCR Y 101     -47.888 145.830  13.289  1.00 34.94     0.034 C 
HETATM   32  C28 BCR Y 101     -47.323 147.250  13.365  1.00 37.49     0.005 C 
HETATM   33  C29 BCR Y 101     -47.531 147.893  11.998  1.00 40.57     0.014 C 
HETATM   34  C30 BCR Y 101     -46.700 147.143  10.949  1.00 38.21    -0.020 C 
HETATM   35  C35 BCR Y 101     -38.086 134.335  10.450  1.00 32.93     0.048 C 
HETATM   36  C36 BCR Y 101     -42.845 138.584   6.675  1.00 34.83     0.048 C 
HETATM   37  C37 BCR Y 101     -45.086 143.409   7.527  1.00 32.37     0.048 C 
HETATM   38  C38 BCR Y 101     -47.404 143.511  12.215  1.00 31.76     0.044 C 
HETATM   39  C39 BCR Y 101     -45.231 147.524  11.128  1.00 41.61     0.020 C 
HETATM   40  C40 BCR Y 101     -47.240 147.548   9.568  1.00 38.38     0.020 C 
ENDROOT
TORSDOF 10
