REMARK VINA RESULT:    -6.637      1.013      1.181
REMARK INTER + INTRA:         -11.965
REMARK INTER:                  -7.562
REMARK INTRA:                  -4.404
REMARK UNBOUND:                -5.328
REMARK  0 active torsions:
REMARK  status: ('A' for Active; 'I' for Inactive)
REMARK       I    between atoms: C6_6  and  C7_7 
REMARK       I    between atoms: C8_8  and  C9_9 
REMARK       I    between atoms: C10_10  and  C11_11 
REMARK       I    between atoms: C12_16  and  C13_17 
REMARK       I    between atoms: C14_18  and  C15_19 
REMARK       I    between atoms: C16_20  and  C17_21 
REMARK       I    between atoms: C18_22  and  C19_23 
REMARK       I    between atoms: C20_24  and  C21_25 
REMARK       I    between atoms: C22_26  and  C23_27 
REMARK       I    between atoms: C24_28  and  C25_29 
ROOT
HETATM    1  C1  BCR Y 101     -34.405 127.905   5.791  1.00 33.68    -0.020 C 
HETATM    2  C2  BCR Y 101     -33.521 126.773   5.250  1.00 30.72     0.014 C 
HETATM    3  C3  BCR Y 101     -32.231 127.248   4.596  1.00 33.07     0.005 C 
HETATM    4  C4  BCR Y 101     -31.371 128.076   5.545  1.00 35.17     0.034 C 
HETATM    5  C5  BCR Y 101     -32.200 128.808   6.588  1.00 36.06    -0.077 C 
HETATM    6  C6  BCR Y 101     -33.543 128.749   6.726  1.00 32.74    -0.048 C 
HETATM    7  C7  BCR Y 101     -34.157 129.562   7.825  1.00 33.30     0.009 C 
HETATM    8  C8  BCR Y 101     -35.308 130.243   7.667  1.00 34.03     0.007 C 
HETATM    9  C9  BCR Y 101     -35.881 131.074   8.769  1.00 34.07    -0.062 C 
HETATM   10  C10 BCR Y 101     -36.959 131.796   8.445  1.00 33.18     0.007 C 
HETATM   11  C11 BCR Y 101     -37.688 132.748   9.285  1.00 32.97     0.001 C 
HETATM   12  C33 BCR Y 101     -31.395 129.649   7.534  1.00 41.02     0.044 C 
HETATM   13  C31 BCR Y 101     -35.546 127.211   6.537  1.00 33.70     0.020 C 
HETATM   14  C32 BCR Y 101     -35.016 128.805   4.667  1.00 32.39     0.020 C 
HETATM   15  C34 BCR Y 101     -35.257 131.085  10.143  1.00 34.31     0.048 C 
HETATM   16  C12 BCR Y 101     -38.597 133.508   8.659  1.00 30.70     0.007 C 
HETATM   17  C13 BCR Y 101     -39.365 134.605   9.330  1.00 33.77    -0.062 C 
HETATM   18  C14 BCR Y 101     -40.289 135.281   8.587  1.00 29.99     0.007 C 
HETATM   19  C15 BCR Y 101     -41.098 136.429   9.019  1.00 30.27     0.001 C 
HETATM   20  C16 BCR Y 101     -41.734 137.186   8.096  1.00 31.72     0.001 C 
HETATM   21  C17 BCR Y 101     -42.490 138.350   8.559  1.00 30.45     0.007 C 
HETATM   22  C18 BCR Y 101     -43.132 139.248   7.791  1.00 36.03    -0.062 C 
HETATM   23  C19 BCR Y 101     -43.811 140.372   8.457  1.00 33.37     0.007 C 
HETATM   24  C20 BCR Y 101     -44.236 141.480   7.848  1.00 32.83     0.001 C 
HETATM   25  C21 BCR Y 101     -44.930 142.428   8.727  1.00 33.39     0.007 C 
HETATM   26  C22 BCR Y 101     -45.689 143.474   8.289  1.00 31.42    -0.062 C 
HETATM   27  C23 BCR Y 101     -46.365 144.285   9.334  1.00 32.46     0.007 C 
HETATM   28  C24 BCR Y 101     -47.398 145.084   9.045  1.00 32.77     0.009 C 
HETATM   29  C25 BCR Y 101     -48.133 145.889  10.074  1.00 33.52    -0.048 C 
HETATM   30  C26 BCR Y 101     -48.819 145.259  11.032  1.00 32.09    -0.077 C 
HETATM   31  C27 BCR Y 101     -49.604 146.022  12.085  1.00 34.94     0.034 C 
HETATM   32  C28 BCR Y 101     -49.119 147.461  12.266  1.00 37.49     0.005 C 
HETATM   33  C29 BCR Y 101     -49.129 148.119  10.890  1.00 40.57     0.014 C 
HETATM   34  C30 BCR Y 101     -48.108 147.420   9.983  1.00 38.21    -0.020 C 
HETATM   35  C35 BCR Y 101     -39.001 134.973  10.756  1.00 32.93     0.048 C 
HETATM   36  C36 BCR Y 101     -43.259 139.094   6.303  1.00 34.83     0.048 C 
HETATM   37  C37 BCR Y 101     -45.808 143.811   6.829  1.00 32.37     0.048 C 
HETATM   38  C38 BCR Y 101     -48.856 143.743  11.080  1.00 31.76     0.044 C 
HETATM   39  C39 BCR Y 101     -46.705 147.856  10.402  1.00 41.61     0.020 C 
HETATM   40  C40 BCR Y 101     -48.434 147.827   8.536  1.00 38.38     0.020 C 
ENDROOT
TORSDOF 10
