REMARK VINA RESULT:    -8.659      2.772      4.564
REMARK INTER + INTRA:         -14.626
REMARK INTER:                 -11.473
REMARK INTRA:                  -3.153
REMARK UNBOUND:                -5.967
REMARK  0 active torsions:
REMARK  status: ('A' for Active; 'I' for Inactive)
REMARK       I    between atoms: C6_6  and  C7_7 
REMARK       I    between atoms: C8_8  and  C9_9 
REMARK       I    between atoms: C10_10  and  C11_11 
REMARK       I    between atoms: C12_16  and  C13_17 
REMARK       I    between atoms: C14_18  and  C15_19 
REMARK       I    between atoms: C16_20  and  C17_21 
REMARK       I    between atoms: C18_22  and  C19_23 
REMARK       I    between atoms: C20_24  and  C21_25 
REMARK       I    between atoms: C22_26  and  C23_27 
REMARK       I    between atoms: C24_28  and  C25_29 
ROOT
HETATM    1  C1  BCR B 618     -44.465 149.002  12.061  1.00 32.08    -0.020 C 
HETATM    2  C2  BCR B 618     -45.150 149.903  13.082  1.00 32.02     0.014 C 
HETATM    3  C3  BCR B 618     -44.984 149.431  14.515  1.00 30.00     0.005 C 
HETATM    4  C4  BCR B 618     -45.160 147.931  14.673  1.00 29.70     0.034 C 
HETATM    5  C5  BCR B 618     -45.611 147.342  13.367  1.00 32.08    -0.077 C 
HETATM    6  C6  BCR B 618     -44.887 147.583  12.284  1.00 29.52    -0.048 C 
HETATM    7  C7  BCR B 618     -44.484 146.551  11.314  1.00 26.64     0.009 C 
HETATM    8  C8  BCR B 618     -44.190 145.301  11.639  1.00 26.25     0.007 C 
HETATM    9  C9  BCR B 618     -43.802 144.367  10.566  1.00 28.38    -0.062 C 
HETATM   10  C10 BCR B 618     -43.086 143.281  10.855  1.00 28.10     0.007 C 
HETATM   11  C11 BCR B 618     -42.636 142.310   9.871  1.00 22.97     0.001 C 
HETATM   12  C33 BCR B 618     -46.883 146.562  13.317  1.00 36.33     0.044 C 
HETATM   13  C31 BCR B 618     -42.949 149.078  12.155  1.00 29.12     0.020 C 
HETATM   14  C32 BCR B 618     -44.920 149.423  10.682  1.00 31.50     0.020 C 
HETATM   15  C34 BCR B 618     -44.222 144.628   9.160  1.00 24.68     0.048 C 
HETATM   16  C12 BCR B 618     -42.053 141.234  10.374  1.00 27.25     0.007 C 
HETATM   17  C13 BCR B 618     -41.490 140.130   9.590  1.00 24.75    -0.062 C 
HETATM   18  C14 BCR B 618     -40.964 139.086  10.230  1.00 20.67     0.007 C 
HETATM   19  C15 BCR B 618     -40.354 137.994   9.498  1.00 20.47     0.001 C 
HETATM   20  C16 BCR B 618     -39.636 137.098  10.153  1.00 22.70     0.001 C 
HETATM   21  C17 BCR B 618     -38.976 136.034   9.429  1.00 22.25     0.007 C 
HETATM   22  C18 BCR B 618     -38.346 135.030  10.040  1.00 26.36    -0.062 C 
HETATM   23  C19 BCR B 618     -37.663 134.019   9.220  1.00 25.59     0.007 C 
HETATM   24  C20 BCR B 618     -37.082 132.937   9.716  1.00 24.27     0.001 C 
HETATM   25  C21 BCR B 618     -36.426 132.066   8.761  1.00 23.38     0.007 C 
HETATM   26  C22 BCR B 618     -35.761 130.950   9.072  1.00 27.07    -0.062 C 
HETATM   27  C23 BCR B 618     -35.122 130.196   7.976  1.00 25.86     0.007 C 
HETATM   28  C24 BCR B 618     -34.156 129.298   8.154  1.00 25.72     0.009 C 
HETATM   29  C25 BCR B 618     -33.509 128.594   7.019  1.00 30.28    -0.048 C 
HETATM   30  C26 BCR B 618     -32.569 129.229   6.318  1.00 31.25    -0.077 C 
HETATM   31  C27 BCR B 618     -31.632 128.466   5.431  1.00 29.22     0.034 C 
HETATM   32  C28 BCR B 618     -32.471 127.514   4.618  1.00 25.82     0.005 C 
HETATM   33  C29 BCR B 618     -33.068 126.510   5.573  1.00 26.07     0.014 C 
HETATM   34  C30 BCR B 618     -33.880 127.164   6.689  1.00 28.46    -0.020 C 
HETATM   35  C35 BCR B 618     -41.472 140.190   8.099  1.00 18.72     0.048 C 
HETATM   36  C36 BCR B 618     -38.311 134.944  11.530  1.00 23.59     0.048 C 
HETATM   37  C37 BCR B 618     -35.659 130.493  10.487  1.00 34.23     0.048 C 
HETATM   38  C38 BCR B 618     -32.396 130.713   6.371  1.00 29.70     0.044 C 
HETATM   39  C39 BCR B 618     -33.661 126.319   7.929  1.00 35.43     0.020 C 
HETATM   40  C40 BCR B 618     -35.336 127.145   6.281  1.00 25.20     0.020 C 
ENDROOT
TORSDOF 10
