REMARK VINA RESULT:    -6.648      0.000      0.000
REMARK INTER + INTRA:         -10.759
REMARK INTER:                  -6.648
REMARK INTRA:                  -4.111
REMARK UNBOUND:                -4.111
REMARK  0 active torsions:
REMARK  status: ('A' for Active; 'I' for Inactive)
REMARK       I    between atoms: C6_6  and  C7_7 
REMARK       I    between atoms: C8_8  and  C9_9 
REMARK       I    between atoms: C10_10  and  C11_11 
REMARK       I    between atoms: C12_16  and  C13_17 
REMARK       I    between atoms: C14_18  and  C15_19 
REMARK       I    between atoms: C16_20  and  C17_21 
REMARK       I    between atoms: C18_22  and  C19_23 
REMARK       I    between atoms: C20_24  and  C21_25 
REMARK       I    between atoms: C22_26  and  C23_27 
REMARK       I    between atoms: C24_28  and  C25_29 
ROOT
HETATM    1  C1  BCR C 525     -50.318 144.623   8.820  1.00 33.72    -0.020 C 
HETATM    2  C2  BCR C 525     -51.658 145.167   9.283  1.00 38.03     0.014 C 
HETATM    3  C3  BCR C 525     -51.781 145.168  10.777  1.00 36.23     0.005 C 
HETATM    4  C4  BCR C 525     -50.697 146.014  11.405  1.00 39.77     0.034 C 
HETATM    5  C5  BCR C 525     -49.363 145.890  10.732  1.00 35.72    -0.077 C 
HETATM    6  C6  BCR C 525     -49.175 145.241   9.572  1.00 34.48    -0.048 C 
HETATM    7  C7  BCR C 525     -47.850 144.920   9.042  1.00 34.77     0.009 C 
HETATM    8  C8  BCR C 525     -46.830 144.534   9.832  1.00 34.00     0.007 C 
HETATM    9  C9  BCR C 525     -45.599 144.023   9.145  1.00 30.34    -0.062 C 
HETATM   10  C10 BCR C 525     -44.808 143.087   9.721  1.00 29.43     0.007 C 
HETATM   11  C11 BCR C 525     -43.664 142.428   9.048  1.00 32.78     0.001 C 
HETATM   12  C33 BCR C 525     -48.289 146.727  11.362  1.00 40.94     0.044 C 
HETATM   13  C31 BCR C 525     -50.237 144.880   7.350  1.00 36.12     0.020 C 
HETATM   14  C32 BCR C 525     -50.189 143.104   9.088  1.00 41.14     0.020 C 
HETATM   15  C34 BCR C 525     -45.269 144.565   7.739  1.00 36.22     0.048 C 
HETATM   16  C12 BCR C 525     -43.073 141.370   9.599  1.00 35.35     0.007 C 
HETATM   17  C13 BCR C 525     -41.971 140.590   8.955  1.00 35.17    -0.062 C 
HETATM   18  C14 BCR C 525     -41.554 139.474   9.605  1.00 38.14     0.007 C 
HETATM   19  C15 BCR C 525     -40.487 138.528   9.178  1.00 38.44     0.001 C 
HETATM   20  C16 BCR C 525     -40.170 137.398   9.856  1.00 34.38     0.001 C 
HETATM   21  C17 BCR C 525     -39.080 136.553   9.336  1.00 32.72     0.007 C 
HETATM   22  C18 BCR C 525     -38.704 135.363   9.899  1.00 31.75    -0.062 C 
HETATM   23  C19 BCR C 525     -37.599 134.591   9.262  1.00 30.37     0.007 C 
HETATM   24  C20 BCR C 525     -37.256 133.333   9.512  1.00 31.00     0.001 C 
HETATM   25  C21 BCR C 525     -36.207 132.652   8.781  1.00 32.98     0.007 C 
HETATM   26  C22 BCR C 525     -36.040 131.317   8.827  1.00 31.86    -0.062 C 
HETATM   27  C23 BCR C 525     -34.979 130.727   7.955  1.00 30.56     0.007 C 
HETATM   28  C24 BCR C 525     -34.862 129.415   7.831  1.00 32.87     0.009 C 
HETATM   29  C25 BCR C 525     -33.900 128.799   6.899  1.00 28.40    -0.048 C 
HETATM   30  C26 BCR C 525     -32.586 129.076   6.998  1.00 28.90    -0.077 C 
HETATM   31  C27 BCR C 525     -31.531 128.440   6.162  1.00 26.86     0.034 C 
HETATM   32  C28 BCR C 525     -32.080 127.760   4.906  1.00 30.07     0.005 C 
HETATM   33  C29 BCR C 525     -33.368 127.018   5.248  1.00 34.82     0.014 C 
HETATM   34  C30 BCR C 525     -34.457 127.923   5.813  1.00 28.48    -0.020 C 
HETATM   35  C35 BCR C 525     -41.422 141.043   7.633  1.00 34.46     0.048 C 
HETATM   36  C36 BCR C 525     -39.388 134.849  11.153  1.00 34.73     0.048 C 
HETATM   37  C37 BCR C 525     -36.913 130.471   9.775  1.00 33.41     0.048 C 
HETATM   38  C38 BCR C 525     -32.044 129.815   8.169  1.00 28.85     0.044 C 
HETATM   39  C39 BCR C 525     -35.507 126.970   6.412  1.00 33.24     0.020 C 
HETATM   40  C40 BCR C 525     -35.072 128.828   4.750  1.00 27.05     0.020 C 
ENDROOT
TORSDOF 10
