REMARK VINA RESULT:    -6.208      2.778      3.625
REMARK INTER + INTRA:          -9.003
REMARK INTER:                  -5.955
REMARK INTRA:                  -3.048
REMARK UNBOUND:                -2.795
REMARK  0 active torsions:
REMARK  status: ('A' for Active; 'I' for Inactive)
REMARK       I    between atoms: C6_6  and  C7_7 
REMARK       I    between atoms: C8_8  and  C9_9 
REMARK       I    between atoms: C10_10  and  C11_11 
REMARK       I    between atoms: C12_16  and  C13_17 
REMARK       I    between atoms: C14_18  and  C15_19 
REMARK       I    between atoms: C16_20  and  C17_21 
REMARK       I    between atoms: C18_22  and  C19_23 
REMARK       I    between atoms: C20_24  and  C21_25 
REMARK       I    between atoms: C22_26  and  C23_27 
REMARK       I    between atoms: C24_28  and  C25_29 
ROOT
HETATM    1  C1  BCR B 618     -48.640 147.093   9.934  1.00 52.27    -0.020 C 
HETATM    2  C2  BCR B 618     -49.923 147.826  10.323  1.00 40.31     0.014 C 
HETATM    3  C3  BCR B 618     -51.008 146.872  10.804  1.00 36.34     0.005 C 
HETATM    4  C4  BCR B 618     -51.372 145.900   9.695  1.00 43.90     0.034 C 
HETATM    5  C5  BCR B 618     -50.151 145.321   9.010  1.00 42.39    -0.077 C 
HETATM    6  C6  BCR B 618     -48.921 145.849   9.109  1.00 41.32    -0.048 C 
HETATM    7  C7  BCR B 618     -47.810 145.189   8.379  1.00 37.02     0.009 C 
HETATM    8  C8  BCR B 618     -47.070 144.201   8.900  1.00 40.38     0.007 C 
HETATM    9  C9  BCR B 618     -45.984 143.557   8.118  1.00 43.44    -0.062 C 
HETATM   10  C10 BCR B 618     -45.407 142.438   8.585  1.00 33.05     0.007 C 
HETATM   11  C11 BCR B 618     -44.349 141.693   7.889  1.00 38.44     0.001 C 
HETATM   12  C33 BCR B 618     -50.354 144.099   8.174  1.00 43.01     0.044 C 
HETATM   13  C31 BCR B 618     -47.882 146.659  11.187  1.00 47.24     0.020 C 
HETATM   14  C32 BCR B 618     -47.791 148.049   9.100  1.00 46.10     0.020 C 
HETATM   15  C34 BCR B 618     -45.536 144.140   6.815  1.00 38.09     0.048 C 
HETATM   16  C12 BCR B 618     -43.801 140.651   8.530  1.00 45.48     0.007 C 
HETATM   17  C13 BCR B 618     -42.767 139.794   7.913  1.00 46.67    -0.062 C 
HETATM   18  C14 BCR B 618     -42.265 138.746   8.618  1.00 36.87     0.007 C 
HETATM   19  C15 BCR B 618     -41.251 137.812   8.100  1.00 33.54     0.001 C 
HETATM   20  C16 BCR B 618     -41.037 136.626   8.685  1.00 30.58     0.001 C 
HETATM   21  C17 BCR B 618     -40.034 135.668   8.165  1.00 36.03     0.007 C 
HETATM   22  C18 BCR B 618     -39.699 134.509   8.782  1.00 37.55    -0.062 C 
HETATM   23  C19 BCR B 618     -38.674 133.625   8.158  1.00 41.57     0.007 C 
HETATM   24  C20 BCR B 618     -38.377 132.362   8.505  1.00 44.50     0.001 C 
HETATM   25  C21 BCR B 618     -37.326 131.689   7.720  1.00 27.16     0.007 C 
HETATM   26  C22 BCR B 618     -37.022 130.371   7.737  1.00 45.91    -0.062 C 
HETATM   27  C23 BCR B 618     -36.022 129.915   6.936  1.00 42.15     0.007 C 
HETATM   28  C24 BCR B 618     -35.770 128.602   6.816  1.00 36.90     0.009 C 
HETATM   29  C25 BCR B 618     -34.707 127.983   5.984  1.00 40.99    -0.048 C 
HETATM   30  C26 BCR B 618     -34.718 128.072   4.629  1.00 43.47    -0.077 C 
HETATM   31  C27 BCR B 618     -33.647 127.434   3.766  1.00 44.02     0.034 C 
HETATM   32  C28 BCR B 618     -32.854 126.379   4.531  1.00 46.97     0.005 C 
HETATM   33  C29 BCR B 618     -32.407 126.889   5.894  1.00 50.46     0.014 C 
HETATM   34  C30 BCR B 618     -33.619 127.214   6.756  1.00 44.40    -0.020 C 
HETATM   35  C35 BCR B 618     -42.370 140.092   6.494  1.00 29.80     0.048 C 
HETATM   36  C36 BCR B 618     -40.342 134.112  10.080  1.00 38.94     0.048 C 
HETATM   37  C37 BCR B 618     -37.746 129.410   8.645  1.00 32.34     0.048 C 
HETATM   38  C38 BCR B 618     -35.780 128.816   3.861  1.00 35.16     0.044 C 
HETATM   39  C39 BCR B 618     -33.156 128.023   7.963  1.00 36.65     0.020 C 
HETATM   40  C40 BCR B 618     -34.168 125.912   7.321  1.00 45.60     0.020 C 
ENDROOT
TORSDOF 10
