REMARK VINA RESULT:    -6.063      1.584     16.222
REMARK INTER + INTRA:         -10.416
REMARK INTER:                  -8.573
REMARK INTRA:                  -1.843
REMARK UNBOUND:                -4.353
REMARK  0 active torsions:
REMARK  status: ('A' for Active; 'I' for Inactive)
REMARK       I    between atoms: C6_6  and  C7_7 
REMARK       I    between atoms: C8_8  and  C9_9 
REMARK       I    between atoms: C10_10  and  C11_11 
REMARK       I    between atoms: C12_16  and  C13_17 
REMARK       I    between atoms: C14_18  and  C15_19 
REMARK       I    between atoms: C16_20  and  C17_21 
REMARK       I    between atoms: C18_22  and  C19_23 
REMARK       I    between atoms: C20_24  and  C21_25 
REMARK       I    between atoms: C22_26  and  C23_27 
REMARK       I    between atoms: C24_28  and  C25_29 
ROOT
HETATM    1  C1  BCR T 102     -46.906 148.428  14.551  1.00 34.19    -0.020 C 
HETATM    2  C2  BCR T 102     -47.918 149.361  15.224  1.00 31.05     0.014 C 
HETATM    3  C3  BCR T 102     -47.340 150.110  16.414  1.00 29.41     0.005 C 
HETATM    4  C4  BCR T 102     -46.141 150.933  15.997  1.00 30.85     0.034 C 
HETATM    5  C5  BCR T 102     -45.135 150.067  15.277  1.00 27.12    -0.077 C 
HETATM    6  C6  BCR T 102     -45.462 148.938  14.621  1.00 27.96    -0.048 C 
HETATM    7  C7  BCR T 102     -44.318 148.222  13.977  1.00 26.87     0.009 C 
HETATM    8  C8  BCR T 102     -44.361 147.041  13.345  1.00 27.18     0.007 C 
HETATM    9  C9  BCR T 102     -43.167 146.397  12.753  1.00 30.62    -0.062 C 
HETATM   10  C10 BCR T 102     -43.302 145.198  12.144  1.00 30.16     0.007 C 
HETATM   11  C11 BCR T 102     -42.185 144.444  11.573  1.00 28.29     0.001 C 
HETATM   12  C33 BCR T 102     -43.707 150.525  15.318  1.00 35.59     0.044 C 
HETATM   13  C31 BCR T 102     -47.336 148.262  13.096  1.00 18.19     0.020 C 
HETATM   14  C32 BCR T 102     -47.016 147.078  15.266  1.00 42.41     0.020 C 
HETATM   15  C34 BCR T 102     -41.829 147.076  12.849  1.00 37.30     0.048 C 
HETATM   16  C12 BCR T 102     -42.429 143.215  11.108  1.00 32.33     0.007 C 
HETATM   17  C13 BCR T 102     -41.377 142.306  10.597  1.00 37.30    -0.062 C 
HETATM   18  C14 BCR T 102     -41.770 141.046  10.309  1.00 30.82     0.007 C 
HETATM   19  C15 BCR T 102     -40.944 139.903   9.904  1.00 19.09     0.001 C 
HETATM   20  C16 BCR T 102     -41.404 138.838   9.216  1.00 25.22     0.001 C 
HETATM   21  C17 BCR T 102     -40.508 137.694   8.984  1.00 26.84     0.007 C 
HETATM   22  C18 BCR T 102     -40.801 136.560   8.286  1.00 21.71    -0.062 C 
HETATM   23  C19 BCR T 102     -39.800 135.469   8.292  1.00 29.36     0.007 C 
HETATM   24  C20 BCR T 102     -39.899 134.274   7.692  1.00 22.88     0.001 C 
HETATM   25  C21 BCR T 102     -38.794 133.344   7.971  1.00 23.49     0.007 C 
HETATM   26  C22 BCR T 102     -38.770 132.047   7.604  1.00 22.88    -0.062 C 
HETATM   27  C23 BCR T 102     -37.723 131.279   8.003  1.00 19.61     0.007 C 
HETATM   28  C24 BCR T 102     -37.559 129.968   7.743  1.00 16.86     0.009 C 
HETATM   29  C25 BCR T 102     -36.394 129.170   8.258  1.00 24.91    -0.048 C 
HETATM   30  C26 BCR T 102     -35.103 129.551   8.117  1.00 26.40    -0.077 C 
HETATM   31  C27 BCR T 102     -33.950 128.727   8.661  1.00 13.58     0.034 C 
HETATM   32  C28 BCR T 102     -34.385 127.852   9.817  1.00 15.86     0.005 C 
HETATM   33  C29 BCR T 102     -35.544 127.016   9.313  1.00 17.31     0.014 C 
HETATM   34  C30 BCR T 102     -36.766 127.856   8.957  1.00 34.25    -0.020 C 
HETATM   35  C35 BCR T 102     -39.948 142.768  10.464  1.00 22.35     0.048 C 
HETATM   36  C36 BCR T 102     -42.121 136.351   7.601  1.00 20.74     0.048 C 
HETATM   37  C37 BCR T 102     -39.903 131.476   6.802  1.00 18.69     0.048 C 
HETATM   38  C38 BCR T 102     -34.685 130.818   7.403  1.00 17.22     0.044 C 
HETATM   39  C39 BCR T 102     -37.617 128.138  10.197  1.00 23.16     0.020 C 
HETATM   40  C40 BCR T 102     -37.593 126.997   8.001  1.00 17.04     0.020 C 
ENDROOT
TORSDOF 10
