REMARK VINA RESULT:    -6.859      1.618     16.341
REMARK INTER + INTRA:          -9.345
REMARK INTER:                  -6.894
REMARK INTRA:                  -2.451
REMARK UNBOUND:                -2.486
REMARK  0 active torsions:
REMARK  status: ('A' for Active; 'I' for Inactive)
REMARK       I    between atoms: C6_6  and  C7_7 
REMARK       I    between atoms: C8_8  and  C9_9 
REMARK       I    between atoms: C10_10  and  C11_11 
REMARK       I    between atoms: C12_16  and  C13_17 
REMARK       I    between atoms: C14_18  and  C15_19 
REMARK       I    between atoms: C16_20  and  C17_21 
REMARK       I    between atoms: C18_22  and  C19_23 
REMARK       I    between atoms: C20_24  and  C21_25 
REMARK       I    between atoms: C22_26  and  C23_27 
REMARK       I    between atoms: C24_28  and  C25_29 
ROOT
HETATM    1  C1  BCR B 616     -49.981 148.761   9.028  1.00 31.32    -0.020 C 
HETATM    2  C2  BCR B 616     -51.237 149.540   9.362  1.00 32.97     0.014 C 
HETATM    3  C3  BCR B 616     -52.065 148.728  10.331  1.00 29.93     0.005 C 
HETATM    4  C4  BCR B 616     -52.600 147.506   9.624  1.00 26.02     0.034 C 
HETATM    5  C5  BCR B 616     -51.511 146.817   8.834  1.00 31.50    -0.077 C 
HETATM    6  C6  BCR B 616     -50.308 147.364   8.584  1.00 32.71    -0.048 C 
HETATM    7  C7  BCR B 616     -49.303 146.546   7.864  1.00 27.07     0.009 C 
HETATM    8  C8  BCR B 616     -48.301 145.933   8.495  1.00 26.19     0.007 C 
HETATM    9  C9  BCR B 616     -47.323 145.067   7.800  1.00 26.80    -0.062 C 
HETATM   10  C10 BCR B 616     -46.453 144.337   8.499  1.00 24.87     0.007 C 
HETATM   11  C11 BCR B 616     -45.508 143.425   7.861  1.00 26.76     0.001 C 
HETATM   12  C33 BCR B 616     -51.849 145.453   8.318  1.00 25.10     0.044 C 
HETATM   13  C31 BCR B 616     -49.116 148.702  10.276  1.00 28.04     0.020 C 
HETATM   14  C32 BCR B 616     -49.258 149.443   7.892  1.00 25.30     0.020 C 
HETATM   15  C34 BCR B 616     -47.304 144.954   6.312  1.00 25.88     0.048 C 
HETATM   16  C12 BCR B 616     -44.668 142.762   8.651  1.00 27.03     0.007 C 
HETATM   17  C13 BCR B 616     -43.692 141.766   8.187  1.00 24.87    -0.062 C 
HETATM   18  C14 BCR B 616     -42.925 141.131   9.087  1.00 25.36     0.007 C 
HETATM   19  C15 BCR B 616     -41.970 140.097   8.701  1.00 24.12     0.001 C 
HETATM   20  C16 BCR B 616     -41.340 139.352   9.599  1.00 24.28     0.001 C 
HETATM   21  C17 BCR B 616     -40.426 138.308   9.167  1.00 25.58     0.007 C 
HETATM   22  C18 BCR B 616     -39.756 137.537  10.031  1.00 28.46    -0.062 C 
HETATM   23  C19 BCR B 616     -38.869 136.490   9.492  1.00 23.05     0.007 C 
HETATM   24  C20 BCR B 616     -38.283 135.536  10.202  1.00 21.86     0.001 C 
HETATM   25  C21 BCR B 616     -37.462 134.589   9.461  1.00 26.78     0.007 C 
HETATM   26  C22 BCR B 616     -36.950 133.452   9.950  1.00 25.31    -0.062 C 
HETATM   27  C23 BCR B 616     -36.135 132.588   9.074  1.00 19.67     0.007 C 
HETATM   28  C24 BCR B 616     -35.593 131.463   9.526  1.00 21.08     0.009 C 
HETATM   29  C25 BCR B 616     -34.749 130.548   8.725  1.00 24.69    -0.048 C 
HETATM   30  C26 BCR B 616     -35.164 130.035   7.569  1.00 24.70    -0.077 C 
HETATM   31  C27 BCR B 616     -34.179 129.476   6.581  1.00 28.87     0.034 C 
HETATM   32  C28 BCR B 616     -33.150 128.659   7.322  1.00 22.34     0.005 C 
HETATM   33  C29 BCR B 616     -32.426 129.601   8.252  1.00 23.43     0.014 C 
HETATM   34  C30 BCR B 616     -33.380 130.189   9.278  1.00 25.38    -0.020 C 
HETATM   35  C35 BCR B 616     -43.601 141.450   6.730  1.00 22.52     0.048 C 
HETATM   36  C36 BCR B 616     -39.902 137.734  11.507  1.00 21.22     0.048 C 
HETATM   37  C37 BCR B 616     -37.197 133.080  11.376  1.00 24.02     0.048 C 
HETATM   38  C38 BCR B 616     -36.609 129.960   7.188  1.00 26.85     0.044 C 
HETATM   39  C39 BCR B 616     -32.733 131.439   9.836  1.00 22.16     0.020 C 
HETATM   40  C40 BCR B 616     -33.528 129.186  10.399  1.00 23.21     0.020 C 
ENDROOT
TORSDOF 10
