REMARK VINA RESULT:    -9.172      0.000      0.000
REMARK INTER + INTRA:         -15.771
REMARK INTER:                  -9.172
REMARK INTRA:                  -6.599
REMARK UNBOUND:                -6.599
REMARK  0 active torsions:
REMARK  status: ('A' for Active; 'I' for Inactive)
REMARK       I    between atoms: C6_6  and  C7_7 
REMARK       I    between atoms: C8_8  and  C9_9 
REMARK       I    between atoms: C10_10  and  C11_11 
REMARK       I    between atoms: C12_16  and  C13_17 
REMARK       I    between atoms: C14_18  and  C15_19 
REMARK       I    between atoms: C16_20  and  C17_21 
REMARK       I    between atoms: C18_22  and  C19_23 
REMARK       I    between atoms: C20_24  and  C21_25 
REMARK       I    between atoms: C22_26  and  C23_27 
REMARK       I    between atoms: C24_28  and  C25_29 
ROOT
HETATM    1  C1  BCR B 618     -34.966 130.708   8.157  1.00 18.61    -0.020 C 
HETATM    2  C2  BCR B 618     -33.842 129.843   8.680  1.00 18.63     0.014 C 
HETATM    3  C3  BCR B 618     -33.239 130.453   9.909  1.00 18.62     0.005 C 
HETATM    4  C4  BCR B 618     -34.264 130.565  11.006  1.00 18.60     0.034 C 
HETATM    5  C5  BCR B 618     -35.587 131.030  10.522  1.00 18.57    -0.077 C 
HETATM    6  C6  BCR B 618     -35.937 131.113   9.224  1.00 18.52    -0.048 C 
HETATM    7  C7  BCR B 618     -37.264 131.563   8.773  1.00 18.34     0.009 C 
HETATM    8  C8  BCR B 618     -37.629 132.846   8.739  1.00 18.07     0.007 C 
HETATM    9  C9  BCR B 618     -38.928 133.366   8.364  1.00 17.93    -0.062 C 
HETATM   10  C10 BCR B 618     -39.226 134.618   8.743  1.00 17.77     0.007 C 
HETATM   11  C11 BCR B 618     -40.271 135.426   8.167  1.00 17.60     0.001 C 
HETATM   12  C33 BCR B 618     -36.493 131.394  11.633  1.00 18.57     0.044 C 
HETATM   13  C31 BCR B 618     -35.637 129.912   7.058  1.00 18.66     0.020 C 
HETATM   14  C32 BCR B 618     -34.326 131.937   7.542  1.00 18.64     0.020 C 
HETATM   15  C34 BCR B 618     -39.604 132.741   7.213  1.00 17.92     0.048 C 
HETATM   16  C12 BCR B 618     -40.464 136.678   8.608  1.00 17.46     0.007 C 
HETATM   17  C13 BCR B 618     -41.618 137.488   8.297  1.00 17.39    -0.062 C 
HETATM   18  C14 BCR B 618     -41.663 138.753   8.743  1.00 17.35     0.007 C 
HETATM   19  C15 BCR B 618     -42.691 139.696   8.401  1.00 17.33     0.001 C 
HETATM   20  C16 BCR B 618     -42.676 140.938   8.904  1.00 17.39     0.001 C 
HETATM   21  C17 BCR B 618     -43.841 141.772   8.764  1.00 17.40     0.007 C 
HETATM   22  C18 BCR B 618     -43.969 143.038   9.181  1.00 17.49    -0.062 C 
HETATM   23  C19 BCR B 618     -45.152 143.758   8.767  1.00 17.57     0.007 C 
HETATM   24  C20 BCR B 618     -45.538 144.918   9.289  1.00 17.71     0.001 C 
HETATM   25  C21 BCR B 618     -46.710 145.564   8.765  1.00 17.85     0.007 C 
HETATM   26  C22 BCR B 618     -47.269 146.680   9.241  1.00 18.00    -0.062 C 
HETATM   27  C23 BCR B 618     -48.355 147.263   8.479  1.00 18.11     0.007 C 
HETATM   28  C24 BCR B 618     -49.093 148.272   8.950  1.00 18.27     0.009 C 
HETATM   29  C25 BCR B 618     -50.195 148.955   8.272  1.00 18.38    -0.048 C 
HETATM   30  C26 BCR B 618     -51.417 148.427   8.120  1.00 18.39    -0.077 C 
HETATM   31  C27 BCR B 618     -52.583 149.045   7.447  1.00 18.43     0.034 C 
HETATM   32  C28 BCR B 618     -52.302 150.389   6.819  1.00 18.45     0.005 C 
HETATM   33  C29 BCR B 618     -50.837 150.643   6.584  1.00 18.46     0.014 C 
HETATM   34  C30 BCR B 618     -49.946 150.342   7.771  1.00 18.45    -0.020 C 
HETATM   35  C35 BCR B 618     -42.563 137.040   7.255  1.00 17.31     0.048 C 
HETATM   36  C36 BCR B 618     -43.215 143.547  10.344  1.00 17.49     0.048 C 
HETATM   37  C37 BCR B 618     -46.679 147.451  10.356  1.00 18.00     0.048 C 
HETATM   38  C38 BCR B 618     -51.808 147.079   8.571  1.00 18.43     0.044 C 
HETATM   39  C39 BCR B 618     -50.131 151.350   8.894  1.00 18.49     0.020 C 
HETATM   40  C40 BCR B 618     -48.534 150.562   7.262  1.00 18.48     0.020 C 
ENDROOT
TORSDOF 10
