REMARK VINA RESULT:    -6.367      0.000      0.000
REMARK INTER + INTRA:         -13.476
REMARK INTER:                  -6.367
REMARK INTRA:                  -7.109
REMARK UNBOUND:                -7.109
REMARK  0 active torsions:
REMARK  status: ('A' for Active; 'I' for Inactive)
REMARK       I    between atoms: C6_6  and  C7_7 
REMARK       I    between atoms: C8_8  and  C9_9 
REMARK       I    between atoms: C10_10  and  C11_11 
REMARK       I    between atoms: C12_16  and  C13_17 
REMARK       I    between atoms: C14_18  and  C15_19 
REMARK       I    between atoms: C16_20  and  C17_21 
REMARK       I    between atoms: C18_22  and  C19_23 
REMARK       I    between atoms: C20_24  and  C21_25 
REMARK       I    between atoms: C22_26  and  C23_27 
REMARK       I    between atoms: C24_28  and  C25_29 
ROOT
HETATM    1  C1  BCR B 627     -36.744 133.114   9.918  1.00 20.03    -0.020 C 
HETATM    2  C2  BCR B 627     -35.853 131.888  10.095  1.00 20.04     0.014 C 
HETATM    3  C3  BCR B 627     -36.364 130.635   9.450  1.00 20.04     0.005 C 
HETATM    4  C4  BCR B 627     -36.849 130.916   8.058  1.00 20.06     0.034 C 
HETATM    5  C5  BCR B 627     -37.927 131.918   8.131  1.00 20.07    -0.077 C 
HETATM    6  C6  BCR B 627     -37.905 132.953   8.969  1.00 20.01    -0.048 C 
HETATM    7  C7  BCR B 627     -39.040 133.888   9.048  1.00 19.93     0.009 C 
HETATM    8  C8  BCR B 627     -39.026 135.176   8.708  1.00 19.77     0.007 C 
HETATM    9  C9  BCR B 627     -40.195 136.022   8.588  1.00 19.74    -0.062 C 
HETATM   10  C10 BCR B 627     -40.162 137.211   9.200  1.00 19.67     0.007 C 
HETATM   11  C11 BCR B 627     -41.110 138.277   9.008  1.00 19.57     0.001 C 
HETATM   12  C33 BCR B 627     -39.025 131.669   7.182  1.00 20.11     0.044 C 
HETATM   13  C31 BCR B 627     -35.773 134.196   9.479  1.00 20.01     0.020 C 
HETATM   14  C32 BCR B 627     -37.257 133.480  11.297  1.00 20.03     0.020 C 
HETATM   15  C34 BCR B 627     -41.086 135.795   7.433  1.00 19.74     0.048 C 
HETATM   16  C12 BCR B 627     -41.112 139.293   9.875  1.00 19.46     0.007 C 
HETATM   17  C13 BCR B 627     -42.119 140.321   9.941  1.00 19.38    -0.062 C 
HETATM   18  C14 BCR B 627     -41.972 141.331  10.810  1.00 19.31     0.007 C 
HETATM   19  C15 BCR B 627     -42.974 142.326  11.070  1.00 19.23     0.001 C 
HETATM   20  C16 BCR B 627     -42.678 143.466  11.704  1.00 19.14     0.001 C 
HETATM   21  C17 BCR B 627     -43.767 144.331  12.071  1.00 19.09     0.007 C 
HETATM   22  C18 BCR B 627     -43.709 145.485  12.749  1.00 19.05    -0.062 C 
HETATM   23  C19 BCR B 627     -44.956 146.180  13.039  1.00 18.93     0.007 C 
HETATM   24  C20 BCR B 627     -45.055 147.187  13.907  1.00 18.76     0.001 C 
HETATM   25  C21 BCR B 627     -46.352 147.727  14.238  1.00 18.56     0.007 C 
HETATM   26  C22 BCR B 627     -46.586 148.744  15.072  1.00 18.41    -0.062 C 
HETATM   27  C23 BCR B 627     -47.872 148.798  15.748  1.00 18.24     0.007 C 
HETATM   28  C24 BCR B 627     -48.465 149.922  16.160  1.00 18.04     0.009 C 
HETATM   29  C25 BCR B 627     -49.876 150.083  16.522  1.00 17.92    -0.048 C 
HETATM   30  C26 BCR B 627     -50.857 150.143  15.604  1.00 17.87    -0.077 C 
HETATM   31  C27 BCR B 627     -52.301 150.295  15.882  1.00 17.85     0.034 C 
HETATM   32  C28 BCR B 627     -52.600 149.899  17.299  1.00 17.84     0.005 C 
HETATM   33  C29 BCR B 627     -51.644 150.603  18.220  1.00 17.86     0.014 C 
HETATM   34  C30 BCR B 627     -50.200 150.207  17.985  1.00 17.90    -0.020 C 
HETATM   35  C35 BCR B 627     -43.154 140.381   8.891  1.00 19.38     0.048 C 
HETATM   36  C36 BCR B 627     -42.439 146.017  13.284  1.00 19.05     0.048 C 
HETATM   37  C37 BCR B 627     -45.484 149.597  15.559  1.00 18.42     0.048 C 
HETATM   38  C38 BCR B 627     -50.653 150.061  14.145  1.00 17.77     0.044 C 
HETATM   39  C39 BCR B 627     -49.867 148.941  18.767  1.00 17.89     0.020 C 
HETATM   40  C40 BCR B 627     -49.422 151.350  18.623  1.00 17.88     0.020 C 
ENDROOT
TORSDOF 10
