REMARK VINA RESULT:    -7.068      0.000      0.000
REMARK INTER + INTRA:         -10.983
REMARK INTER:                  -7.068
REMARK INTRA:                  -3.915
REMARK UNBOUND:                -3.915
REMARK  0 active torsions:
REMARK  status: ('A' for Active; 'I' for Inactive)
REMARK       I    between atoms: C6_6  and  C7_7 
REMARK       I    between atoms: C8_8  and  C9_9 
REMARK       I    between atoms: C10_10  and  C11_11 
REMARK       I    between atoms: C12_16  and  C13_17 
REMARK       I    between atoms: C14_18  and  C15_19 
REMARK       I    between atoms: C16_20  and  C17_21 
REMARK       I    between atoms: C18_22  and  C19_23 
REMARK       I    between atoms: C20_24  and  C21_25 
REMARK       I    between atoms: C22_26  and  C23_27 
REMARK       I    between atoms: C24_28  and  C25_29 
ROOT
HETATM    1  C1  BCR D 404     -33.276 128.958   8.004  1.00 29.33    -0.020 C 
HETATM    2  C2  BCR D 404     -33.097 127.592   7.385  1.00 25.95     0.014 C 
HETATM    3  C3  BCR D 404     -33.282 127.714   5.889  1.00 26.55     0.005 C 
HETATM    4  C4  BCR D 404     -34.741 127.996   5.624  1.00 23.72     0.034 C 
HETATM    5  C5  BCR D 404     -35.203 129.147   6.477  1.00 25.63    -0.077 C 
HETATM    6  C6  BCR D 404     -34.635 129.488   7.638  1.00 23.11    -0.048 C 
HETATM    7  C7  BCR D 404     -35.381 130.384   8.551  1.00 27.25     0.009 C 
HETATM    8  C8  BCR D 404     -35.332 131.730   8.557  1.00 31.75     0.007 C 
HETATM    9  C9  BCR D 404     -36.185 132.493   9.502  1.00 30.45    -0.062 C 
HETATM   10  C10 BCR D 404     -36.665 133.704   9.151  1.00 28.92     0.007 C 
HETATM   11  C11 BCR D 404     -37.557 134.528   9.982  1.00 28.53     0.001 C 
HETATM   12  C33 BCR D 404     -36.384 129.898   5.957  1.00 27.97     0.044 C 
HETATM   13  C31 BCR D 404     -32.197 129.880   7.474  1.00 31.59     0.020 C 
HETATM   14  C32 BCR D 404     -33.150 128.870   9.513  1.00 33.86     0.020 C 
HETATM   15  C34 BCR D 404     -36.525 131.914  10.836  1.00 24.62     0.048 C 
HETATM   16  C12 BCR D 404     -38.064 135.654   9.449  1.00 31.92     0.007 C 
HETATM   17  C13 BCR D 404     -39.034 136.583  10.087  1.00 28.09    -0.062 C 
HETATM   18  C14 BCR D 404     -39.555 137.604   9.374  1.00 31.13     0.007 C 
HETATM   19  C15 BCR D 404     -40.577 138.510   9.923  1.00 33.62     0.001 C 
HETATM   20  C16 BCR D 404     -41.323 139.250   9.092  1.00 32.82     0.001 C 
HETATM   21  C17 BCR D 404     -42.419 140.107   9.559  1.00 36.56     0.007 C 
HETATM   22  C18 BCR D 404     -43.115 140.931   8.750  1.00 38.25    -0.062 C 
HETATM   23  C19 BCR D 404     -44.261 141.696   9.291  1.00 39.93     0.007 C 
HETATM   24  C20 BCR D 404     -44.967 142.632   8.654  1.00 37.81     0.001 C 
HETATM   25  C21 BCR D 404     -46.098 143.179   9.405  1.00 37.37     0.007 C 
HETATM   26  C22 BCR D 404     -46.997 144.061   8.940  1.00 39.01    -0.062 C 
HETATM   27  C23 BCR D 404     -48.112 144.449   9.825  1.00 44.21     0.007 C 
HETATM   28  C24 BCR D 404     -49.308 144.637   9.267  1.00 45.60     0.009 C 
HETATM   29  C25 BCR D 404     -50.534 144.979  10.020  1.00 49.42    -0.048 C 
HETATM   30  C26 BCR D 404     -51.086 144.065  10.812  1.00 50.69    -0.077 C 
HETATM   31  C27 BCR D 404     -51.818 144.441  12.077  1.00 48.97     0.034 C 
HETATM   32  C28 BCR D 404     -52.439 145.826  11.953  1.00 45.61     0.005 C 
HETATM   33  C29 BCR D 404     -52.590 146.235  10.498  1.00 44.72     0.014 C 
HETATM   34  C30 BCR D 404     -51.219 146.307   9.856  1.00 44.79    -0.020 C 
HETATM   35  C35 BCR D 404     -39.478 136.382  11.498  1.00 26.94     0.048 C 
HETATM   36  C36 BCR D 404     -42.769 141.037   7.300  1.00 35.64     0.048 C 
HETATM   37  C37 BCR D 404     -46.891 144.623   7.558  1.00 34.59     0.048 C 
HETATM   38  C38 BCR D 404     -51.024 142.624  10.413  1.00 46.70     0.044 C 
HETATM   39  C39 BCR D 404     -50.381 147.362  10.547  1.00 50.31     0.020 C 
HETATM   40  C40 BCR D 404     -51.369 146.599   8.373  1.00 44.71     0.020 C 
ENDROOT
TORSDOF 10
