REMARK VINA RESULT:    -8.724      0.000      0.000
REMARK INTER + INTRA:         -15.340
REMARK INTER:                  -8.724
REMARK INTRA:                  -6.616
REMARK UNBOUND:                -6.616
REMARK  0 active torsions:
REMARK  status: ('A' for Active; 'I' for Inactive)
REMARK       I    between atoms: C6_6  and  C7_7 
REMARK       I    between atoms: C8_8  and  C9_9 
REMARK       I    between atoms: C10_10  and  C11_11 
REMARK       I    between atoms: C12_16  and  C13_17 
REMARK       I    between atoms: C14_18  and  C15_19 
REMARK       I    between atoms: C16_20  and  C17_21 
REMARK       I    between atoms: C18_22  and  C19_23 
REMARK       I    between atoms: C20_24  and  C21_25 
REMARK       I    between atoms: C22_26  and  C23_27 
REMARK       I    between atoms: C24_28  and  C25_29 
ROOT
HETATM    1  C1  BCR B 620     -49.164 150.322  14.123  1.00 37.79    -0.020 C 
HETATM    2  C2  BCR B 620     -50.558 150.934  14.053  1.00 35.37     0.014 C 
HETATM    3  C3  BCR B 620     -51.404 150.347  12.946  1.00 36.48     0.005 C 
HETATM    4  C4  BCR B 620     -50.733 150.702  11.636  1.00 39.27     0.034 C 
HETATM    5  C5  BCR B 620     -49.319 150.167  11.618  1.00 42.60    -0.077 C 
HETATM    6  C6  BCR B 620     -48.588 149.985  12.749  1.00 28.70    -0.048 C 
HETATM    7  C7  BCR B 620     -47.188 149.460  12.727  1.00 32.59     0.009 C 
HETATM    8  C8  BCR B 620     -46.814 148.326  12.105  1.00 37.02     0.007 C 
HETATM    9  C9  BCR B 620     -45.430 147.804  12.081  1.00 36.25    -0.062 C 
HETATM   10  C10 BCR B 620     -45.211 146.595  11.508  1.00 26.68     0.007 C 
HETATM   11  C11 BCR B 620     -43.923 145.879  11.437  1.00 28.95     0.001 C 
HETATM   12  C33 BCR B 620     -48.798 149.865  10.241  1.00 49.87     0.044 C 
HETATM   13  C31 BCR B 620     -49.200 149.082  15.018  1.00 22.29     0.020 C 
HETATM   14  C32 BCR B 620     -48.255 151.350  14.775  1.00 31.04     0.020 C 
HETATM   15  C34 BCR B 620     -44.327 148.630  12.686  1.00 35.26     0.048 C 
HETATM   16  C12 BCR B 620     -43.937 144.633  10.927  1.00 26.61     0.007 C 
HETATM   17  C13 BCR B 620     -42.766 143.720  10.825  1.00 16.97    -0.062 C 
HETATM   18  C14 BCR B 620     -42.924 142.502  10.237  1.00 21.22     0.007 C 
HETATM   19  C15 BCR B 620     -41.873 141.476  10.142  1.00 28.31     0.001 C 
HETATM   20  C16 BCR B 620     -42.091 140.277   9.560  1.00 26.43     0.001 C 
HETATM   21  C17 BCR B 620     -41.037 139.245   9.548  1.00 21.75     0.007 C 
HETATM   22  C18 BCR B 620     -41.114 138.029   8.940  1.00 17.08    -0.062 C 
HETATM   23  C19 BCR B 620     -39.963 137.094   9.070  1.00 22.22     0.007 C 
HETATM   24  C20 BCR B 620     -39.931 135.821   8.642  1.00 26.39     0.001 C 
HETATM   25  C21 BCR B 620     -38.716 135.045   8.912  1.00 28.06     0.007 C 
HETATM   26  C22 BCR B 620     -38.454 133.788   8.491  1.00 31.03    -0.062 C 
HETATM   27  C23 BCR B 620     -37.295 133.206   8.857  1.00 32.45     0.007 C 
HETATM   28  C24 BCR B 620     -37.118 131.873   8.792  1.00 22.88     0.009 C 
HETATM   29  C25 BCR B 620     -35.853 131.218   9.212  1.00 23.62    -0.048 C 
HETATM   30  C26 BCR B 620     -35.612 131.009  10.525  1.00 23.31    -0.077 C 
HETATM   31  C27 BCR B 620     -34.353 130.347  11.055  1.00 21.45     0.034 C 
HETATM   32  C28 BCR B 620     -33.229 130.300  10.023  1.00 16.09     0.005 C 
HETATM   33  C29 BCR B 620     -33.771 129.866   8.680  1.00 25.48     0.014 C 
HETATM   34  C30 BCR B 620     -34.880 130.767   8.140  1.00 37.58    -0.020 C 
HETATM   35  C35 BCR B 620     -41.446 144.132  11.427  1.00 20.61     0.048 C 
HETATM   36  C36 BCR B 620     -42.345 137.629   8.157  1.00 18.89     0.048 C 
HETATM   37  C37 BCR B 620     -39.421 133.022   7.630  1.00 23.40     0.048 C 
HETATM   38  C38 BCR B 620     -36.615 131.439  11.553  1.00 23.13     0.044 C 
HETATM   39  C39 BCR B 620     -35.693 129.948   7.136  1.00 25.03     0.020 C 
HETATM   40  C40 BCR B 620     -34.248 131.956   7.418  1.00 32.22     0.020 C 
ENDROOT
TORSDOF 10
