REMARK VINA RESULT:    -6.231      1.876     16.243
REMARK INTER + INTRA:         -12.939
REMARK INTER:                  -9.849
REMARK INTRA:                  -3.090
REMARK UNBOUND:                -6.708
REMARK  0 active torsions:
REMARK  status: ('A' for Active; 'I' for Inactive)
REMARK       I    between atoms: C6_6  and  C7_7 
REMARK       I    between atoms: C8_8  and  C9_9 
REMARK       I    between atoms: C10_10  and  C11_11 
REMARK       I    between atoms: C12_16  and  C13_17 
REMARK       I    between atoms: C14_18  and  C15_19 
REMARK       I    between atoms: C16_20  and  C17_21 
REMARK       I    between atoms: C18_22  and  C19_23 
REMARK       I    between atoms: C20_24  and  C21_25 
REMARK       I    between atoms: C22_26  and  C23_27 
REMARK       I    between atoms: C24_28  and  C25_29 
ROOT
HETATM    1  C1  BCR H 102     -31.984 130.372   7.087  1.00 25.36    -0.020 C 
HETATM    2  C2  BCR H 102     -30.983 129.391   6.513  1.00 22.06     0.014 C 
HETATM    3  C3  BCR H 102     -31.572 128.687   5.317  1.00 25.43     0.005 C 
HETATM    4  C4  BCR H 102     -32.743 127.854   5.800  1.00 27.47     0.034 C 
HETATM    5  C5  BCR H 102     -33.767 128.728   6.478  1.00 26.86    -0.077 C 
HETATM    6  C6  BCR H 102     -33.406 129.832   7.164  1.00 28.94    -0.048 C 
HETATM    7  C7  BCR H 102     -34.338 130.682   7.957  1.00 27.41     0.009 C 
HETATM    8  C8  BCR H 102     -35.453 130.383   8.626  1.00 28.65     0.007 C 
HETATM    9  C9  BCR H 102     -36.147 131.480   9.321  1.00 28.29    -0.062 C 
HETATM   10  C10 BCR H 102     -37.358 131.899   8.949  1.00 25.92     0.007 C 
HETATM   11  C11 BCR H 102     -37.986 132.999   9.665  1.00 28.10     0.001 C 
HETATM   12  C33 BCR H 102     -35.184 128.285   6.285  1.00 26.00     0.044 C 
HETATM   13  C31 BCR H 102     -32.048 131.609   6.214  1.00 26.13     0.020 C 
HETATM   14  C32 BCR H 102     -31.482 130.782   8.456  1.00 26.25     0.020 C 
HETATM   15  C34 BCR H 102     -35.475 132.130  10.488  1.00 31.23     0.048 C 
HETATM   16  C12 BCR H 102     -38.961 133.665   9.064  1.00 28.27     0.007 C 
HETATM   17  C13 BCR H 102     -39.633 134.811   9.683  1.00 27.17    -0.062 C 
HETATM   18  C14 BCR H 102     -40.497 135.517   8.946  1.00 27.77     0.007 C 
HETATM   19  C15 BCR H 102     -41.221 136.684   9.434  1.00 27.77     0.001 C 
HETATM   20  C16 BCR H 102     -41.811 137.476   8.544  1.00 27.54     0.001 C 
HETATM   21  C17 BCR H 102     -42.562 138.650   8.956  1.00 29.95     0.007 C 
HETATM   22  C18 BCR H 102     -43.104 139.499   8.077  1.00 32.47    -0.062 C 
HETATM   23  C19 BCR H 102     -43.880 140.641   8.585  1.00 38.93     0.007 C 
HETATM   24  C20 BCR H 102     -44.521 141.497   7.800  1.00 35.02     0.001 C 
HETATM   25  C21 BCR H 102     -45.279 142.570   8.438  1.00 36.49     0.007 C 
HETATM   26  C22 BCR H 102     -45.919 143.537   7.767  1.00 41.54    -0.062 C 
HETATM   27  C23 BCR H 102     -46.673 144.548   8.526  1.00 41.98     0.007 C 
HETATM   28  C24 BCR H 102     -47.293 145.544   7.900  1.00 40.47     0.009 C 
HETATM   29  C25 BCR H 102     -48.091 146.585   8.587  1.00 41.05    -0.048 C 
HETATM   30  C26 BCR H 102     -47.534 147.517   9.369  1.00 39.79    -0.077 C 
HETATM   31  C27 BCR H 102     -48.323 148.729   9.778  1.00 42.14     0.034 C 
HETATM   32  C28 BCR H 102     -49.700 148.279  10.204  1.00 43.18     0.005 C 
HETATM   33  C29 BCR H 102     -50.395 147.636   9.021  1.00 42.37     0.014 C 
HETATM   34  C30 BCR H 102     -49.579 146.570   8.301  1.00 38.21    -0.020 C 
HETATM   35  C35 BCR H 102     -39.319 135.191  11.090  1.00 25.69     0.048 C 
HETATM   36  C36 BCR H 102     -42.955 139.284   6.607  1.00 32.21     0.048 C 
HETATM   37  C37 BCR H 102     -45.904 143.598   6.270  1.00 34.38     0.048 C 
HETATM   38  C38 BCR H 102     -46.126 147.424   9.878  1.00 36.04     0.044 C 
HETATM   39  C39 BCR H 102     -49.769 146.794   6.815  1.00 40.10     0.020 C 
HETATM   40  C40 BCR H 102     -50.142 145.197   8.623  1.00 38.80     0.020 C 
ENDROOT
TORSDOF 10
