REMARK VINA RESULT:   -10.346      0.000      0.000
REMARK INTER + INTRA:         -12.929
REMARK INTER:                 -10.346
REMARK INTRA:                  -2.583
REMARK UNBOUND:                -2.583
REMARK  0 active torsions:
REMARK  status: ('A' for Active; 'I' for Inactive)
REMARK       I    between atoms: C6_6  and  C7_7 
REMARK       I    between atoms: C8_8  and  C9_9 
REMARK       I    between atoms: C10_10  and  C11_11 
REMARK       I    between atoms: C12_16  and  C13_17 
REMARK       I    between atoms: C14_18  and  C15_19 
REMARK       I    between atoms: C16_20  and  C17_21 
REMARK       I    between atoms: C18_22  and  C19_23 
REMARK       I    between atoms: C20_24  and  C21_25 
REMARK       I    between atoms: C22_26  and  C23_27 
REMARK       I    between atoms: C24_28  and  C25_29 
ROOT
HETATM    1  C1  BCR C 515     -48.918 147.883   9.988  1.00 64.45    -0.020 C 
HETATM    2  C2  BCR C 515     -50.069 148.682  10.577  1.00 66.34     0.014 C 
HETATM    3  C3  BCR C 515     -50.751 147.889  11.677  1.00 64.94     0.005 C 
HETATM    4  C4  BCR C 515     -51.412 146.671  11.060  1.00 69.15     0.034 C 
HETATM    5  C5  BCR C 515     -50.423 145.885  10.224  1.00 67.88    -0.077 C 
HETATM    6  C6  BCR C 515     -49.291 146.433   9.732  1.00 62.48    -0.048 C 
HETATM    7  C7  BCR C 515     -48.371 145.603   8.909  1.00 58.32     0.009 C 
HETATM    8  C8  BCR C 515     -47.477 144.752   9.427  1.00 62.07     0.007 C 
HETATM    9  C9  BCR C 515     -46.605 143.947   8.541  1.00 70.38    -0.062 C 
HETATM   10  C10 BCR C 515     -45.892 142.933   9.069  1.00 58.20     0.007 C 
HETATM   11  C11 BCR C 515     -44.999 142.052   8.308  1.00 74.05     0.001 C 
HETATM   12  C33 BCR C 515     -50.764 144.445   9.952  1.00 58.01     0.044 C 
HETATM   13  C31 BCR C 515     -47.763 147.942  10.978  1.00 56.77     0.020 C 
HETATM   14  C32 BCR C 515     -48.499 148.509   8.663  1.00 77.72     0.020 C 
HETATM   15  C34 BCR C 515     -46.541 144.267   7.073  1.00 64.61     0.048 C 
HETATM   16  C12 BCR C 515     -44.315 141.107   8.970  1.00 68.22     0.007 C 
HETATM   17  C13 BCR C 515     -43.394 140.157   8.306  1.00 69.92    -0.062 C 
HETATM   18  C14 BCR C 515     -42.755 139.231   9.049  1.00 61.13     0.007 C 
HETATM   19  C15 BCR C 515     -41.836 138.258   8.446  1.00 67.07     0.001 C 
HETATM   20  C16 BCR C 515     -41.331 137.243   9.152  1.00 65.97     0.001 C 
HETATM   21  C17 BCR C 515     -40.413 136.291   8.521  1.00 63.92     0.007 C 
HETATM   22  C18 BCR C 515     -39.722 135.386   9.243  1.00 72.24    -0.062 C 
HETATM   23  C19 BCR C 515     -38.786 134.457   8.567  1.00 72.11     0.007 C 
HETATM   24  C20 BCR C 515     -37.995 133.620   9.245  1.00 62.37     0.001 C 
HETATM   25  C21 BCR C 515     -37.083 132.772   8.477  1.00 64.97     0.007 C 
HETATM   26  C22 BCR C 515     -36.045 132.101   9.020  1.00 64.05    -0.062 C 
HETATM   27  C23 BCR C 515     -35.282 131.374   8.183  1.00 66.35     0.007 C 
HETATM   28  C24 BCR C 515     -34.356 130.471   8.530  1.00 62.33     0.009 C 
HETATM   29  C25 BCR C 515     -33.585 129.702   7.506  1.00 72.77    -0.048 C 
HETATM   30  C26 BCR C 515     -34.188 128.801   6.699  1.00 78.06    -0.077 C 
HETATM   31  C27 BCR C 515     -33.442 127.999   5.653  1.00 80.00     0.034 C 
HETATM   32  C28 BCR C 515     -32.088 128.602   5.333  1.00 71.02     0.005 C 
HETATM   33  C29 BCR C 515     -31.375 128.860   6.644  1.00 72.75     0.014 C 
HETATM   34  C30 BCR C 515     -32.094 129.960   7.404  1.00 66.18    -0.020 C 
HETATM   35  C35 BCR C 515     -43.180 140.211   6.819  1.00 51.91     0.048 C 
HETATM   36  C36 BCR C 515     -39.862 135.341  10.738  1.00 60.56     0.048 C 
HETATM   37  C37 BCR C 515     -35.773 132.157  10.497  1.00 49.66     0.048 C 
HETATM   38  C38 BCR C 515     -35.661 128.522   6.784  1.00 83.49     0.044 C 
HETATM   39  C39 BCR C 515     -31.877 131.284   6.682  1.00 61.85     0.020 C 
HETATM   40  C40 BCR C 515     -31.518 130.011   8.811  1.00 69.80     0.020 C 
ENDROOT
TORSDOF 10
