REMARK VINA RESULT:    -4.077      1.840     16.229
REMARK INTER + INTRA:          -7.992
REMARK INTER:                  -6.220
REMARK INTRA:                  -1.772
REMARK UNBOUND:                -3.915
REMARK  0 active torsions:
REMARK  status: ('A' for Active; 'I' for Inactive)
REMARK       I    between atoms: C6_6  and  C7_7 
REMARK       I    between atoms: C8_8  and  C9_9 
REMARK       I    between atoms: C10_10  and  C11_11 
REMARK       I    between atoms: C12_16  and  C13_17 
REMARK       I    between atoms: C14_18  and  C15_19 
REMARK       I    between atoms: C16_20  and  C17_21 
REMARK       I    between atoms: C18_22  and  C19_23 
REMARK       I    between atoms: C20_24  and  C21_25 
REMARK       I    between atoms: C22_26  and  C23_27 
REMARK       I    between atoms: C24_28  and  C25_29 
ROOT
HETATM    1  C1  BCR D 404     -51.293 146.421  12.147  1.00 29.33    -0.020 C 
HETATM    2  C2  BCR D 404     -51.958 147.083  13.330  1.00 25.95     0.014 C 
HETATM    3  C3  BCR D 404     -50.886 147.685  14.209  1.00 26.55     0.005 C 
HETATM    4  C4  BCR D 404     -50.130 146.552  14.860  1.00 23.72     0.034 C 
HETATM    5  C5  BCR D 404     -49.696 145.559  13.816  1.00 25.63    -0.077 C 
HETATM    6  C6  BCR D 404     -50.318 145.389  12.646  1.00 23.11    -0.048 C 
HETATM    7  C7  BCR D 404     -50.035 144.162  11.868  1.00 27.25     0.009 C 
HETATM    8  C8  BCR D 404     -49.061 144.012  10.949  1.00 31.75     0.007 C 
HETATM    9  C9  BCR D 404     -48.866 142.696  10.291  1.00 30.45    -0.062 C 
HETATM   10  C10 BCR D 404     -47.631 142.304   9.918  1.00 28.92     0.007 C 
HETATM   11  C11 BCR D 404     -47.310 141.005   9.305  1.00 28.53     0.001 C 
HETATM   12  C33 BCR D 404     -48.509 144.728  14.175  1.00 27.97     0.044 C 
HETATM   13  C31 BCR D 404     -50.567 147.477  11.340  1.00 31.59     0.020 C 
HETATM   14  C32 BCR D 404     -52.333 145.757  11.265  1.00 33.86     0.020 C 
HETATM   15  C34 BCR D 404     -50.037 141.799  10.055  1.00 24.62     0.048 C 
HETATM   16  C12 BCR D 404     -46.016 140.697   9.107  1.00 31.92     0.007 C 
HETATM   17  C13 BCR D 404     -45.476 139.418   8.573  1.00 28.09    -0.062 C 
HETATM   18  C14 BCR D 404     -44.144 139.206   8.557  1.00 31.13     0.007 C 
HETATM   19  C15 BCR D 404     -43.552 137.932   8.114  1.00 33.62     0.001 C 
HETATM   20  C16 BCR D 404     -42.294 137.630   8.459  1.00 32.82     0.001 C 
HETATM   21  C17 BCR D 404     -41.667 136.344   8.131  1.00 36.56     0.007 C 
HETATM   22  C18 BCR D 404     -40.373 136.060   8.384  1.00 38.25    -0.062 C 
HETATM   23  C19 BCR D 404     -39.849 134.707   8.097  1.00 39.93     0.007 C 
HETATM   24  C20 BCR D 404     -38.577 134.310   8.181  1.00 37.81     0.001 C 
HETATM   25  C21 BCR D 404     -38.348 132.890   7.909  1.00 37.37     0.007 C 
HETATM   26  C22 BCR D 404     -37.173 132.250   8.017  1.00 39.01    -0.062 C 
HETATM   27  C23 BCR D 404     -37.148 130.796   7.765  1.00 44.21     0.007 C 
HETATM   28  C24 BCR D 404     -36.348 130.050   8.527  1.00 45.60     0.009 C 
HETATM   29  C25 BCR D 404     -36.246 128.578   8.434  1.00 49.42    -0.048 C 
HETATM   30  C26 BCR D 404     -37.268 127.829   8.836  1.00 50.69    -0.077 C 
HETATM   31  C27 BCR D 404     -37.590 126.503   8.191  1.00 48.97     0.034 C 
HETATM   32  C28 BCR D 404     -36.331 125.850   7.637  1.00 45.61     0.005 C 
HETATM   33  C29 BCR D 404     -35.082 126.420   8.285  1.00 44.72     0.014 C 
HETATM   34  C30 BCR D 404     -34.987 127.899   7.971  1.00 44.79    -0.020 C 
HETATM   35  C35 BCR D 404     -46.390 138.340   8.090  1.00 26.94     0.048 C 
HETATM   36  C36 BCR D 404     -39.481 137.089   8.999  1.00 35.64     0.048 C 
HETATM   37  C37 BCR D 404     -35.924 132.977   8.402  1.00 34.59     0.048 C 
HETATM   38  C38 BCR D 404     -38.095 128.289   9.995  1.00 46.70     0.044 C 
HETATM   39  C39 BCR D 404     -34.862 128.101   6.476  1.00 50.31     0.020 C 
HETATM   40  C40 BCR D 404     -33.806 128.501   8.714  1.00 44.71     0.020 C 
ENDROOT
TORSDOF 10
