REMARK VINA RESULT:    -6.335      0.000      0.000
REMARK INTER + INTRA:         -10.882
REMARK INTER:                  -6.335
REMARK INTRA:                  -4.548
REMARK UNBOUND:                -4.548
REMARK  0 active torsions:
REMARK  status: ('A' for Active; 'I' for Inactive)
REMARK       I    between atoms: C6_6  and  C7_7 
REMARK       I    between atoms: C8_8  and  C9_9 
REMARK       I    between atoms: C10_10  and  C11_11 
REMARK       I    between atoms: C12_16  and  C13_17 
REMARK       I    between atoms: C14_18  and  C15_19 
REMARK       I    between atoms: C16_20  and  C17_21 
REMARK       I    between atoms: C18_22  and  C19_23 
REMARK       I    between atoms: C20_24  and  C21_25 
REMARK       I    between atoms: C22_26  and  C23_27 
REMARK       I    between atoms: C24_28  and  C25_29 
ROOT
HETATM    1  C1  BCR K 103     -50.260 144.981   8.566  1.00 31.33    -0.020 C 
HETATM    2  C2  BCR K 103     -51.665 145.453   8.938  1.00 30.10     0.014 C 
HETATM    3  C3  BCR K 103     -51.825 145.674  10.437  1.00 28.21     0.005 C 
HETATM    4  C4  BCR K 103     -50.835 146.703  10.931  1.00 35.14     0.034 C 
HETATM    5  C5  BCR K 103     -49.429 146.341  10.518  1.00 40.40    -0.077 C 
HETATM    6  C6  BCR K 103     -49.170 145.562   9.447  1.00 35.44    -0.048 C 
HETATM    7  C7  BCR K 103     -47.806 145.180   9.004  1.00 31.58     0.009 C 
HETATM    8  C8  BCR K 103     -46.938 144.472   9.733  1.00 28.28     0.007 C 
HETATM    9  C9  BCR K 103     -45.645 144.106   9.134  1.00 28.29    -0.062 C 
HETATM   10  C10 BCR K 103     -45.014 143.003   9.592  1.00 35.18     0.007 C 
HETATM   11  C11 BCR K 103     -43.758 142.471   9.047  1.00 34.91     0.001 C 
HETATM   12  C33 BCR K 103     -48.337 146.911  11.375  1.00 42.08     0.044 C 
HETATM   13  C31 BCR K 103     -49.964 145.388   7.129  1.00 32.49     0.020 C 
HETATM   14  C32 BCR K 103     -50.166 143.458   8.672  1.00 30.89     0.020 C 
HETATM   15  C34 BCR K 103     -45.097 144.939   8.020  1.00 32.35     0.048 C 
HETATM   16  C12 BCR K 103     -43.365 141.267   9.480  1.00 43.00     0.007 C 
HETATM   17  C13 BCR K 103     -42.180 140.527   8.988  1.00 27.42    -0.062 C 
HETATM   18  C14 BCR K 103     -41.897 139.317   9.518  1.00 27.03     0.007 C 
HETATM   19  C15 BCR K 103     -40.788 138.466   9.058  1.00 26.89     0.001 C 
HETATM   20  C16 BCR K 103     -40.479 137.304   9.655  1.00 26.54     0.001 C 
HETATM   21  C17 BCR K 103     -39.387 136.466   9.128  1.00 26.43     0.007 C 
HETATM   22  C18 BCR K 103     -39.010 135.275   9.642  1.00 31.95    -0.062 C 
HETATM   23  C19 BCR K 103     -37.907 134.542   8.965  1.00 31.47     0.007 C 
HETATM   24  C20 BCR K 103     -37.614 133.252   9.175  1.00 26.23     0.001 C 
HETATM   25  C21 BCR K 103     -36.518 132.608   8.432  1.00 25.64     0.007 C 
HETATM   26  C22 BCR K 103     -36.389 131.252   8.358  1.00 26.67    -0.062 C 
HETATM   27  C23 BCR K 103     -35.382 130.700   7.640  1.00 34.76     0.007 C 
HETATM   28  C24 BCR K 103     -35.168 129.376   7.559  1.00 34.12     0.009 C 
HETATM   29  C25 BCR K 103     -34.067 128.761   6.754  1.00 32.06    -0.048 C 
HETATM   30  C26 BCR K 103     -32.772 128.903   7.115  1.00 27.37    -0.077 C 
HETATM   31  C27 BCR K 103     -31.618 128.293   6.347  1.00 31.26     0.034 C 
HETATM   32  C28 BCR K 103     -32.024 127.785   4.968  1.00 25.08     0.005 C 
HETATM   33  C29 BCR K 103     -33.357 127.056   5.015  1.00 31.88     0.014 C 
HETATM   34  C30 BCR K 103     -34.477 127.947   5.530  1.00 32.84    -0.020 C 
HETATM   35  C35 BCR K 103     -41.374 141.098   7.856  1.00 27.76     0.048 C 
HETATM   36  C36 BCR K 103     -39.677 134.704  10.871  1.00 25.82     0.048 C 
HETATM   37  C37 BCR K 103     -37.366 130.357   9.059  1.00 29.75     0.048 C 
HETATM   38  C38 BCR K 103     -32.374 129.682   8.333  1.00 27.96     0.044 C 
HETATM   39  C39 BCR K 103     -35.624 127.033   5.928  1.00 28.93     0.020 C 
HETATM   40  C40 BCR K 103     -34.976 128.841   4.399  1.00 24.62     0.020 C 
ENDROOT
TORSDOF 10
