REMARK VINA RESULT:    -4.769      3.193      6.279
REMARK INTER + INTRA:         -11.878
REMARK INTER:                  -8.266
REMARK INTRA:                  -3.612
REMARK UNBOUND:                -7.109
REMARK  0 active torsions:
REMARK  status: ('A' for Active; 'I' for Inactive)
REMARK       I    between atoms: C6_6  and  C7_7 
REMARK       I    between atoms: C8_8  and  C9_9 
REMARK       I    between atoms: C10_10  and  C11_11 
REMARK       I    between atoms: C12_16  and  C13_17 
REMARK       I    between atoms: C14_18  and  C15_19 
REMARK       I    between atoms: C16_20  and  C17_21 
REMARK       I    between atoms: C18_22  and  C19_23 
REMARK       I    between atoms: C20_24  and  C21_25 
REMARK       I    between atoms: C22_26  and  C23_27 
REMARK       I    between atoms: C24_28  and  C25_29 
ROOT
HETATM    1  C1  BCR B 627     -33.548 128.688   6.130  1.00 20.03    -0.020 C 
HETATM    2  C2  BCR B 627     -32.389 127.776   5.739  1.00 20.04     0.014 C 
HETATM    3  C3  BCR B 627     -32.302 126.495   6.511  1.00 20.04     0.005 C 
HETATM    4  C4  BCR B 627     -33.653 125.851   6.623  1.00 20.06     0.034 C 
HETATM    5  C5  BCR B 627     -34.562 126.788   7.306  1.00 20.07    -0.077 C 
HETATM    6  C6  BCR B 627     -34.550 128.102   7.093  1.00 20.01    -0.048 C 
HETATM    7  C7  BCR B 627     -35.436 129.002   7.852  1.00 19.93     0.009 C 
HETATM    8  C8  BCR B 627     -36.436 129.728   7.355  1.00 19.77     0.007 C 
HETATM    9  C9  BCR B 627     -37.427 130.434   8.140  1.00 19.74    -0.062 C 
HETATM   10  C10 BCR B 627     -37.667 131.712   7.826  1.00 19.67     0.007 C 
HETATM   11  C11 BCR B 627     -38.762 132.504   8.320  1.00 19.57     0.001 C 
HETATM   12  C33 BCR B 627     -35.491 126.129   8.240  1.00 20.11     0.044 C 
HETATM   13  C31 BCR B 627     -34.167 129.066   4.796  1.00 20.01     0.020 C 
HETATM   14  C32 BCR B 627     -32.933 129.938   6.729  1.00 20.03     0.020 C 
HETATM   15  C34 BCR B 627     -38.447 129.628   8.838  1.00 19.74     0.048 C 
HETATM   16  C12 BCR B 627     -38.726 133.827   8.141  1.00 19.46     0.007 C 
HETATM   17  C13 BCR B 627     -39.632 134.768   8.749  1.00 19.38    -0.062 C 
HETATM   18  C14 BCR B 627     -39.538 136.068   8.433  1.00 19.31     0.007 C 
HETATM   19  C15 BCR B 627     -40.281 137.112   9.081  1.00 19.23     0.001 C 
HETATM   20  C16 BCR B 627     -40.384 138.333   8.543  1.00 19.14     0.001 C 
HETATM   21  C17 BCR B 627     -41.003 139.363   9.334  1.00 19.09     0.007 C 
HETATM   22  C18 BCR B 627     -41.164 140.656   9.019  1.00 19.05    -0.062 C 
HETATM   23  C19 BCR B 627     -41.794 141.531   9.999  1.00 18.93     0.007 C 
HETATM   24  C20 BCR B 627     -41.785 142.862   9.913  1.00 18.76     0.001 C 
HETATM   25  C21 BCR B 627     -42.311 143.656  10.996  1.00 18.56     0.007 C 
HETATM   26  C22 BCR B 627     -42.380 144.991  11.026  1.00 18.41    -0.062 C 
HETATM   27  C23 BCR B 627     -42.364 145.652  12.320  1.00 18.24     0.007 C 
HETATM   28  C24 BCR B 627     -42.928 146.836  12.573  1.00 18.04     0.009 C 
HETATM   29  C25 BCR B 627     -43.249 147.387  13.893  1.00 17.92    -0.048 C 
HETATM   30  C26 BCR B 627     -44.296 146.960  14.621  1.00 17.87    -0.077 C 
HETATM   31  C27 BCR B 627     -44.683 147.454  15.959  1.00 17.85     0.034 C 
HETATM   32  C28 BCR B 627     -43.519 148.136  16.617  1.00 17.84     0.005 C 
HETATM   33  C29 BCR B 627     -42.927 149.133  15.661  1.00 17.86     0.014 C 
HETATM   34  C30 BCR B 627     -42.365 148.488  14.410  1.00 17.90    -0.020 C 
HETATM   35  C35 BCR B 627     -40.793 134.262   9.504  1.00 19.38     0.048 C 
HETATM   36  C36 BCR B 627     -40.644 141.228   7.760  1.00 19.05     0.048 C 
HETATM   37  C37 BCR B 627     -42.142 145.791   9.809  1.00 18.42     0.048 C 
HETATM   38  C38 BCR B 627     -45.244 145.910  14.201  1.00 17.77     0.044 C 
HETATM   39  C39 BCR B 627     -40.934 148.021  14.655  1.00 17.89     0.020 C 
HETATM   40  C40 BCR B 627     -42.300 149.647  13.425  1.00 17.88     0.020 C 
ENDROOT
TORSDOF 10
