REMARK VINA RESULT:    -8.997      0.000      0.000
REMARK INTER + INTRA:         -15.921
REMARK INTER:                  -8.997
REMARK INTRA:                  -6.924
REMARK UNBOUND:                -6.924
REMARK  0 active torsions:
REMARK  status: ('A' for Active; 'I' for Inactive)
REMARK       I    between atoms: C6_6  and  C7_7 
REMARK       I    between atoms: C8_8  and  C9_9 
REMARK       I    between atoms: C10_10  and  C11_11 
REMARK       I    between atoms: C12_16  and  C13_17 
REMARK       I    between atoms: C14_18  and  C15_19 
REMARK       I    between atoms: C16_20  and  C17_21 
REMARK       I    between atoms: C18_22  and  C19_23 
REMARK       I    between atoms: C20_24  and  C21_25 
REMARK       I    between atoms: C22_26  and  C23_27 
REMARK       I    between atoms: C24_28  and  C25_29 
ROOT
HETATM    1  C1  BCR A 610     -34.856 130.884   8.073  1.00 29.59    -0.020 C 
HETATM    2  C2  BCR A 610     -33.717 130.017   8.556  1.00 31.72     0.014 C 
HETATM    3  C3  BCR A 610     -33.243 130.500   9.896  1.00 27.94     0.005 C 
HETATM    4  C4  BCR A 610     -34.381 130.408  10.907  1.00 32.43     0.034 C 
HETATM    5  C5  BCR A 610     -35.685 130.981  10.401  1.00 29.29    -0.077 C 
HETATM    6  C6  BCR A 610     -35.922 131.164   9.110  1.00 25.73    -0.048 C 
HETATM    7  C7  BCR A 610     -37.179 131.831   8.618  1.00 25.66     0.009 C 
HETATM    8  C8  BCR A 610     -37.630 132.941   9.234  1.00 28.04     0.007 C 
HETATM    9  C9  BCR A 610     -38.785 133.707   8.682  1.00 26.85    -0.062 C 
HETATM   10  C10 BCR A 610     -39.065 134.947   9.151  1.00 26.33     0.007 C 
HETATM   11  C11 BCR A 610     -40.157 135.783   8.633  1.00 27.36     0.001 C 
HETATM   12  C33 BCR A 610     -36.719 131.123  11.442  1.00 35.13     0.044 C 
HETATM   13  C31 BCR A 610     -35.461 130.170   6.911  1.00 31.88     0.020 C 
HETATM   14  C32 BCR A 610     -34.275 132.235   7.635  1.00 31.60     0.020 C 
HETATM   15  C34 BCR A 610     -39.586 133.043   7.585  1.00 29.30     0.048 C 
HETATM   16  C12 BCR A 610     -40.387 136.986   9.209  1.00 26.07     0.007 C 
HETATM   17  C13 BCR A 610     -41.465 137.935   8.849  1.00 27.88    -0.062 C 
HETATM   18  C14 BCR A 610     -41.436 139.175   9.429  1.00 26.29     0.007 C 
HETATM   19  C15 BCR A 610     -42.385 140.251   9.114  1.00 24.17     0.001 C 
HETATM   20  C16 BCR A 610     -42.282 141.482   9.641  1.00 25.06     0.001 C 
HETATM   21  C17 BCR A 610     -43.244 142.497   9.225  1.00 23.08     0.007 C 
HETATM   22  C18 BCR A 610     -43.301 143.793   9.652  1.00 25.47    -0.062 C 
HETATM   23  C19 BCR A 610     -44.352 144.714   9.152  1.00 24.27     0.007 C 
HETATM   24  C20 BCR A 610     -44.763 145.796   9.791  1.00 22.34     0.001 C 
HETATM   25  C21 BCR A 610     -45.846 146.640   9.199  1.00 26.05     0.007 C 
HETATM   26  C22 BCR A 610     -46.413 147.719   9.867  1.00 27.30    -0.062 C 
HETATM   27  C23 BCR A 610     -47.516 148.473   9.168  1.00 23.16     0.007 C 
HETATM   28  C24 BCR A 610     -48.207 149.425   9.777  1.00 21.54     0.009 C 
HETATM   29  C25 BCR A 610     -49.330 150.069   9.126  1.00 21.54    -0.048 C 
HETATM   30  C26 BCR A 610     -49.143 150.632   7.910  1.00 20.62    -0.077 C 
HETATM   31  C27 BCR A 610     -50.229 151.350   7.120  1.00 20.11     0.034 C 
HETATM   32  C28 BCR A 610     -51.590 151.005   7.687  1.00 24.80     0.005 C 
HETATM   33  C29 BCR A 610     -51.577 151.063   9.222  1.00 24.65     0.014 C 
HETATM   34  C30 BCR A 610     -50.650 150.047   9.861  1.00 22.24    -0.020 C 
HETATM   35  C35 BCR A 610     -42.545 137.414   7.930  1.00 33.62     0.048 C 
HETATM   36  C36 BCR A 610     -42.319 144.329  10.626  1.00 23.31     0.048 C 
HETATM   37  C37 BCR A 610     -45.908 148.106  11.252  1.00 28.25     0.048 C 
HETATM   38  C38 BCR A 610     -47.795 150.796   7.300  1.00 20.57     0.044 C 
HETATM   39  C39 BCR A 610     -51.178 148.604   9.742  1.00 24.02     0.020 C 
HETATM   40  C40 BCR A 610     -50.456 150.453  11.275  1.00 22.78     0.020 C 
ENDROOT
TORSDOF 10
