REMARK VINA RESULT:    -6.704      1.830      4.063
REMARK INTER + INTRA:         -13.129
REMARK INTER:                 -10.623
REMARK INTRA:                  -2.506
REMARK UNBOUND:                -6.424
REMARK  0 active torsions:
REMARK  status: ('A' for Active; 'I' for Inactive)
REMARK       I    between atoms: C6_6  and  C7_7 
REMARK       I    between atoms: C8_8  and  C9_9 
REMARK       I    between atoms: C10_10  and  C11_11 
REMARK       I    between atoms: C12_16  and  C13_17 
REMARK       I    between atoms: C14_18  and  C15_19 
REMARK       I    between atoms: C16_20  and  C17_21 
REMARK       I    between atoms: C18_22  and  C19_23 
REMARK       I    between atoms: C20_24  and  C21_25 
REMARK       I    between atoms: C22_26  and  C23_27 
REMARK       I    between atoms: C24_28  and  C25_29 
ROOT
HETATM    1  C1  BCR B 618     -34.636 127.010   6.041  1.00 40.46    -0.020 C 
HETATM    2  C2  BCR B 618     -33.361 126.366   5.490  1.00 38.19     0.014 C 
HETATM    3  C3  BCR B 618     -32.300 127.416   5.243  1.00 37.07     0.005 C 
HETATM    4  C4  BCR B 618     -31.952 128.120   6.526  1.00 35.92     0.034 C 
HETATM    5  C5  BCR B 618     -33.168 128.675   7.151  1.00 36.16    -0.077 C 
HETATM    6  C6  BCR B 618     -34.403 128.193   6.947  1.00 29.04    -0.048 C 
HETATM    7  C7  BCR B 618     -35.565 128.762   7.631  1.00 28.06     0.009 C 
HETATM    8  C8  BCR B 618     -35.932 130.035   7.453  1.00 32.09     0.007 C 
HETATM    9  C9  BCR B 618     -37.127 130.616   8.030  1.00 31.23    -0.062 C 
HETATM   10  C10 BCR B 618     -37.312 131.948   7.932  1.00 30.89     0.007 C 
HETATM   11  C11 BCR B 618     -38.549 132.643   8.231  1.00 28.43     0.001 C 
HETATM   12  C33 BCR B 618     -32.898 129.824   8.036  1.00 38.15     0.044 C 
HETATM   13  C31 BCR B 618     -35.443 125.938   6.751  1.00 41.07     0.020 C 
HETATM   14  C32 BCR B 618     -35.432 127.402   4.816  1.00 40.74     0.020 C 
HETATM   15  C34 BCR B 618     -38.214 129.673   8.385  1.00 31.69     0.048 C 
HETATM   16  C12 BCR B 618     -38.714 133.935   7.894  1.00 29.36     0.007 C 
HETATM   17  C13 BCR B 618     -39.838 134.768   8.320  1.00 25.32    -0.062 C 
HETATM   18  C14 BCR B 618     -39.923 136.051   7.922  1.00 31.04     0.007 C 
HETATM   19  C15 BCR B 618     -40.821 137.023   8.501  1.00 23.63     0.001 C 
HETATM   20  C16 BCR B 618     -41.108 138.191   7.884  1.00 31.26     0.001 C 
HETATM   21  C17 BCR B 618     -42.112 139.066   8.478  1.00 34.11     0.007 C 
HETATM   22  C18 BCR B 618     -42.197 140.413   8.428  1.00 31.18    -0.062 C 
HETATM   23  C19 BCR B 618     -43.351 141.098   8.989  1.00 30.29     0.007 C 
HETATM   24  C20 BCR B 618     -43.346 142.429   9.189  1.00 41.94     0.001 C 
HETATM   25  C21 BCR B 618     -44.585 143.181   9.182  1.00 35.48     0.007 C 
HETATM   26  C22 BCR B 618     -44.776 144.402   9.691  1.00 28.25    -0.062 C 
HETATM   27  C23 BCR B 618     -46.145 144.865   9.906  1.00 31.42     0.007 C 
HETATM   28  C24 BCR B 618     -46.474 146.056  10.453  1.00 38.15     0.009 C 
HETATM   29  C25 BCR B 618     -47.866 146.448  10.719  1.00 34.46    -0.048 C 
HETATM   30  C26 BCR B 618     -48.454 146.069  11.853  1.00 40.95    -0.077 C 
HETATM   31  C27 BCR B 618     -49.865 146.333  12.216  1.00 42.20     0.034 C 
HETATM   32  C28 BCR B 618     -50.447 147.545  11.550  1.00 33.45     0.005 C 
HETATM   33  C29 BCR B 618     -49.974 147.778  10.137  1.00 35.30     0.014 C 
HETATM   34  C30 BCR B 618     -48.609 147.239   9.694  1.00 37.08    -0.020 C 
HETATM   35  C35 BCR B 618     -41.004 134.133   8.958  1.00 27.05     0.048 C 
HETATM   36  C36 BCR B 618     -41.279 141.235   7.635  1.00 33.84     0.048 C 
HETATM   37  C37 BCR B 618     -43.728 145.423   9.506  1.00 39.76     0.048 C 
HETATM   38  C38 BCR B 618     -47.749 145.234  12.869  1.00 35.08     0.044 C 
HETATM   39  C39 BCR B 618     -47.694 148.308   9.149  1.00 43.92     0.020 C 
HETATM   40  C40 BCR B 618     -48.985 146.433   8.458  1.00 41.09     0.020 C 
ENDROOT
TORSDOF 10
