REMARK VINA RESULT:    -6.956      2.816      4.145
REMARK INTER + INTRA:         -10.381
REMARK INTER:                  -7.915
REMARK INTRA:                  -2.466
REMARK UNBOUND:                -3.425
REMARK  0 active torsions:
REMARK  status: ('A' for Active; 'I' for Inactive)
REMARK       I    between atoms: C6_6  and  C7_7 
REMARK       I    between atoms: C8_8  and  C9_9 
REMARK       I    between atoms: C10_10  and  C11_11 
REMARK       I    between atoms: C12_16  and  C13_17 
REMARK       I    between atoms: C14_18  and  C15_19 
REMARK       I    between atoms: C16_20  and  C17_21 
REMARK       I    between atoms: C18_22  and  C19_23 
REMARK       I    between atoms: C20_24  and  C21_25 
REMARK       I    between atoms: C22_26  and  C23_27 
REMARK       I    between atoms: C24_28  and  C25_29 
ROOT
HETATM    1  C1  BCR B 618     -50.020 149.162   9.165  1.00 32.17    -0.020 C 
HETATM    2  C2  BCR B 618     -51.227 150.020   9.526  1.00 31.21     0.014 C 
HETATM    3  C3  BCR B 618     -52.031 149.389  10.651  1.00 25.40     0.005 C 
HETATM    4  C4  BCR B 618     -52.600 148.046  10.216  1.00 32.46     0.034 C 
HETATM    5  C5  BCR B 618     -51.577 147.216   9.461  1.00 24.06    -0.077 C 
HETATM    6  C6  BCR B 618     -50.413 147.708   8.973  1.00 29.25    -0.048 C 
HETATM    7  C7  BCR B 618     -49.477 146.822   8.226  1.00 12.74     0.009 C 
HETATM    8  C8  BCR B 618     -48.494 146.114   8.817  1.00 19.92     0.007 C 
HETATM    9  C9  BCR B 618     -47.573 145.221   8.051  1.00 18.47    -0.062 C 
HETATM   10  C10 BCR B 618     -46.623 144.502   8.691  1.00 19.37     0.007 C 
HETATM   11  C11 BCR B 618     -45.687 143.571   8.031  1.00 24.83     0.001 C 
HETATM   12  C33 BCR B 618     -51.940 145.778   9.251  1.00 28.03     0.044 C 
HETATM   13  C31 BCR B 618     -48.966 149.244  10.268  1.00 29.30     0.020 C 
HETATM   14  C32 BCR B 618     -49.421 149.703   7.874  1.00 21.79     0.020 C 
HETATM   15  C34 BCR B 618     -47.719 145.094   6.562  1.00 26.35     0.048 C 
HETATM   16  C12 BCR B 618     -44.838 142.821   8.776  1.00 21.16     0.007 C 
HETATM   17  C13 BCR B 618     -43.884 141.824   8.206  1.00 24.62    -0.062 C 
HETATM   18  C14 BCR B 618     -43.041 141.132   9.026  1.00 15.54     0.007 C 
HETATM   19  C15 BCR B 618     -42.074 140.088   8.592  1.00 12.82     0.001 C 
HETATM   20  C16 BCR B 618     -41.312 139.403   9.484  1.00 24.30     0.001 C 
HETATM   21  C17 BCR B 618     -40.383 138.323   9.068  1.00 16.13     0.007 C 
HETATM   22  C18 BCR B 618     -39.742 137.486   9.930  1.00 18.31    -0.062 C 
HETATM   23  C19 BCR B 618     -38.860 136.402   9.413  1.00 25.80     0.007 C 
HETATM   24  C20 BCR B 618     -38.307 135.429  10.163  1.00 23.93     0.001 C 
HETATM   25  C21 BCR B 618     -37.475 134.448   9.458  1.00 21.34     0.007 C 
HETATM   26  C22 BCR B 618     -36.953 133.316   9.959  1.00 23.72    -0.062 C 
HETATM   27  C23 BCR B 618     -36.197 132.517   9.144  1.00 17.58     0.007 C 
HETATM   28  C24 BCR B 618     -35.624 131.360   9.545  1.00 13.80     0.009 C 
HETATM   29  C25 BCR B 618     -34.774 130.466   8.696  1.00 25.70    -0.048 C 
HETATM   30  C26 BCR B 618     -35.196 129.949   7.512  1.00 16.18    -0.077 C 
HETATM   31  C27 BCR B 618     -34.327 129.049   6.648  1.00 28.93     0.034 C 
HETATM   32  C28 BCR B 618     -33.153 128.461   7.410  1.00 35.11     0.005 C 
HETATM   33  C29 BCR B 618     -32.439 129.525   8.220  1.00 27.97     0.014 C 
HETATM   34  C30 BCR B 618     -33.383 130.143   9.246  1.00 27.33    -0.020 C 
HETATM   35  C35 BCR B 618     -43.920 141.575   6.718  1.00 11.92     0.048 C 
HETATM   36  C36 BCR B 618     -39.881 137.640  11.416  1.00 19.38     0.048 C 
HETATM   37  C37 BCR B 618     -37.181 132.976  11.405  1.00 13.28     0.048 C 
HETATM   38  C38 BCR B 618     -36.552 130.240   6.934  1.00 17.46     0.044 C 
HETATM   39  C39 BCR B 618     -32.729 131.428   9.724  1.00 25.99     0.020 C 
HETATM   40  C40 BCR B 618     -33.498 129.203  10.439  1.00 23.14     0.020 C 
ENDROOT
TORSDOF 10
