REMARK VINA RESULT:   -11.371      0.000      0.000
REMARK INTER + INTRA:         -14.158
REMARK INTER:                 -11.371
REMARK INTRA:                  -2.787
REMARK UNBOUND:                -2.787
REMARK  0 active torsions:
REMARK  status: ('A' for Active; 'I' for Inactive)
REMARK       I    between atoms: C6_6  and  C7_7 
REMARK       I    between atoms: C8_8  and  C9_9 
REMARK       I    between atoms: C10_10  and  C11_11 
REMARK       I    between atoms: C12_16  and  C13_17 
REMARK       I    between atoms: C14_18  and  C15_19 
REMARK       I    between atoms: C16_20  and  C17_21 
REMARK       I    between atoms: C18_22  and  C19_23 
REMARK       I    between atoms: C20_24  and  C21_25 
REMARK       I    between atoms: C22_26  and  C23_27 
REMARK       I    between atoms: C24_28  and  C25_29 
ROOT
HETATM    1  C1  BCR D 406     -49.620 146.348   9.237  1.00 34.32    -0.020 C 
HETATM    2  C2  BCR D 406     -51.056 146.528   9.720  1.00 36.65     0.014 C 
HETATM    3  C3  BCR D 406     -51.536 145.803  10.899  1.00 27.32     0.005 C 
HETATM    4  C4  BCR D 406     -51.168 144.317  10.742  1.00 23.31     0.034 C 
HETATM    5  C5  BCR D 406     -49.920 143.996   9.996  1.00 29.15    -0.077 C 
HETATM    6  C6  BCR D 406     -49.213 144.921   9.281  1.00 28.11    -0.048 C 
HETATM    7  C7  BCR D 406     -47.989 144.512   8.512  1.00 27.31     0.009 C 
HETATM    8  C8  BCR D 406     -47.023 143.719   9.078  1.00 25.87     0.007 C 
HETATM    9  C9  BCR D 406     -45.817 143.338   8.302  1.00 25.23    -0.062 C 
HETATM   10  C10 BCR D 406     -44.928 142.471   8.848  1.00 26.35     0.007 C 
HETATM   11  C11 BCR D 406     -43.733 141.904   8.185  1.00 25.76     0.001 C 
HETATM   12  C33 BCR D 406     -49.632 142.523   9.916  1.00 29.35     0.044 C 
HETATM   13  C31 BCR D 406     -48.580 147.167  10.047  1.00 43.12     0.020 C 
HETATM   14  C32 BCR D 406     -49.696 146.987   7.867  1.00 36.56     0.020 C 
HETATM   15  C34 BCR D 406     -45.700 143.823   6.886  1.00 31.19     0.048 C 
HETATM   16  C12 BCR D 406     -43.058 140.937   8.871  1.00 26.79     0.007 C 
HETATM   17  C13 BCR D 406     -41.905 140.161   8.371  1.00 28.80    -0.062 C 
HETATM   18  C14 BCR D 406     -41.307 139.204   9.178  1.00 26.58     0.007 C 
HETATM   19  C15 BCR D 406     -40.248 138.282   8.793  1.00 25.31     0.001 C 
HETATM   20  C16 BCR D 406     -39.871 137.290   9.633  1.00 28.29     0.001 C 
HETATM   21  C17 BCR D 406     -38.897 136.325   9.174  1.00 27.45     0.007 C 
HETATM   22  C18 BCR D 406     -38.496 135.209   9.851  1.00 25.52    -0.062 C 
HETATM   23  C19 BCR D 406     -37.561 134.288   9.145  1.00 27.83     0.007 C 
HETATM   24  C20 BCR D 406     -37.153 133.083   9.638  1.00 27.64     0.001 C 
HETATM   25  C21 BCR D 406     -36.288 132.292   8.803  1.00 25.60     0.007 C 
HETATM   26  C22 BCR D 406     -35.827 131.072   9.111  1.00 28.71    -0.062 C 
HETATM   27  C23 BCR D 406     -34.961 130.444   8.120  1.00 39.72     0.007 C 
HETATM   28  C24 BCR D 406     -34.422 129.228   8.281  1.00 52.86     0.009 C 
HETATM   29  C25 BCR D 406     -33.559 128.557   7.233  1.00 59.77    -0.048 C 
HETATM   30  C26 BCR D 406     -32.719 129.181   6.338  1.00 62.92    -0.077 C 
HETATM   31  C27 BCR D 406     -32.171 128.488   5.085  1.00 65.12     0.034 C 
HETATM   32  C28 BCR D 406     -32.735 127.096   4.807  1.00 55.08     0.005 C 
HETATM   33  C29 BCR D 406     -32.888 126.394   6.130  1.00 51.89     0.014 C 
HETATM   34  C30 BCR D 406     -33.832 127.123   7.058  1.00 47.10    -0.020 C 
HETATM   35  C35 BCR D 406     -41.527 140.427   6.925  1.00 28.96     0.048 C 
HETATM   36  C36 BCR D 406     -39.004 134.874  11.233  1.00 29.06     0.048 C 
HETATM   37  C37 BCR D 406     -36.061 130.532  10.483  1.00 30.82     0.048 C 
HETATM   38  C38 BCR D 406     -32.175 130.588   6.528  1.00 60.49     0.044 C 
HETATM   39  C39 BCR D 406     -33.662 126.372   8.362  1.00 46.30     0.020 C 
HETATM   40  C40 BCR D 406     -35.243 127.236   6.408  1.00 54.93     0.020 C 
ENDROOT
TORSDOF 10
