REMARK VINA RESULT:    -6.633      2.014     16.434
REMARK INTER + INTRA:         -13.526
REMARK INTER:                 -11.403
REMARK INTRA:                  -2.123
REMARK UNBOUND:                -6.893
REMARK  0 active torsions:
REMARK  status: ('A' for Active; 'I' for Inactive)
REMARK       I    between atoms: C6_6  and  C7_7 
REMARK       I    between atoms: C8_8  and  C9_9 
REMARK       I    between atoms: C10_10  and  C11_11 
REMARK       I    between atoms: C12_16  and  C13_17 
REMARK       I    between atoms: C14_18  and  C15_19 
REMARK       I    between atoms: C16_20  and  C17_21 
REMARK       I    between atoms: C18_22  and  C19_23 
REMARK       I    between atoms: C20_24  and  C21_25 
REMARK       I    between atoms: C22_26  and  C23_27 
REMARK       I    between atoms: C24_28  and  C25_29 
ROOT
HETATM    1  C1  BCR A 406     -50.467 146.101   9.064  1.00 36.20    -0.020 C 
HETATM    2  C2  BCR A 406     -51.445 147.029   9.812  1.00 35.59     0.014 C 
HETATM    3  C3  BCR A 406     -51.099 147.154  11.270  1.00 39.53     0.005 C 
HETATM    4  C4  BCR A 406     -49.705 147.695  11.403  1.00 31.69     0.034 C 
HETATM    5  C5  BCR A 406     -48.734 147.003  10.524  1.00 27.77    -0.077 C 
HETATM    6  C6  BCR A 406     -49.042 146.269   9.448  1.00 33.79    -0.048 C 
HETATM    7  C7  BCR A 406     -48.025 145.628   8.578  1.00 29.83     0.009 C 
HETATM    8  C8  BCR A 406     -47.422 144.471   8.910  1.00 31.65     0.007 C 
HETATM    9  C9  BCR A 406     -46.294 143.909   8.180  1.00 32.29    -0.062 C 
HETATM   10  C10 BCR A 406     -45.648 142.845   8.683  1.00 27.54     0.007 C 
HETATM   11  C11 BCR A 406     -44.479 142.230   8.103  1.00 33.59     0.001 C 
HETATM   12  C33 BCR A 406     -47.354 147.256  10.940  1.00 32.64     0.044 C 
HETATM   13  C31 BCR A 406     -50.595 146.351   7.580  1.00 30.33     0.020 C 
HETATM   14  C32 BCR A 406     -50.923 144.691   9.305  1.00 39.96     0.020 C 
HETATM   15  C34 BCR A 406     -46.240 144.228   6.749  1.00 32.57     0.048 C 
HETATM   16  C12 BCR A 406     -44.173 140.980   8.479  1.00 30.76     0.007 C 
HETATM   17  C13 BCR A 406     -43.184 140.129   7.855  1.00 32.78    -0.062 C 
HETATM   18  C14 BCR A 406     -42.578 139.225   8.651  1.00 29.28     0.007 C 
HETATM   19  C15 BCR A 406     -41.699 138.179   8.200  1.00 28.52     0.001 C 
HETATM   20  C16 BCR A 406     -41.126 137.321   9.067  1.00 29.07     0.001 C 
HETATM   21  C17 BCR A 406     -40.373 136.214   8.535  1.00 23.66     0.007 C 
HETATM   22  C18 BCR A 406     -39.898 135.169   9.224  1.00 29.00    -0.062 C 
HETATM   23  C19 BCR A 406     -38.913 134.327   8.538  1.00 33.02     0.007 C 
HETATM   24  C20 BCR A 406     -38.260 133.278   9.061  1.00 25.51     0.001 C 
HETATM   25  C21 BCR A 406     -37.057 132.799   8.401  1.00 28.80     0.007 C 
HETATM   26  C22 BCR A 406     -36.255 131.822   8.842  1.00 25.36    -0.062 C 
HETATM   27  C23 BCR A 406     -35.207 131.317   7.950  1.00 34.30     0.007 C 
HETATM   28  C24 BCR A 406     -34.439 130.242   8.206  1.00 25.99     0.009 C 
HETATM   29  C25 BCR A 406     -33.540 129.545   7.273  1.00 30.20    -0.048 C 
HETATM   30  C26 BCR A 406     -33.931 128.420   6.641  1.00 33.40    -0.077 C 
HETATM   31  C27 BCR A 406     -33.138 127.574   5.712  1.00 29.94     0.034 C 
HETATM   32  C28 BCR A 406     -31.829 128.209   5.302  1.00 29.32     0.005 C 
HETATM   33  C29 BCR A 406     -31.225 129.065   6.388  1.00 29.90     0.014 C 
HETATM   34  C30 BCR A 406     -32.145 130.063   7.094  1.00 29.21    -0.020 C 
HETATM   35  C35 BCR A 406     -42.680 140.469   6.494  1.00 30.52     0.048 C 
HETATM   36  C36 BCR A 406     -39.999 135.173  10.702  1.00 29.79     0.048 C 
HETATM   37  C37 BCR A 406     -36.072 131.652  10.293  1.00 34.36     0.048 C 
HETATM   38  C38 BCR A 406     -35.278 127.842   6.815  1.00 29.54     0.044 C 
HETATM   39  C39 BCR A 406     -32.130 131.404   6.421  1.00 30.51     0.020 C 
HETATM   40  C40 BCR A 406     -31.447 130.287   8.417  1.00 35.85     0.020 C 
ENDROOT
TORSDOF 10
