REMARK VINA RESULT:    -6.586      1.790      3.733
REMARK INTER + INTRA:         -12.943
REMARK INTER:                 -12.370
REMARK INTRA:                  -0.573
REMARK UNBOUND:                -6.358
REMARK  0 active torsions:
REMARK  status: ('A' for Active; 'I' for Inactive)
REMARK       I    between atoms: C6_6  and  C7_7 
REMARK       I    between atoms: C8_8  and  C9_9 
REMARK       I    between atoms: C10_10  and  C11_11 
REMARK       I    between atoms: C12_16  and  C13_17 
REMARK       I    between atoms: C14_18  and  C15_19 
REMARK       I    between atoms: C16_20  and  C17_21 
REMARK       I    between atoms: C18_22  and  C19_23 
REMARK       I    between atoms: C20_24  and  C21_25 
REMARK       I    between atoms: C22_26  and  C23_27 
REMARK       I    between atoms: C24_28  and  C25_29 
ROOT
HETATM    1  C1  BCR B 620     -46.563 148.874  10.206  1.00 59.21    -0.020 C 
HETATM    2  C2  BCR B 620     -47.023 149.900  11.236  1.00 51.24     0.014 C 
HETATM    3  C3  BCR B 620     -47.044 149.308  12.626  1.00 59.98     0.005 C 
HETATM    4  C4  BCR B 620     -48.085 148.207  12.635  1.00 63.95     0.034 C 
HETATM    5  C5  BCR B 620     -47.715 147.152  11.623  1.00 56.60    -0.077 C 
HETATM    6  C6  BCR B 620     -47.017 147.454  10.510  1.00 59.07    -0.048 C 
HETATM    7  C7  BCR B 620     -46.630 146.445   9.486  1.00 54.02     0.009 C 
HETATM    8  C8  BCR B 620     -45.977 145.313   9.771  1.00 65.68     0.007 C 
HETATM    9  C9  BCR B 620     -45.560 144.315   8.765  1.00 53.63    -0.062 C 
HETATM   10  C10 BCR B 620     -44.895 143.237   9.222  1.00 46.58     0.007 C 
HETATM   11  C11 BCR B 620     -44.337 142.154   8.409  1.00 41.79     0.001 C 
HETATM   12  C33 BCR B 620     -48.182 145.765  11.940  1.00 51.12     0.044 C 
HETATM   13  C31 BCR B 620     -45.035 148.941  10.108  1.00 43.92     0.020 C 
HETATM   14  C32 BCR B 620     -47.192 149.218   8.864  1.00 55.12     0.020 C 
HETATM   15  C34 BCR B 620     -45.853 144.528   7.309  1.00 45.21     0.048 C 
HETATM   16  C12 BCR B 620     -43.551 141.299   9.078  1.00 45.96     0.007 C 
HETATM   17  C13 BCR B 620     -42.829 140.175   8.453  1.00 40.88    -0.062 C 
HETATM   18  C14 BCR B 620     -42.354 139.155   9.201  1.00 41.01     0.007 C 
HETATM   19  C15 BCR B 620     -41.568 138.077   8.590  1.00 42.22     0.001 C 
HETATM   20  C16 BCR B 620     -40.795 137.300   9.369  1.00 44.26     0.001 C 
HETATM   21  C17 BCR B 620     -39.926 136.262   8.794  1.00 36.26     0.007 C 
HETATM   22  C18 BCR B 620     -39.362 135.261   9.488  1.00 40.60    -0.062 C 
HETATM   23  C19 BCR B 620     -38.461 134.321   8.767  1.00 46.29     0.007 C 
HETATM   24  C20 BCR B 620     -37.768 133.336   9.360  1.00 50.06     0.001 C 
HETATM   25  C21 BCR B 620     -36.881 132.500   8.538  1.00 37.91     0.007 C 
HETATM   26  C22 BCR B 620     -36.190 131.427   8.979  1.00 42.97    -0.062 C 
HETATM   27  C23 BCR B 620     -35.397 130.775   8.106  1.00 48.87     0.007 C 
HETATM   28  C24 BCR B 620     -34.430 129.909   8.474  1.00 45.55     0.009 C 
HETATM   29  C25 BCR B 620     -33.566 129.236   7.462  1.00 43.88    -0.048 C 
HETATM   30  C26 BCR B 620     -32.619 129.946   6.811  1.00 47.72    -0.077 C 
HETATM   31  C27 BCR B 620     -31.700 129.353   5.770  1.00 52.50     0.034 C 
HETATM   32  C28 BCR B 620     -32.338 128.122   5.161  1.00 49.92     0.005 C 
HETATM   33  C29 BCR B 620     -32.669 127.181   6.300  1.00 50.61     0.014 C 
HETATM   34  C30 BCR B 620     -33.765 127.758   7.191  1.00 54.77    -0.020 C 
HETATM   35  C35 BCR B 620     -42.607 140.219   6.966  1.00 35.11     0.048 C 
HETATM   36  C36 BCR B 620     -39.644 135.111  10.958  1.00 37.84     0.048 C 
HETATM   37  C37 BCR B 620     -36.296 130.955  10.404  1.00 32.11     0.048 C 
HETATM   38  C38 BCR B 620     -32.412 131.401   7.090  1.00 42.60     0.044 C 
HETATM   39  C39 BCR B 620     -33.751 126.987   8.515  1.00 50.58     0.020 C 
HETATM   40  C40 BCR B 620     -35.111 127.555   6.498  1.00 40.99     0.020 C 
ENDROOT
TORSDOF 10
