REMARK VINA RESULT:    -6.581      2.495     16.841
REMARK INTER + INTRA:         -12.625
REMARK INTER:                 -10.073
REMARK INTRA:                  -2.552
REMARK UNBOUND:                -6.044
REMARK  0 active torsions:
REMARK  status: ('A' for Active; 'I' for Inactive)
REMARK       I    between atoms: C6_6  and  C7_7 
REMARK       I    between atoms: C8_8  and  C9_9 
REMARK       I    between atoms: C10_10  and  C11_11 
REMARK       I    between atoms: C12_16  and  C13_17 
REMARK       I    between atoms: C14_18  and  C15_19 
REMARK       I    between atoms: C16_20  and  C17_21 
REMARK       I    between atoms: C18_22  and  C19_23 
REMARK       I    between atoms: C20_24  and  C21_25 
REMARK       I    between atoms: C22_26  and  C23_27 
REMARK       I    between atoms: C24_28  and  C25_29 
ROOT
HETATM    1  C1  BCR B 619     -46.249 149.083  11.249  1.00 28.89    -0.020 C 
HETATM    2  C2  BCR B 619     -47.495 149.800  11.804  1.00 28.87     0.014 C 
HETATM    3  C3  BCR B 619     -48.496 148.828  12.416  1.00 24.82     0.005 C 
HETATM    4  C4  BCR B 619     -47.861 147.974  13.533  1.00 26.55     0.034 C 
HETATM    5  C5  BCR B 619     -46.483 147.432  13.159  1.00 25.55    -0.077 C 
HETATM    6  C6  BCR B 619     -45.756 147.919  12.124  1.00 25.71    -0.048 C 
HETATM    7  C7  BCR B 619     -44.436 147.310  11.749  1.00 26.15     0.009 C 
HETATM    8  C8  BCR B 619     -44.325 145.976  11.523  1.00 24.62     0.007 C 
HETATM    9  C9  BCR B 619     -43.082 145.285  11.096  1.00 23.75    -0.062 C 
HETATM   10  C10 BCR B 619     -43.141 143.945  11.002  1.00 23.51     0.007 C 
HETATM   11  C11 BCR B 619     -42.002 143.102  10.560  1.00 22.91     0.001 C 
HETATM   12  C33 BCR B 619     -45.998 146.286  14.010  1.00 26.88     0.044 C 
HETATM   13  C31 BCR B 619     -45.178 150.176  11.158  1.00 28.47     0.020 C 
HETATM   14  C32 BCR B 619     -46.573 148.559   9.842  1.00 29.15     0.020 C 
HETATM   15  C34 BCR B 619     -41.830 146.101  10.714  1.00 23.47     0.048 C 
HETATM   16  C12 BCR B 619     -42.161 141.806  10.247  1.00 20.45     0.007 C 
HETATM   17  C13 BCR B 619     -41.087 140.921   9.762  1.00 21.99    -0.062 C 
HETATM   18  C14 BCR B 619     -41.316 139.584   9.624  1.00 22.06     0.007 C 
HETATM   19  C15 BCR B 619     -40.372 138.540   9.173  1.00 21.97     0.001 C 
HETATM   20  C16 BCR B 619     -40.608 137.201   9.273  1.00 20.65     0.001 C 
HETATM   21  C17 BCR B 619     -39.610 136.221   8.835  1.00 23.36     0.007 C 
HETATM   22  C18 BCR B 619     -39.719 134.879   8.790  1.00 22.90    -0.062 C 
HETATM   23  C19 BCR B 619     -38.568 134.091   8.264  1.00 24.93     0.007 C 
HETATM   24  C20 BCR B 619     -38.503 132.749   8.370  1.00 23.33     0.001 C 
HETATM   25  C21 BCR B 619     -37.363 131.987   7.876  1.00 25.92     0.007 C 
HETATM   26  C22 BCR B 619     -37.204 130.630   7.850  1.00 29.58    -0.062 C 
HETATM   27  C23 BCR B 619     -35.941 130.115   7.237  1.00 30.44     0.007 C 
HETATM   28  C24 BCR B 619     -35.499 128.830   7.307  1.00 37.61     0.009 C 
HETATM   29  C25 BCR B 619     -34.244 128.248   6.677  1.00 35.86    -0.048 C 
HETATM   30  C26 BCR B 619     -32.997 128.531   7.121  1.00 38.98    -0.077 C 
HETATM   31  C27 BCR B 619     -31.768 127.926   6.489  1.00 37.08     0.034 C 
HETATM   32  C28 BCR B 619     -31.973 127.751   4.991  1.00 38.77     0.005 C 
HETATM   33  C29 BCR B 619     -33.118 126.765   4.832  1.00 41.75     0.014 C 
HETATM   34  C30 BCR B 619     -34.418 127.234   5.533  1.00 42.71    -0.020 C 
HETATM   35  C35 BCR B 619     -39.764 141.578   9.360  1.00 20.47     0.048 C 
HETATM   36  C36 BCR B 619     -40.950 134.109   9.302  1.00 21.73     0.048 C 
HETATM   37  C37 BCR B 619     -38.250 129.632   8.387  1.00 28.12     0.048 C 
HETATM   38  C38 BCR B 619     -32.717 129.495   8.246  1.00 37.79     0.044 C 
HETATM   39  C39 BCR B 619     -35.111 125.983   6.141  1.00 45.59     0.020 C 
HETATM   40  C40 BCR B 619     -35.295 127.827   4.452  1.00 39.52     0.020 C 
ENDROOT
TORSDOF 10
