REMARK VINA RESULT:    -6.172      3.361     16.196
REMARK INTER + INTRA:          -9.714
REMARK INTER:                  -8.086
REMARK INTRA:                  -1.627
REMARK UNBOUND:                -3.542
REMARK  0 active torsions:
REMARK  status: ('A' for Active; 'I' for Inactive)
REMARK       I    between atoms: C6_6  and  C7_7 
REMARK       I    between atoms: C8_8  and  C9_9 
REMARK       I    between atoms: C10_10  and  C11_11 
REMARK       I    between atoms: C12_16  and  C13_17 
REMARK       I    between atoms: C14_18  and  C15_19 
REMARK       I    between atoms: C16_20  and  C17_21 
REMARK       I    between atoms: C18_22  and  C19_23 
REMARK       I    between atoms: C20_24  and  C21_25 
REMARK       I    between atoms: C22_26  and  C23_27 
REMARK       I    between atoms: C24_28  and  C25_29 
ROOT
HETATM    1  C1  BCR C 515     -50.465 145.521   9.541  1.00 39.71    -0.020 C 
HETATM    2  C2  BCR C 515     -51.274 146.666  10.115  1.00 40.37     0.014 C 
HETATM    3  C3  BCR C 515     -50.882 146.907  11.553  1.00 43.17     0.005 C 
HETATM    4  C4  BCR C 515     -51.267 145.686  12.357  1.00 48.98     0.034 C 
HETATM    5  C5  BCR C 515     -50.574 144.469  11.801  1.00 42.59    -0.077 C 
HETATM    6  C6  BCR C 515     -50.259 144.376  10.509  1.00 38.03    -0.048 C 
HETATM    7  C7  BCR C 515     -49.710 143.115   9.972  1.00 39.13     0.009 C 
HETATM    8  C8  BCR C 515     -48.472 142.663  10.161  1.00 40.01     0.007 C 
HETATM    9  C9  BCR C 515     -48.058 141.377   9.567  1.00 48.45    -0.062 C 
HETATM   10  C10 BCR C 515     -46.830 140.902   9.795  1.00 46.14     0.007 C 
HETATM   11  C11 BCR C 515     -46.366 139.636   9.236  1.00 42.52     0.001 C 
HETATM   12  C33 BCR C 515     -50.265 143.359  12.758  1.00 41.43     0.044 C 
HETATM   13  C31 BCR C 515     -49.113 146.052   9.112  1.00 36.91     0.020 C 
HETATM   14  C32 BCR C 515     -51.190 144.992   8.317  1.00 47.25     0.020 C 
HETATM   15  C34 BCR C 515     -48.998 140.607   8.688  1.00 41.23     0.048 C 
HETATM   16  C12 BCR C 515     -45.062 139.388   9.219  1.00 42.82     0.007 C 
HETATM   17  C13 BCR C 515     -44.471 138.136   8.709  1.00 44.74    -0.062 C 
HETATM   18  C14 BCR C 515     -43.223 137.847   9.094  1.00 43.56     0.007 C 
HETATM   19  C15 BCR C 515     -42.530 136.635   8.692  1.00 39.26     0.001 C 
HETATM   20  C16 BCR C 515     -41.294 136.432   9.130  1.00 40.16     0.001 C 
HETATM   21  C17 BCR C 515     -40.598 135.209   8.763  1.00 42.34     0.007 C 
HETATM   22  C18 BCR C 515     -39.297 135.010   8.990  1.00 44.22    -0.062 C 
HETATM   23  C19 BCR C 515     -38.729 133.716   8.586  1.00 48.96     0.007 C 
HETATM   24  C20 BCR C 515     -37.437 133.429   8.634  1.00 51.51     0.001 C 
HETATM   25  C21 BCR C 515     -37.073 132.090   8.203  1.00 48.83     0.007 C 
HETATM   26  C22 BCR C 515     -35.812 131.713   8.002  1.00 46.78    -0.062 C 
HETATM   27  C23 BCR C 515     -35.574 130.332   7.574  1.00 46.17     0.007 C 
HETATM   28  C24 BCR C 515     -34.374 129.774   7.647  1.00 45.08     0.009 C 
HETATM   29  C25 BCR C 515     -34.144 128.379   7.228  1.00 45.02    -0.048 C 
HETATM   30  C26 BCR C 515     -34.605 127.372   7.969  1.00 46.86    -0.077 C 
HETATM   31  C27 BCR C 515     -34.496 125.931   7.533  1.00 50.72     0.034 C 
HETATM   32  C28 BCR C 515     -34.293 125.850   6.039  1.00 55.86     0.005 C 
HETATM   33  C29 BCR C 515     -33.074 126.681   5.708  1.00 52.85     0.014 C 
HETATM   34  C30 BCR C 515     -33.358 128.152   5.965  1.00 52.22    -0.020 C 
HETATM   35  C35 BCR C 515     -45.226 137.209   7.805  1.00 45.43     0.048 C 
HETATM   36  C36 BCR C 515     -38.451 136.057   9.644  1.00 42.28     0.048 C 
HETATM   37  C37 BCR C 515     -34.685 132.673   8.206  1.00 46.03     0.048 C 
HETATM   38  C38 BCR C 515     -35.255 127.632   9.295  1.00 45.04     0.044 C 
HETATM   39  C39 BCR C 515     -34.151 128.720   4.799  1.00 52.25     0.020 C 
HETATM   40  C40 BCR C 515     -32.045 128.893   6.110  1.00 47.46     0.020 C 
ENDROOT
TORSDOF 10
