REMARK VINA RESULT:    -9.800      2.194     16.500
REMARK INTER + INTRA:         -12.101
REMARK INTER:                  -8.664
REMARK INTRA:                  -3.437
REMARK UNBOUND:                -2.302
REMARK  0 active torsions:
REMARK  status: ('A' for Active; 'I' for Inactive)
REMARK       I    between atoms: C6_6  and  C7_7 
REMARK       I    between atoms: C8_8  and  C9_9 
REMARK       I    between atoms: C10_10  and  C11_11 
REMARK       I    between atoms: C12_16  and  C13_17 
REMARK       I    between atoms: C14_18  and  C15_19 
REMARK       I    between atoms: C16_20  and  C17_21 
REMARK       I    between atoms: C18_22  and  C19_23 
REMARK       I    between atoms: C20_24  and  C21_25 
REMARK       I    between atoms: C22_26  and  C23_27 
REMARK       I    between atoms: C24_28  and  C25_29 
ROOT
HETATM    1  C1  BCR C 515     -36.673 127.556   8.516  1.00 43.74    -0.020 C 
HETATM    2  C2  BCR C 515     -35.578 126.498   8.554  1.00 33.04     0.014 C 
HETATM    3  C3  BCR C 515     -34.223 127.143   8.767  1.00 39.49     0.005 C 
HETATM    4  C4  BCR C 515     -33.903 128.052   7.596  1.00 35.85     0.034 C 
HETATM    5  C5  BCR C 515     -35.001 129.066   7.386  1.00 30.47    -0.077 C 
HETATM    6  C6  BCR C 515     -36.267 128.845   7.799  1.00 45.08    -0.048 C 
HETATM    7  C7  BCR C 515     -37.329 129.867   7.563  1.00 35.93     0.009 C 
HETATM    8  C8  BCR C 515     -37.414 131.072   8.149  1.00 40.16     0.007 C 
HETATM    9  C9  BCR C 515     -38.533 131.991   7.812  1.00 37.91    -0.062 C 
HETATM   10  C10 BCR C 515     -38.539 133.266   8.270  1.00 40.13     0.007 C 
HETATM   11  C11 BCR C 515     -39.606 134.249   7.999  1.00 37.53     0.001 C 
HETATM   12  C33 BCR C 515     -34.610 130.337   6.680  1.00 32.24     0.044 C 
HETATM   13  C31 BCR C 515     -37.029 127.917   9.950  1.00 38.68     0.020 C 
HETATM   14  C32 BCR C 515     -37.883 126.929   7.829  1.00 37.12     0.020 C 
HETATM   15  C34 BCR C 515     -39.662 131.486   6.961  1.00 53.32     0.048 C 
HETATM   16  C12 BCR C 515     -39.516 135.481   8.531  1.00 49.88     0.007 C 
HETATM   17  C13 BCR C 515     -40.526 136.555   8.333  1.00 44.94    -0.062 C 
HETATM   18  C14 BCR C 515     -40.361 137.759   8.945  1.00 48.13     0.007 C 
HETATM   19  C15 BCR C 515     -41.289 138.903   8.825  1.00 45.78     0.001 C 
HETATM   20  C16 BCR C 515     -41.045 140.076   9.444  1.00 42.98     0.001 C 
HETATM   21  C17 BCR C 515     -41.947 141.233   9.335  1.00 35.18     0.007 C 
HETATM   22  C18 BCR C 515     -41.844 142.369  10.075  1.00 46.37    -0.062 C 
HETATM   23  C19 BCR C 515     -42.834 143.456   9.864  1.00 46.12     0.007 C 
HETATM   24  C20 BCR C 515     -42.909 144.555  10.627  1.00 39.74     0.001 C 
HETATM   25  C21 BCR C 515     -43.946 145.545  10.310  1.00 40.38     0.007 C 
HETATM   26  C22 BCR C 515     -44.253 146.617  11.073  1.00 42.03    -0.062 C 
HETATM   27  C23 BCR C 515     -45.244 147.432  10.647  1.00 46.40     0.007 C 
HETATM   28  C24 BCR C 515     -45.552 148.622  11.196  1.00 51.13     0.009 C 
HETATM   29  C25 BCR C 515     -46.666 149.469  10.669  1.00 38.87    -0.048 C 
HETATM   30  C26 BCR C 515     -46.535 150.150   9.513  1.00 44.05    -0.077 C 
HETATM   31  C27 BCR C 515     -47.638 151.021   8.931  1.00 33.55     0.034 C 
HETATM   32  C28 BCR C 515     -48.986 150.787   9.602  1.00 33.51     0.005 C 
HETATM   33  C29 BCR C 515     -48.794 150.746  11.107  1.00 35.48     0.014 C 
HETATM   34  C30 BCR C 515     -47.947 149.534  11.474  1.00 38.75    -0.020 C 
HETATM   35  C35 BCR C 515     -41.719 136.286   7.464  1.00 34.72     0.048 C 
HETATM   36  C36 BCR C 515     -40.769 142.555  11.117  1.00 29.10     0.048 C 
HETATM   37  C37 BCR C 515     -43.514 146.899  12.356  1.00 29.31     0.048 C 
HETATM   38  C38 BCR C 515     -45.258 150.077   8.720  1.00 41.01     0.044 C 
HETATM   39  C39 BCR C 515     -48.751 148.273  11.182  1.00 38.61     0.020 C 
HETATM   40  C40 BCR C 515     -47.596 149.604  12.952  1.00 30.77     0.020 C 
ENDROOT
TORSDOF 10
