REMARK VINA RESULT:    -7.043      3.224      5.109
REMARK INTER + INTRA:         -14.004
REMARK INTER:                 -11.413
REMARK INTRA:                  -2.592
REMARK UNBOUND:                -6.961
REMARK  0 active torsions:
REMARK  status: ('A' for Active; 'I' for Inactive)
REMARK       I    between atoms: C6_6  and  C7_7 
REMARK       I    between atoms: C8_8  and  C9_9 
REMARK       I    between atoms: C10_10  and  C11_11 
REMARK       I    between atoms: C12_16  and  C13_17 
REMARK       I    between atoms: C14_18  and  C15_19 
REMARK       I    between atoms: C16_20  and  C17_21 
REMARK       I    between atoms: C18_22  and  C19_23 
REMARK       I    between atoms: C20_24  and  C21_25 
REMARK       I    between atoms: C22_26  and  C23_27 
REMARK       I    between atoms: C24_28  and  C25_29 
ROOT
HETATM    1  C1  BCR A 411     -34.036 126.735   6.671  1.00 29.84    -0.020 C 
HETATM    2  C2  BCR A 411     -33.192 125.858   5.754  1.00 20.54     0.014 C 
HETATM    3  C3  BCR A 411     -32.664 126.649   4.569  1.00 26.03     0.005 C 
HETATM    4  C4  BCR A 411     -31.762 127.779   5.038  1.00 20.46     0.034 C 
HETATM    5  C5  BCR A 411     -32.359 128.544   6.196  1.00 19.96    -0.077 C 
HETATM    6  C6  BCR A 411     -33.389 128.087   6.938  1.00 20.82    -0.048 C 
HETATM    7  C7  BCR A 411     -33.955 128.886   8.069  1.00 29.43     0.009 C 
HETATM    8  C8  BCR A 411     -34.663 130.009   7.840  1.00 22.26     0.007 C 
HETATM    9  C9  BCR A 411     -35.280 130.817   8.917  1.00 27.77    -0.062 C 
HETATM   10  C10 BCR A 411     -35.960 131.931   8.587  1.00 20.59     0.007 C 
HETATM   11  C11 BCR A 411     -36.646 132.803   9.554  1.00 19.27     0.001 C 
HETATM   12  C33 BCR A 411     -31.721 129.866   6.474  1.00 23.62     0.044 C 
HETATM   13  C31 BCR A 411     -34.231 126.022   8.001  1.00 28.92     0.020 C 
HETATM   14  C32 BCR A 411     -35.417 126.912   6.053  1.00 24.51     0.020 C 
HETATM   15  C34 BCR A 411     -35.168 130.389  10.357  1.00 30.91     0.048 C 
HETATM   16  C12 BCR A 411     -37.247 133.922   9.108  1.00 28.37     0.007 C 
HETATM   17  C13 BCR A 411     -38.022 134.887   9.944  1.00 25.83    -0.062 C 
HETATM   18  C14 BCR A 411     -38.768 135.842   9.332  1.00 18.99     0.007 C 
HETATM   19  C15 BCR A 411     -39.614 136.826  10.016  1.00 23.50     0.001 C 
HETATM   20  C16 BCR A 411     -40.268 137.797   9.359  1.00 25.25     0.001 C 
HETATM   21  C17 BCR A 411     -41.135 138.719  10.107  1.00 31.30     0.007 C 
HETATM   22  C18 BCR A 411     -41.895 139.681   9.535  1.00 27.73    -0.062 C 
HETATM   23  C19 BCR A 411     -42.752 140.541  10.392  1.00 16.85     0.007 C 
HETATM   24  C20 BCR A 411     -43.218 141.748  10.022  1.00 16.39     0.001 C 
HETATM   25  C21 BCR A 411     -44.039 142.479  10.997  1.00 22.31     0.007 C 
HETATM   26  C22 BCR A 411     -44.443 143.760  10.872  1.00 26.64    -0.062 C 
HETATM   27  C23 BCR A 411     -45.183 144.321  11.864  1.00 23.69     0.007 C 
HETATM   28  C24 BCR A 411     -45.550 145.615  11.874  1.00 24.10     0.009 C 
HETATM   29  C25 BCR A 411     -46.356 146.262  12.950  1.00 19.96    -0.048 C 
HETATM   30  C26 BCR A 411     -47.588 145.821  13.286  1.00 22.82    -0.077 C 
HETATM   31  C27 BCR A 411     -48.420 146.463  14.374  1.00 17.59     0.034 C 
HETATM   32  C28 BCR A 411     -47.606 147.343  15.315  1.00 18.54     0.005 C 
HETATM   33  C29 BCR A 411     -46.674 148.240  14.521  1.00 23.49     0.014 C 
HETATM   34  C30 BCR A 411     -45.706 147.457  13.642  1.00 20.77    -0.020 C 
HETATM   35  C35 BCR A 411     -37.994 134.788  11.439  1.00 25.20     0.048 C 
HETATM   36  C36 BCR A 411     -41.857 139.888   8.049  1.00 17.87     0.048 C 
HETATM   37  C37 BCR A 411     -44.057 144.543   9.657  1.00 22.45     0.048 C 
HETATM   38  C38 BCR A 411     -48.254 144.655  12.606  1.00 18.48     0.044 C 
HETATM   39  C39 BCR A 411     -44.546 147.004  14.515  1.00 15.84     0.020 C 
HETATM   40  C40 BCR A 411     -45.172 148.382  12.550  1.00 18.97     0.020 C 
ENDROOT
TORSDOF 10
