REMARK VINA RESULT:    -6.440      0.956     15.902
REMARK INTER + INTRA:         -10.929
REMARK INTER:                  -6.150
REMARK INTRA:                  -4.779
REMARK UNBOUND:                -4.490
REMARK  0 active torsions:
REMARK  status: ('A' for Active; 'I' for Inactive)
REMARK       I    between atoms: C6_6  and  C7_7 
REMARK       I    between atoms: C8_8  and  C9_9 
REMARK       I    between atoms: C10_10  and  C11_11 
REMARK       I    between atoms: C12_16  and  C13_17 
REMARK       I    between atoms: C14_18  and  C15_19 
REMARK       I    between atoms: C16_20  and  C17_21 
REMARK       I    between atoms: C18_22  and  C19_23 
REMARK       I    between atoms: C20_24  and  C21_25 
REMARK       I    between atoms: C22_26  and  C23_27 
REMARK       I    between atoms: C24_28  and  C25_29 
ROOT
HETATM    1  C1  BCR C 521     -49.920 144.574   8.857  1.00 25.41    -0.020 C 
HETATM    2  C2  BCR C 521     -51.325 145.070   9.136  1.00 25.41     0.014 C 
HETATM    3  C3  BCR C 521     -51.545 145.224  10.608  1.00 25.43     0.005 C 
HETATM    4  C4  BCR C 521     -50.588 146.236  11.169  1.00 25.42     0.034 C 
HETATM    5  C5  BCR C 521     -49.198 145.996  10.727  1.00 25.39    -0.077 C 
HETATM    6  C6  BCR C 521     -48.859 145.226   9.682  1.00 25.36    -0.048 C 
HETATM    7  C7  BCR C 521     -47.463 145.027   9.249  1.00 25.24     0.009 C 
HETATM    8  C8  BCR C 521     -46.631 144.121   9.776  1.00 25.11     0.007 C 
HETATM    9  C9  BCR C 521     -45.229 143.987   9.415  1.00 24.97    -0.062 C 
HETATM   10  C10 BCR C 521     -44.521 142.948   9.875  1.00 24.81     0.007 C 
HETATM   11  C11 BCR C 521     -43.489 142.269   9.138  1.00 24.63     0.001 C 
HETATM   12  C33 BCR C 521     -48.212 146.687  11.578  1.00 25.41     0.044 C 
HETATM   13  C31 BCR C 521     -49.659 144.797   7.384  1.00 25.43     0.020 C 
HETATM   14  C32 BCR C 521     -49.955 143.086   9.125  1.00 25.43     0.020 C 
HETATM   15  C34 BCR C 521     -44.609 145.054   8.616  1.00 25.01     0.048 C 
HETATM   16  C12 BCR C 521     -42.907 141.191   9.661  1.00 24.42     0.007 C 
HETATM   17  C13 BCR C 521     -41.762 140.513   9.103  1.00 24.27    -0.062 C 
HETATM   18  C14 BCR C 521     -41.526 139.260   9.521  1.00 24.10     0.007 C 
HETATM   19  C15 BCR C 521     -40.355 138.467   9.262  1.00 23.91     0.001 C 
HETATM   20  C16 BCR C 521     -40.161 137.274   9.852  1.00 23.67     0.001 C 
HETATM   21  C17 BCR C 521     -39.143 136.393   9.336  1.00 23.46     0.007 C 
HETATM   22  C18 BCR C 521     -38.750 135.216   9.846  1.00 23.29    -0.062 C 
HETATM   23  C19 BCR C 521     -37.766 134.432   9.119  1.00 23.13     0.007 C 
HETATM   24  C20 BCR C 521     -37.300 133.247   9.524  1.00 22.94     0.001 C 
HETATM   25  C21 BCR C 521     -36.292 132.560   8.752  1.00 22.80     0.007 C 
HETATM   26  C22 BCR C 521     -36.209 131.243   8.520  1.00 22.66    -0.062 C 
HETATM   27  C23 BCR C 521     -35.334 130.729   7.472  1.00 22.58     0.007 C 
HETATM   28  C24 BCR C 521     -34.985 129.437   7.463  1.00 22.47     0.009 C 
HETATM   29  C25 BCR C 521     -33.988 128.769   6.633  1.00 22.43    -0.048 C 
HETATM   30  C26 BCR C 521     -32.679 128.826   6.899  1.00 22.42    -0.077 C 
HETATM   31  C27 BCR C 521     -31.610 128.185   6.113  1.00 22.43     0.034 C 
HETATM   32  C28 BCR C 521     -32.060 127.788   4.734  1.00 22.43     0.005 C 
HETATM   33  C29 BCR C 521     -33.418 127.147   4.778  1.00 22.41     0.014 C 
HETATM   34  C30 BCR C 521     -34.496 127.951   5.485  1.00 22.41    -0.020 C 
HETATM   35  C35 BCR C 521     -41.161 141.041   7.862  1.00 24.32     0.048 C 
HETATM   36  C36 BCR C 521     -39.443 134.593  10.982  1.00 23.25     0.048 C 
HETATM   37  C37 BCR C 521     -37.071 130.279   9.226  1.00 22.64     0.048 C 
HETATM   38  C38 BCR C 521     -32.082 129.586   8.014  1.00 22.40     0.044 C 
HETATM   39  C39 BCR C 521     -35.598 127.026   5.964  1.00 22.38     0.020 C 
HETATM   40  C40 BCR C 521     -35.114 128.819   4.397  1.00 22.38     0.020 C 
ENDROOT
TORSDOF 10
