REMARK VINA RESULT:    -4.366      1.703      2.004
REMARK INTER + INTRA:          -8.914
REMARK INTER:                  -7.229
REMARK INTRA:                  -1.685
REMARK UNBOUND:                -4.548
REMARK  0 active torsions:
REMARK  status: ('A' for Active; 'I' for Inactive)
REMARK       I    between atoms: C6_6  and  C7_7 
REMARK       I    between atoms: C8_8  and  C9_9 
REMARK       I    between atoms: C10_10  and  C11_11 
REMARK       I    between atoms: C12_16  and  C13_17 
REMARK       I    between atoms: C14_18  and  C15_19 
REMARK       I    between atoms: C16_20  and  C17_21 
REMARK       I    between atoms: C18_22  and  C19_23 
REMARK       I    between atoms: C20_24  and  C21_25 
REMARK       I    between atoms: C22_26  and  C23_27 
REMARK       I    between atoms: C24_28  and  C25_29 
ROOT
HETATM    1  C1  BCR K 103     -50.474 142.896  12.376  1.00 31.33    -0.020 C 
HETATM    2  C2  BCR K 103     -51.557 143.438  13.308  1.00 30.10     0.014 C 
HETATM    3  C3  BCR K 103     -50.986 144.328  14.405  1.00 28.21     0.005 C 
HETATM    4  C4  BCR K 103     -50.248 145.503  13.806  1.00 35.14     0.034 C 
HETATM    5  C5  BCR K 103     -49.219 145.039  12.805  1.00 40.40    -0.077 C 
HETATM    6  C6  BCR K 103     -49.322 143.859  12.158  1.00 35.44    -0.048 C 
HETATM    7  C7  BCR K 103     -48.335 143.362  11.165  1.00 31.58     0.009 C 
HETATM    8  C8  BCR K 103     -47.051 143.108  11.431  1.00 28.28     0.007 C 
HETATM    9  C9  BCR K 103     -46.206 142.550  10.363  1.00 28.29    -0.062 C 
HETATM   10  C10 BCR K 103     -45.131 141.812  10.714  1.00 35.18     0.007 C 
HETATM   11  C11 BCR K 103     -44.237 141.131   9.768  1.00 34.91     0.001 C 
HETATM   12  C33 BCR K 103     -48.074 145.981  12.571  1.00 42.08     0.044 C 
HETATM   13  C31 BCR K 103     -51.093 142.595  11.018  1.00 32.49     0.020 C 
HETATM   14  C32 BCR K 103     -49.884 141.604  12.942  1.00 30.89     0.020 C 
HETATM   15  C34 BCR K 103     -46.586 142.784   8.937  1.00 32.35     0.048 C 
HETATM   16  C12 BCR K 103     -43.336 140.283  10.279  1.00 43.00     0.007 C 
HETATM   17  C13 BCR K 103     -42.411 139.441   9.486  1.00 27.42    -0.062 C 
HETATM   18  C14 BCR K 103     -41.546 138.630  10.134  1.00 27.03     0.007 C 
HETATM   19  C15 BCR K 103     -40.632 137.702   9.450  1.00 26.89     0.001 C 
HETATM   20  C16 BCR K 103     -39.727 136.965  10.114  1.00 26.54     0.001 C 
HETATM   21  C17 BCR K 103     -38.865 136.017   9.387  1.00 26.43     0.007 C 
HETATM   22  C18 BCR K 103     -37.938 135.218   9.960  1.00 31.95    -0.062 C 
HETATM   23  C19 BCR K 103     -37.176 134.293   9.081  1.00 31.47     0.007 C 
HETATM   24  C20 BCR K 103     -36.442 133.261   9.521  1.00 26.23     0.001 C 
HETATM   25  C21 BCR K 103     -35.746 132.383   8.566  1.00 25.64     0.007 C 
HETATM   26  C22 BCR K 103     -35.270 131.156   8.921  1.00 26.67    -0.062 C 
HETATM   27  C23 BCR K 103     -34.661 130.368   8.004  1.00 34.76     0.007 C 
HETATM   28  C24 BCR K 103     -34.129 129.168   8.294  1.00 34.12     0.009 C 
HETATM   29  C25 BCR K 103     -33.469 128.287   7.281  1.00 32.06    -0.048 C 
HETATM   30  C26 BCR K 103     -32.285 128.626   6.723  1.00 27.37    -0.077 C 
HETATM   31  C27 BCR K 103     -31.565 127.768   5.703  1.00 31.26     0.034 C 
HETATM   32  C28 BCR K 103     -32.443 126.661   5.132  1.00 25.08     0.005 C 
HETATM   33  C29 BCR K 103     -33.271 125.992   6.216  1.00 31.88     0.014 C 
HETATM   34  C30 BCR K 103     -34.178 126.981   6.932  1.00 32.84    -0.020 C 
HETATM   35  C35 BCR K 103     -42.513 139.445   7.988  1.00 27.76     0.048 C 
HETATM   36  C36 BCR K 103     -37.675 135.264  11.447  1.00 25.82     0.048 C 
HETATM   37  C37 BCR K 103     -35.427 130.658  10.327  1.00 29.75     0.048 C 
HETATM   38  C38 BCR K 103     -31.578 129.897   7.086  1.00 27.96     0.044 C 
HETATM   39  C39 BCR K 103     -34.622 126.320   8.227  1.00 28.93     0.020 C 
HETATM   40  C40 BCR K 103     -35.428 127.224   6.092  1.00 24.62     0.020 C 
ENDROOT
TORSDOF 10
