REMARK VINA RESULT:    -8.998      0.000      0.000
REMARK INTER + INTRA:         -11.714
REMARK INTER:                  -8.998
REMARK INTRA:                  -2.716
REMARK UNBOUND:                -2.716
REMARK  0 active torsions:
REMARK  status: ('A' for Active; 'I' for Inactive)
REMARK       I    between atoms: C6_6  and  C7_7 
REMARK       I    between atoms: C8_8  and  C9_9 
REMARK       I    between atoms: C10_10  and  C11_11 
REMARK       I    between atoms: C12_16  and  C13_17 
REMARK       I    between atoms: C14_18  and  C15_19 
REMARK       I    between atoms: C16_20  and  C17_21 
REMARK       I    between atoms: C18_22  and  C19_23 
REMARK       I    between atoms: C20_24  and  C21_25 
REMARK       I    between atoms: C22_26  and  C23_27 
REMARK       I    between atoms: C24_28  and  C25_29 
ROOT
HETATM    1  C1  BCR B 617     -32.377 129.921   7.601  1.00 16.64    -0.020 C 
HETATM    2  C2  BCR B 617     -31.539 128.916   6.838  1.00 16.66     0.014 C 
HETATM    3  C3  BCR B 617     -32.130 128.633   5.493  1.00 16.67     0.005 C 
HETATM    4  C4  BCR B 617     -33.512 128.062   5.639  1.00 16.65     0.034 C 
HETATM    5  C5  BCR B 617     -34.335 128.819   6.608  1.00 16.64    -0.077 C 
HETATM    6  C6  BCR B 617     -33.850 129.688   7.502  1.00 16.61    -0.048 C 
HETATM    7  C7  BCR B 617     -34.710 130.406   8.461  1.00 16.52     0.009 C 
HETATM    8  C8  BCR B 617     -35.304 131.570   8.190  1.00 16.42     0.007 C 
HETATM    9  C9  BCR B 617     -36.054 132.342   9.163  1.00 16.35    -0.062 C 
HETATM   10  C10 BCR B 617     -36.702 133.449   8.779  1.00 16.25     0.007 C 
HETATM   11  C11 BCR B 617     -37.742 134.110   9.530  1.00 16.13     0.001 C 
HETATM   12  C33 BCR B 617     -35.772 128.529   6.474  1.00 16.67     0.044 C 
HETATM   13  C31 BCR B 617     -31.968 131.283   7.077  1.00 16.64     0.020 C 
HETATM   14  C32 BCR B 617     -31.954 129.819   9.049  1.00 16.66     0.020 C 
HETATM   15  C34 BCR B 617     -36.021 131.904  10.566  1.00 16.38     0.048 C 
HETATM   16  C12 BCR B 617     -38.057 135.387   9.260  1.00 15.96     0.007 C 
HETATM   17  C13 BCR B 617     -39.174 136.103   9.834  1.00 15.83    -0.062 C 
HETATM   18  C14 BCR B 617     -39.543 137.278   9.298  1.00 15.70     0.007 C 
HETATM   19  C15 BCR B 617     -40.801 137.944   9.520  1.00 15.54     0.001 C 
HETATM   20  C16 BCR B 617     -41.092 139.103   8.910  1.00 15.40     0.001 C 
HETATM   21  C17 BCR B 617     -42.246 139.862   9.331  1.00 15.27     0.007 C 
HETATM   22  C18 BCR B 617     -42.807 140.929   8.742  1.00 15.19    -0.062 C 
HETATM   23  C19 BCR B 617     -43.945 141.563   9.390  1.00 15.12     0.007 C 
HETATM   24  C20 BCR B 617     -44.637 142.571   8.857  1.00 15.10     0.001 C 
HETATM   25  C21 BCR B 617     -45.833 143.024   9.520  1.00 15.07     0.007 C 
HETATM   26  C22 BCR B 617     -46.685 143.978   9.122  1.00 15.07    -0.062 C 
HETATM   27  C23 BCR B 617     -47.578 144.522  10.125  1.00 15.08     0.007 C 
HETATM   28  C24 BCR B 617     -48.768 145.090   9.899  1.00 15.19     0.009 C 
HETATM   29  C25 BCR B 617     -49.614 145.780  10.882  1.00 15.27    -0.048 C 
HETATM   30  C26 BCR B 617     -50.315 145.138  11.832  1.00 15.33    -0.077 C 
HETATM   31  C27 BCR B 617     -51.186 145.776  12.840  1.00 15.37     0.034 C 
HETATM   32  C28 BCR B 617     -50.770 147.197  13.110  1.00 15.36     0.005 C 
HETATM   33  C29 BCR B 617     -50.567 147.943  11.820  1.00 15.31     0.014 C 
HETATM   34  C30 BCR B 617     -49.680 147.286  10.780  1.00 15.29    -0.020 C 
HETATM   35  C35 BCR B 617     -39.778 135.611  11.082  1.00 15.82     0.048 C 
HETATM   36  C36 BCR B 617     -42.395 141.434   7.415  1.00 15.16     0.048 C 
HETATM   37  C37 BCR B 617     -46.909 144.301   7.700  1.00 15.01     0.048 C 
HETATM   38  C38 BCR B 617     -50.342 143.669  12.034  1.00 15.36     0.044 C 
HETATM   39  C39 BCR B 617     -48.297 147.923  10.804  1.00 15.27     0.020 C 
HETATM   40  C40 BCR B 617     -50.318 147.721   9.470  1.00 15.28     0.020 C 
ENDROOT
TORSDOF 10
