REMARK VINA RESULT:    -7.967      3.293      4.293
REMARK INTER + INTRA:         -11.392
REMARK INTER:                 -10.009
REMARK INTRA:                  -1.383
REMARK UNBOUND:                -3.425
REMARK  0 active torsions:
REMARK  status: ('A' for Active; 'I' for Inactive)
REMARK       I    between atoms: C6_6  and  C7_7 
REMARK       I    between atoms: C8_8  and  C9_9 
REMARK       I    between atoms: C10_10  and  C11_11 
REMARK       I    between atoms: C12_16  and  C13_17 
REMARK       I    between atoms: C14_18  and  C15_19 
REMARK       I    between atoms: C16_20  and  C17_21 
REMARK       I    between atoms: C18_22  and  C19_23 
REMARK       I    between atoms: C20_24  and  C21_25 
REMARK       I    between atoms: C22_26  and  C23_27 
REMARK       I    between atoms: C24_28  and  C25_29 
ROOT
HETATM    1  C1  BCR B 618     -51.132 147.226  10.056  1.00 32.17    -0.020 C 
HETATM    2  C2  BCR B 618     -51.777 148.497  10.600  1.00 31.21     0.014 C 
HETATM    3  C3  BCR B 618     -50.926 149.115  11.697  1.00 25.40     0.005 C 
HETATM    4  C4  BCR B 618     -50.813 148.172  12.887  1.00 32.46     0.034 C 
HETATM    5  C5  BCR B 618     -50.558 146.740  12.451  1.00 24.06    -0.077 C 
HETATM    6  C6  BCR B 618     -50.707 146.298  11.179  1.00 29.25    -0.048 C 
HETATM    7  C7  BCR B 618     -50.453 144.868  10.846  1.00 12.74     0.009 C 
HETATM    8  C8  BCR B 618     -49.247 144.396  10.470  1.00 19.92     0.007 C 
HETATM    9  C9  BCR B 618     -49.010 142.955  10.154  1.00 18.47    -0.062 C 
HETATM   10  C10 BCR B 618     -47.775 142.520   9.814  1.00 19.37     0.007 C 
HETATM   11  C11 BCR B 618     -47.432 141.116   9.514  1.00 24.83     0.001 C 
HETATM   12  C33 BCR B 618     -50.143 145.798  13.538  1.00 28.03     0.044 C 
HETATM   13  C31 BCR B 618     -49.904 147.578   9.217  1.00 29.30     0.020 C 
HETATM   14  C32 BCR B 618     -52.147 146.522   9.167  1.00 21.79     0.020 C 
HETATM   15  C34 BCR B 618     -50.142 141.973  10.239  1.00 26.35     0.048 C 
HETATM   16  C12 BCR B 618     -46.142 140.768   9.284  1.00 21.16     0.007 C 
HETATM   17  C13 BCR B 618     -45.689 139.372   9.011  1.00 24.62    -0.062 C 
HETATM   18  C14 BCR B 618     -44.374 139.112   8.759  1.00 15.54     0.007 C 
HETATM   19  C15 BCR B 618     -43.788 137.767   8.511  1.00 12.82     0.001 C 
HETATM   20  C16 BCR B 618     -42.454 137.590   8.327  1.00 24.30     0.001 C 
HETATM   21  C17 BCR B 618     -41.852 136.247   8.133  1.00 16.13     0.007 C 
HETATM   22  C18 BCR B 618     -40.514 135.997   8.131  1.00 18.31    -0.062 C 
HETATM   23  C19 BCR B 618     -40.006 134.606   7.970  1.00 25.80     0.007 C 
HETATM   24  C20 BCR B 618     -38.720 134.229   8.109  1.00 23.93     0.001 C 
HETATM   25  C21 BCR B 618     -38.428 132.804   7.919  1.00 21.34     0.007 C 
HETATM   26  C22 BCR B 618     -37.265 132.174   8.156  1.00 23.72    -0.062 C 
HETATM   27  C23 BCR B 618     -37.180 130.829   7.918  1.00 17.58     0.007 C 
HETATM   28  C24 BCR B 618     -36.059 130.099   8.119  1.00 13.80     0.009 C 
HETATM   29  C25 BCR B 618     -35.914 128.632   7.854  1.00 25.70    -0.048 C 
HETATM   30  C26 BCR B 618     -36.730 127.696   8.408  1.00 16.18    -0.077 C 
HETATM   31  C27 BCR B 618     -36.584 126.208   8.130  1.00 28.93     0.034 C 
HETATM   32  C28 BCR B 618     -35.231 125.850   7.542  1.00 35.11     0.005 C 
HETATM   33  C29 BCR B 618     -34.858 126.794   6.415  1.00 27.97     0.014 C 
HETATM   34  C30 BCR B 618     -34.768 128.228   6.925  1.00 27.33    -0.020 C 
HETATM   35  C35 BCR B 618     -46.715 138.267   9.073  1.00 11.92     0.048 C 
HETATM   36  C36 BCR B 618     -39.513 137.107   8.266  1.00 19.38     0.048 C 
HETATM   37  C37 BCR B 618     -36.082 132.967   8.637  1.00 13.28     0.048 C 
HETATM   38  C38 BCR B 618     -37.867 128.046   9.326  1.00 17.46     0.044 C 
HETATM   39  C39 BCR B 618     -34.784 129.129   5.701  1.00 25.99     0.020 C 
HETATM   40  C40 BCR B 618     -33.431 128.418   7.629  1.00 23.14     0.020 C 
ENDROOT
TORSDOF 10
