REMARK VINA RESULT:    -8.435      2.365     16.487
REMARK INTER + INTRA:         -10.736
REMARK INTER:                  -8.135
REMARK INTRA:                  -2.602
REMARK UNBOUND:                -2.302
REMARK  0 active torsions:
REMARK  status: ('A' for Active; 'I' for Inactive)
REMARK       I    between atoms: C6_6  and  C7_7 
REMARK       I    between atoms: C8_8  and  C9_9 
REMARK       I    between atoms: C10_10  and  C11_11 
REMARK       I    between atoms: C12_16  and  C13_17 
REMARK       I    between atoms: C14_18  and  C15_19 
REMARK       I    between atoms: C16_20  and  C17_21 
REMARK       I    between atoms: C18_22  and  C19_23 
REMARK       I    between atoms: C20_24  and  C21_25 
REMARK       I    between atoms: C22_26  and  C23_27 
REMARK       I    between atoms: C24_28  and  C25_29 
ROOT
HETATM    1  C1  BCR C 515     -34.997 126.796   8.059  1.00 43.74    -0.020 C 
HETATM    2  C2  BCR C 515     -33.880 125.851   7.636  1.00 33.04     0.014 C 
HETATM    3  C3  BCR C 515     -32.767 126.618   6.950  1.00 39.49     0.005 C 
HETATM    4  C4  BCR C 515     -33.296 127.255   5.679  1.00 35.85     0.034 C 
HETATM    5  C5  BCR C 515     -34.501 128.118   5.971  1.00 30.47    -0.077 C 
HETATM    6  C6  BCR C 515     -35.283 127.911   7.052  1.00 45.08    -0.048 C 
HETATM    7  C7  BCR C 515     -36.472 128.778   7.301  1.00 35.93     0.009 C 
HETATM    8  C8  BCR C 515     -36.450 130.076   7.641  1.00 40.16     0.007 C 
HETATM    9  C9  BCR C 515     -37.721 130.816   7.857  1.00 37.91    -0.062 C 
HETATM   10  C10 BCR C 515     -37.716 132.158   8.038  1.00 40.13     0.007 C 
HETATM   11  C11 BCR C 515     -38.921 132.978   8.268  1.00 37.53     0.001 C 
HETATM   12  C33 BCR C 515     -34.789 129.217   4.984  1.00 32.24     0.044 C 
HETATM   13  C31 BCR C 515     -34.590 127.450   9.370  1.00 38.68     0.020 C 
HETATM   14  C32 BCR C 515     -36.248 125.947   8.275  1.00 37.12     0.020 C 
HETATM   15  C34 BCR C 515     -39.015 130.054   7.875  1.00 53.32     0.048 C 
HETATM   16  C12 BCR C 515     -38.788 134.303   8.463  1.00 49.88     0.007 C 
HETATM   17  C13 BCR C 515     -39.924 135.232   8.706  1.00 44.94    -0.062 C 
HETATM   18  C14 BCR C 515     -39.681 136.552   8.928  1.00 48.13     0.007 C 
HETATM   19  C15 BCR C 515     -40.720 137.573   9.178  1.00 45.78     0.001 C 
HETATM   20  C16 BCR C 515     -40.404 138.870   9.365  1.00 42.98     0.001 C 
HETATM   21  C17 BCR C 515     -41.418 139.908   9.607  1.00 35.18     0.007 C 
HETATM   22  C18 BCR C 515     -41.145 141.187   9.979  1.00 46.37    -0.062 C 
HETATM   23  C19 BCR C 515     -42.274 142.127  10.198  1.00 46.12     0.007 C 
HETATM   24  C20 BCR C 515     -42.130 143.364  10.694  1.00 39.74     0.001 C 
HETATM   25  C21 BCR C 515     -43.336 144.182  10.868  1.00 40.38     0.007 C 
HETATM   26  C22 BCR C 515     -43.378 145.377  11.498  1.00 42.03    -0.062 C 
HETATM   27  C23 BCR C 515     -44.573 146.004  11.584  1.00 46.40     0.007 C 
HETATM   28  C24 BCR C 515     -44.751 147.264  12.023  1.00 51.13     0.009 C 
HETATM   29  C25 BCR C 515     -46.107 147.891  12.091  1.00 38.87    -0.048 C 
HETATM   30  C26 BCR C 515     -46.743 148.296  10.974  1.00 44.05    -0.077 C 
HETATM   31  C27 BCR C 515     -48.124 148.934  10.988  1.00 33.55     0.034 C 
HETATM   32  C28 BCR C 515     -48.832 148.769  12.326  1.00 33.51     0.005 C 
HETATM   33  C29 BCR C 515     -47.861 149.086  13.449  1.00 35.48     0.014 C 
HETATM   34  C30 BCR C 515     -46.745 148.050  13.456  1.00 38.75    -0.020 C 
HETATM   35  C35 BCR C 515     -41.323 134.691   8.710  1.00 34.72     0.048 C 
HETATM   36  C36 BCR C 515     -39.736 141.678  10.194  1.00 29.10     0.048 C 
HETATM   37  C37 BCR C 515     -42.133 145.994  12.083  1.00 29.31     0.048 C 
HETATM   38  C38 BCR C 515     -46.101 148.131   9.622  1.00 41.01     0.044 C 
HETATM   39  C39 BCR C 515     -47.332 146.705  13.862  1.00 38.61     0.020 C 
HETATM   40  C40 BCR C 515     -45.677 148.480  14.449  1.00 30.77     0.020 C 
ENDROOT
TORSDOF 10
