REMARK VINA RESULT:    -9.509      0.859     16.443
REMARK INTER + INTRA:         -11.937
REMARK INTER:                  -9.230
REMARK INTRA:                  -2.707
REMARK UNBOUND:                -2.428
REMARK  0 active torsions:
REMARK  status: ('A' for Active; 'I' for Inactive)
REMARK       I    between atoms: C6_6  and  C7_7 
REMARK       I    between atoms: C8_8  and  C9_9 
REMARK       I    between atoms: C10_10  and  C11_11 
REMARK       I    between atoms: C12_16  and  C13_17 
REMARK       I    between atoms: C14_18  and  C15_19 
REMARK       I    between atoms: C16_20  and  C17_21 
REMARK       I    between atoms: C18_22  and  C19_23 
REMARK       I    between atoms: C20_24  and  C21_25 
REMARK       I    between atoms: C22_26  and  C23_27 
REMARK       I    between atoms: C24_28  and  C25_29 
ROOT
HETATM    1  C1  BCR C 515     -32.297 130.022   7.489  1.00 38.64    -0.020 C 
HETATM    2  C2  BCR C 515     -31.486 128.906   6.825  1.00 35.63     0.014 C 
HETATM    3  C3  BCR C 515     -32.061 128.452   5.494  1.00 36.63     0.005 C 
HETATM    4  C4  BCR C 515     -33.504 128.058   5.586  1.00 37.53     0.034 C 
HETATM    5  C5  BCR C 515     -34.311 128.860   6.586  1.00 37.33    -0.077 C 
HETATM    6  C6  BCR C 515     -33.779 129.744   7.450  1.00 36.93    -0.048 C 
HETATM    7  C7  BCR C 515     -34.627 130.489   8.431  1.00 39.97     0.009 C 
HETATM    8  C8  BCR C 515     -35.544 131.371   8.030  1.00 43.71     0.007 C 
HETATM    9  C9  BCR C 515     -36.411 132.138   8.945  1.00 46.26    -0.062 C 
HETATM   10  C10 BCR C 515     -37.189 133.084   8.379  1.00 44.64     0.007 C 
HETATM   11  C11 BCR C 515     -38.103 133.944   9.150  1.00 42.43     0.001 C 
HETATM   12  C33 BCR C 515     -35.783 128.574   6.564  1.00 39.04     0.044 C 
HETATM   13  C31 BCR C 515     -32.009 131.363   6.781  1.00 36.17     0.020 C 
HETATM   14  C32 BCR C 515     -31.927 130.050   8.983  1.00 37.04     0.020 C 
HETATM   15  C34 BCR C 515     -36.443 131.848  10.433  1.00 45.26     0.048 C 
HETATM   16  C12 BCR C 515     -39.119 134.542   8.525  1.00 41.87     0.007 C 
HETATM   17  C13 BCR C 515     -40.069 135.420   9.228  1.00 44.10    -0.062 C 
HETATM   18  C14 BCR C 515     -40.843 136.271   8.504  1.00 43.10     0.007 C 
HETATM   19  C15 BCR C 515     -41.814 137.192   9.124  1.00 44.95     0.001 C 
HETATM   20  C16 BCR C 515     -42.496 138.100   8.413  1.00 42.57     0.001 C 
HETATM   21  C17 BCR C 515     -43.426 139.021   9.076  1.00 44.11     0.007 C 
HETATM   22  C18 BCR C 515     -44.264 139.863   8.415  1.00 45.12    -0.062 C 
HETATM   23  C19 BCR C 515     -45.121 140.765   9.239  1.00 42.40     0.007 C 
HETATM   24  C20 BCR C 515     -45.958 141.671   8.730  1.00 44.25     0.001 C 
HETATM   25  C21 BCR C 515     -46.744 142.535   9.620  1.00 44.77     0.007 C 
HETATM   26  C22 BCR C 515     -47.439 143.639   9.242  1.00 45.45    -0.062 C 
HETATM   27  C23 BCR C 515     -48.180 144.382  10.296  1.00 43.97     0.007 C 
HETATM   28  C24 BCR C 515     -49.210 145.198  10.018  1.00 46.37     0.009 C 
HETATM   29  C25 BCR C 515     -49.958 145.911  11.100  1.00 44.97    -0.048 C 
HETATM   30  C26 BCR C 515     -51.049 145.294  11.593  1.00 43.46    -0.077 C 
HETATM   31  C27 BCR C 515     -51.928 145.871  12.695  1.00 42.55     0.034 C 
HETATM   32  C28 BCR C 515     -51.326 147.092  13.397  1.00 44.37     0.005 C 
HETATM   33  C29 BCR C 515     -50.559 147.993  12.429  1.00 46.88     0.014 C 
HETATM   34  C30 BCR C 515     -49.491 147.263  11.603  1.00 44.50    -0.020 C 
HETATM   35  C35 BCR C 515     -40.165 135.309  10.736  1.00 43.98     0.048 C 
HETATM   36  C36 BCR C 515     -44.295 139.923   6.896  1.00 37.46     0.048 C 
HETATM   37  C37 BCR C 515     -47.479 144.124   7.811  1.00 40.96     0.048 C 
HETATM   38  C38 BCR C 515     -51.451 143.960  11.023  1.00 36.94     0.044 C 
HETATM   39  C39 BCR C 515     -48.197 147.114  12.413  1.00 44.31     0.020 C 
HETATM   40  C40 BCR C 515     -49.219 148.145  10.389  1.00 48.67     0.020 C 
ENDROOT
TORSDOF 10
