REMARK VINA RESULT:    -6.775      2.611     16.508
REMARK INTER + INTRA:          -9.570
REMARK INTER:                  -6.486
REMARK INTRA:                  -3.084
REMARK UNBOUND:                -2.795
REMARK  0 active torsions:
REMARK  status: ('A' for Active; 'I' for Inactive)
REMARK       I    between atoms: C6_6  and  C7_7 
REMARK       I    between atoms: C8_8  and  C9_9 
REMARK       I    between atoms: C10_10  and  C11_11 
REMARK       I    between atoms: C12_16  and  C13_17 
REMARK       I    between atoms: C14_18  and  C15_19 
REMARK       I    between atoms: C16_20  and  C17_21 
REMARK       I    between atoms: C18_22  and  C19_23 
REMARK       I    between atoms: C20_24  and  C21_25 
REMARK       I    between atoms: C22_26  and  C23_27 
REMARK       I    between atoms: C24_28  and  C25_29 
ROOT
HETATM    1  C1  BCR B 618     -33.369 127.845   7.267  1.00 52.27    -0.020 C 
HETATM    2  C2  BCR B 618     -32.332 126.979   6.555  1.00 40.31     0.014 C 
HETATM    3  C3  BCR B 618     -31.982 127.517   5.175  1.00 36.34     0.005 C 
HETATM    4  C4  BCR B 618     -33.221 127.537   4.297  1.00 43.90     0.034 C 
HETATM    5  C5  BCR B 618     -34.428 128.109   5.013  1.00 42.39    -0.077 C 
HETATM    6  C6  BCR B 618     -34.505 128.250   6.345  1.00 41.32    -0.048 C 
HETATM    7  C7  BCR B 618     -35.750 128.817   6.922  1.00 37.02     0.009 C 
HETATM    8  C8  BCR B 618     -35.948 130.130   7.102  1.00 40.38     0.007 C 
HETATM    9  C9  BCR B 618     -37.222 130.647   7.662  1.00 43.44    -0.062 C 
HETATM   10  C10 BCR B 618     -37.471 131.967   7.631  1.00 33.05     0.007 C 
HETATM   11  C11 BCR B 618     -38.705 132.594   8.123  1.00 38.44     0.001 C 
HETATM   12  C33 BCR B 618     -35.588 128.523   4.167  1.00 43.01     0.044 C 
HETATM   13  C31 BCR B 618     -32.716 129.124   7.791  1.00 47.24     0.020 C 
HETATM   14  C32 BCR B 618     -33.946 127.029   8.421  1.00 46.10     0.020 C 
HETATM   15  C34 BCR B 618     -38.231 129.712   8.250  1.00 38.09     0.048 C 
HETATM   16  C12 BCR B 618     -38.763 133.933   8.118  1.00 45.48     0.007 C 
HETATM   17  C13 BCR B 618     -39.969 134.677   8.538  1.00 46.67    -0.062 C 
HETATM   18  C14 BCR B 618     -39.962 136.035   8.495  1.00 36.87     0.007 C 
HETATM   19  C15 BCR B 618     -41.109 136.880   8.865  1.00 33.54     0.001 C 
HETATM   20  C16 BCR B 618     -41.172 138.167   8.497  1.00 30.58     0.001 C 
HETATM   21  C17 BCR B 618     -42.328 139.024   8.846  1.00 36.03     0.007 C 
HETATM   22  C18 BCR B 618     -42.390 140.355   8.597  1.00 37.55    -0.062 C 
HETATM   23  C19 BCR B 618     -43.610 141.112   8.996  1.00 41.57     0.007 C 
HETATM   24  C20 BCR B 618     -43.934 142.367   8.642  1.00 44.50     0.001 C 
HETATM   25  C21 BCR B 618     -45.212 142.891   9.158  1.00 27.16     0.007 C 
HETATM   26  C22 BCR B 618     -45.843 144.020   8.761  1.00 45.91    -0.062 C 
HETATM   27  C23 BCR B 618     -47.027 144.350   9.340  1.00 42.15     0.007 C 
HETATM   28  C24 BCR B 618     -47.757 145.384   8.891  1.00 36.90     0.009 C 
HETATM   29  C25 BCR B 618     -49.056 145.849   9.441  1.00 40.99    -0.048 C 
HETATM   30  C26 BCR B 618     -50.173 145.077   9.382  1.00 43.47    -0.077 C 
HETATM   31  C27 BCR B 618     -51.509 145.542   9.926  1.00 44.02     0.034 C 
HETATM   32  C28 BCR B 618     -51.544 147.053  10.135  1.00 46.97     0.005 C 
HETATM   33  C29 BCR B 618     -50.305 147.548  10.871  1.00 50.46     0.014 C 
HETATM   34  C30 BCR B 618     -49.057 147.263  10.047  1.00 44.40    -0.020 C 
HETATM   35  C35 BCR B 618     -41.180 133.877   8.932  1.00 29.80     0.048 C 
HETATM   36  C36 BCR B 618     -41.247 141.069   7.934  1.00 38.94     0.048 C 
HETATM   37  C37 BCR B 618     -45.243 144.928   7.718  1.00 32.34     0.048 C 
HETATM   38  C38 BCR B 618     -50.187 143.693   8.785  1.00 35.16     0.044 C 
HETATM   39  C39 BCR B 618     -47.833 147.458  10.936  1.00 36.65     0.020 C 
HETATM   40  C40 BCR B 618     -48.948 148.323   8.961  1.00 45.60     0.020 C 
ENDROOT
TORSDOF 10
