REMARK VINA RESULT:    -9.493      2.167      2.590
REMARK INTER + INTRA:         -11.794
REMARK INTER:                  -7.314
REMARK INTRA:                  -4.480
REMARK UNBOUND:                -2.302
REMARK  0 active torsions:
REMARK  status: ('A' for Active; 'I' for Inactive)
REMARK       I    between atoms: C6_6  and  C7_7 
REMARK       I    between atoms: C8_8  and  C9_9 
REMARK       I    between atoms: C10_10  and  C11_11 
REMARK       I    between atoms: C12_16  and  C13_17 
REMARK       I    between atoms: C14_18  and  C15_19 
REMARK       I    between atoms: C16_20  and  C17_21 
REMARK       I    between atoms: C18_22  and  C19_23 
REMARK       I    between atoms: C20_24  and  C21_25 
REMARK       I    between atoms: C22_26  and  C23_27 
REMARK       I    between atoms: C24_28  and  C25_29 
ROOT
HETATM    1  C1  BCR C 515     -45.920 149.101  12.815  1.00 43.74    -0.020 C 
HETATM    2  C2  BCR C 515     -46.878 149.989  13.597  1.00 33.04     0.014 C 
HETATM    3  C3  BCR C 515     -47.675 149.166  14.590  1.00 39.49     0.005 C 
HETATM    4  C4  BCR C 515     -48.531 148.160  13.846  1.00 35.85     0.034 C 
HETATM    5  C5  BCR C 515     -47.685 147.306  12.932  1.00 30.47    -0.077 C 
HETATM    6  C6  BCR C 515     -46.496 147.730  12.455  1.00 45.08    -0.048 C 
HETATM    7  C7  BCR C 515     -45.693 146.862  11.543  1.00 35.93     0.009 C 
HETATM    8  C8  BCR C 515     -45.081 145.715  11.877  1.00 40.16     0.007 C 
HETATM    9  C9  BCR C 515     -44.314 144.951  10.858  1.00 37.91    -0.062 C 
HETATM   10  C10 BCR C 515     -43.833 143.717  11.139  1.00 40.13     0.007 C 
HETATM   11  C11 BCR C 515     -43.054 142.887  10.199  1.00 37.53     0.001 C 
HETATM   12  C33 BCR C 515     -48.246 145.956  12.572  1.00 32.24     0.044 C 
HETATM   13  C31 BCR C 515     -44.684 148.872  13.672  1.00 38.68     0.020 C 
HETATM   14  C32 BCR C 515     -45.532 149.860  11.549  1.00 37.12     0.020 C 
HETATM   15  C34 BCR C 515     -44.075 145.569   9.510  1.00 53.32     0.048 C 
HETATM   16  C12 BCR C 515     -42.604 141.685  10.601  1.00 49.88     0.007 C 
HETATM   17  C13 BCR C 515     -41.810 140.760   9.750  1.00 44.94    -0.062 C 
HETATM   18  C14 BCR C 515     -41.370 139.579  10.263  1.00 48.13     0.007 C 
HETATM   19  C15 BCR C 515     -40.577 138.577   9.520  1.00 45.78     0.001 C 
HETATM   20  C16 BCR C 515     -40.197 137.415  10.089  1.00 42.98     0.001 C 
HETATM   21  C17 BCR C 515     -39.415 136.397   9.371  1.00 35.18     0.007 C 
HETATM   22  C18 BCR C 515     -38.856 135.300   9.946  1.00 46.37    -0.062 C 
HETATM   23  C19 BCR C 515     -38.083 134.358   9.097  1.00 46.12     0.007 C 
HETATM   24  C20 BCR C 515     -37.380 133.324   9.578  1.00 39.74     0.001 C 
HETATM   25  C21 BCR C 515     -36.653 132.480   8.622  1.00 40.38     0.007 C 
HETATM   26  C22 BCR C 515     -35.778 131.506   8.957  1.00 42.03    -0.062 C 
HETATM   27  C23 BCR C 515     -35.181 130.822   7.955  1.00 46.40     0.007 C 
HETATM   28  C24 BCR C 515     -34.425 129.720   8.119  1.00 51.13     0.009 C 
HETATM   29  C25 BCR C 515     -33.794 129.017   6.960  1.00 38.87    -0.048 C 
HETATM   30  C26 BCR C 515     -34.530 128.264   6.119  1.00 44.05    -0.077 C 
HETATM   31  C27 BCR C 515     -33.939 127.533   4.923  1.00 33.55     0.034 C 
HETATM   32  C28 BCR C 515     -32.525 127.995   4.593  1.00 33.51     0.005 C 
HETATM   33  C29 BCR C 515     -31.717 128.088   5.875  1.00 35.48     0.014 C 
HETATM   34  C30 BCR C 515     -32.301 129.182   6.760  1.00 38.75    -0.020 C 
HETATM   35  C35 BCR C 515     -41.499 141.153   8.336  1.00 34.72     0.048 C 
HETATM   36  C36 BCR C 515     -38.979 135.015  11.422  1.00 29.10     0.048 C 
HETATM   37  C37 BCR C 515     -35.480 131.188  10.400  1.00 29.31     0.048 C 
HETATM   38  C38 BCR C 515     -36.013 128.108   6.326  1.00 41.01     0.044 C 
HETATM   39  C39 BCR C 515     -32.062 130.529   6.090  1.00 38.61     0.020 C 
HETATM   40  C40 BCR C 515     -31.617 129.140   8.117  1.00 30.77     0.020 C 
ENDROOT
TORSDOF 10
