REMARK VINA RESULT:    -8.232      2.740     16.360
REMARK INTER + INTRA:         -11.027
REMARK INTER:                  -8.452
REMARK INTRA:                  -2.575
REMARK UNBOUND:                -2.795
REMARK  0 active torsions:
REMARK  status: ('A' for Active; 'I' for Inactive)
REMARK       I    between atoms: C6_6  and  C7_7 
REMARK       I    between atoms: C8_8  and  C9_9 
REMARK       I    between atoms: C10_10  and  C11_11 
REMARK       I    between atoms: C12_16  and  C13_17 
REMARK       I    between atoms: C14_18  and  C15_19 
REMARK       I    between atoms: C16_20  and  C17_21 
REMARK       I    between atoms: C18_22  and  C19_23 
REMARK       I    between atoms: C20_24  and  C21_25 
REMARK       I    between atoms: C22_26  and  C23_27 
REMARK       I    between atoms: C24_28  and  C25_29 
ROOT
HETATM    1  C1  BCR B 618     -32.345 130.051   7.607  1.00 52.27    -0.020 C 
HETATM    2  C2  BCR B 618     -31.604 128.957   6.840  1.00 40.31     0.014 C 
HETATM    3  C3  BCR B 618     -32.275 128.627   5.514  1.00 36.34     0.005 C 
HETATM    4  C4  BCR B 618     -33.685 128.118   5.760  1.00 43.90     0.034 C 
HETATM    5  C5  BCR B 618     -34.440 128.968   6.762  1.00 42.39    -0.077 C 
HETATM    6  C6  BCR B 618     -33.848 129.837   7.596  1.00 41.32    -0.048 C 
HETATM    7  C7  BCR B 618     -34.703 130.602   8.538  1.00 37.02     0.009 C 
HETATM    8  C8  BCR B 618     -35.263 131.782   8.233  1.00 40.38     0.007 C 
HETATM    9  C9  BCR B 618     -36.130 132.496   9.204  1.00 43.44    -0.062 C 
HETATM   10  C10 BCR B 618     -36.841 133.561   8.797  1.00 33.05     0.007 C 
HETATM   11  C11 BCR B 618     -37.756 134.328   9.652  1.00 38.44     0.001 C 
HETATM   12  C33 BCR B 618     -35.925 128.804   6.812  1.00 43.01     0.044 C 
HETATM   13  C31 BCR B 618     -32.065 131.415   6.979  1.00 47.24     0.020 C 
HETATM   14  C32 BCR B 618     -31.859 130.019   9.053  1.00 46.10     0.020 C 
HETATM   15  C34 BCR B 618     -36.224 132.036  10.624  1.00 38.09     0.048 C 
HETATM   16  C12 BCR B 618     -38.317 135.428   9.129  1.00 45.48     0.007 C 
HETATM   17  C13 BCR B 618     -39.294 136.251   9.872  1.00 46.67    -0.062 C 
HETATM   18  C14 BCR B 618     -39.833 137.346   9.273  1.00 36.87     0.007 C 
HETATM   19  C15 BCR B 618     -40.830 138.226   9.904  1.00 33.54     0.001 C 
HETATM   20  C16 BCR B 618     -41.566 139.076   9.176  1.00 30.58     0.001 C 
HETATM   21  C17 BCR B 618     -42.586 139.954   9.795  1.00 36.03     0.007 C 
HETATM   22  C18 BCR B 618     -43.275 140.908   9.123  1.00 37.55    -0.062 C 
HETATM   23  C19 BCR B 618     -44.279 141.730   9.856  1.00 41.57     0.007 C 
HETATM   24  C20 BCR B 618     -45.193 142.556   9.321  1.00 44.50     0.001 C 
HETATM   25  C21 BCR B 618     -46.089 143.252  10.263  1.00 27.16     0.007 C 
HETATM   26  C22 BCR B 618     -47.210 143.943   9.953  1.00 45.91    -0.062 C 
HETATM   27  C23 BCR B 618     -47.928 144.516  10.955  1.00 42.15     0.007 C 
HETATM   28  C24 BCR B 618     -49.114 145.098  10.716  1.00 36.90     0.009 C 
HETATM   29  C25 BCR B 618     -49.986 145.762  11.718  1.00 40.99    -0.048 C 
HETATM   30  C26 BCR B 618     -50.566 145.068  12.732  1.00 43.47    -0.077 C 
HETATM   31  C27 BCR B 618     -51.469 145.729  13.755  1.00 44.02     0.034 C 
HETATM   32  C28 BCR B 618     -51.965 147.091  13.279  1.00 46.97     0.005 C 
HETATM   33  C29 BCR B 618     -50.829 147.944  12.730  1.00 50.46     0.014 C 
HETATM   34  C30 BCR B 618     -50.209 147.271  11.513  1.00 44.40    -0.020 C 
HETATM   35  C35 BCR B 618     -39.695 135.788  11.244  1.00 29.80     0.048 C 
HETATM   36  C36 BCR B 618     -43.035 141.147   7.659  1.00 38.94     0.048 C 
HETATM   37  C37 BCR B 618     -47.656 144.114   8.523  1.00 32.34     0.048 C 
HETATM   38  C38 BCR B 618     -50.361 143.589  12.941  1.00 35.16     0.044 C 
HETATM   39  C39 BCR B 618     -48.888 147.962  11.195  1.00 36.65     0.020 C 
HETATM   40  C40 BCR B 618     -51.108 147.531  10.313  1.00 45.60     0.020 C 
ENDROOT
TORSDOF 10
