REMARK VINA RESULT:    -5.796      0.576     16.058
REMARK INTER + INTRA:          -9.210
REMARK INTER:                  -5.479
REMARK INTRA:                  -3.730
REMARK UNBOUND:                -3.414
REMARK  0 active torsions:
REMARK  status: ('A' for Active; 'I' for Inactive)
REMARK       I    between atoms: C6_6  and  C7_7 
REMARK       I    between atoms: C8_8  and  C9_9 
REMARK       I    between atoms: C10_10  and  C11_11 
REMARK       I    between atoms: C12_16  and  C13_17 
REMARK       I    between atoms: C14_18  and  C15_19 
REMARK       I    between atoms: C16_20  and  C17_21 
REMARK       I    between atoms: C18_22  and  C19_23 
REMARK       I    between atoms: C20_24  and  C21_25 
REMARK       I    between atoms: C22_26  and  C23_27 
REMARK       I    between atoms: C24_28  and  C25_29 
ROOT
HETATM    1  C1  BCR D 403     -33.322 128.980   8.250  1.00 31.64    -0.020 C 
HETATM    2  C2  BCR D 403     -32.879 127.786   7.415  1.00 36.91     0.014 C 
HETATM    3  C3  BCR D 403     -33.092 128.033   5.931  1.00 34.30     0.005 C 
HETATM    4  C4  BCR D 403     -34.572 128.188   5.659  1.00 20.39     0.034 C 
HETATM    5  C5  BCR D 403     -35.223 129.163   6.609  1.00 30.73    -0.077 C 
HETATM    6  C6  BCR D 403     -34.663 129.533   7.787  1.00 34.13    -0.048 C 
HETATM    7  C7  BCR D 403     -35.371 130.491   8.688  1.00 22.47     0.009 C 
HETATM    8  C8  BCR D 403     -35.498 131.813   8.499  1.00 27.46     0.007 C 
HETATM    9  C9  BCR D 403     -36.261 132.612   9.488  1.00 32.57    -0.062 C 
HETATM   10  C10 BCR D 403     -36.825 133.775   9.122  1.00 21.68     0.007 C 
HETATM   11  C11 BCR D 403     -37.641 134.617  10.007  1.00 23.10     0.001 C 
HETATM   12  C33 BCR D 403     -36.561 129.695   6.167  1.00 25.91     0.044 C 
HETATM   13  C31 BCR D 403     -32.271 130.090   8.216  1.00 40.32     0.020 C 
HETATM   14  C32 BCR D 403     -33.475 128.476   9.681  1.00 29.64     0.020 C 
HETATM   15  C34 BCR D 403     -36.391 132.116  10.899  1.00 31.14     0.048 C 
HETATM   16  C12 BCR D 403     -38.217 135.677   9.429  1.00 20.09     0.007 C 
HETATM   17  C13 BCR D 403     -39.157 136.617  10.066  1.00 19.95    -0.062 C 
HETATM   18  C14 BCR D 403     -39.642 137.662   9.343  1.00 30.05     0.007 C 
HETATM   19  C15 BCR D 403     -40.656 138.591   9.869  1.00 30.83     0.001 C 
HETATM   20  C16 BCR D 403     -41.306 139.427   9.037  1.00 27.80     0.001 C 
HETATM   21  C17 BCR D 403     -42.400 140.296   9.507  1.00 19.50     0.007 C 
HETATM   22  C18 BCR D 403     -43.123 141.115   8.694  1.00 20.25    -0.062 C 
HETATM   23  C19 BCR D 403     -44.273 141.866   9.264  1.00 20.98     0.007 C 
HETATM   24  C20 BCR D 403     -45.060 142.712   8.586  1.00 19.16     0.001 C 
HETATM   25  C21 BCR D 403     -46.212 143.288   9.292  1.00 32.99     0.007 C 
HETATM   26  C22 BCR D 403     -47.116 144.134   8.759  1.00 28.53    -0.062 C 
HETATM   27  C23 BCR D 403     -48.165 144.516   9.520  1.00 31.07     0.007 C 
HETATM   28  C24 BCR D 403     -49.390 144.642   8.963  1.00 50.55     0.009 C 
HETATM   29  C25 BCR D 403     -50.641 144.989   9.705  1.00 52.69    -0.048 C 
HETATM   30  C26 BCR D 403     -51.295 143.993  10.313  1.00 59.17    -0.077 C 
HETATM   31  C27 BCR D 403     -52.563 144.235  11.088  1.00 58.46     0.034 C 
HETATM   32  C28 BCR D 403     -52.399 145.559  11.804  1.00 49.26     0.005 C 
HETATM   33  C29 BCR D 403     -52.342 146.610  10.717  1.00 44.20     0.014 C 
HETATM   34  C30 BCR D 403     -51.179 146.407   9.755  1.00 46.31    -0.020 C 
HETATM   35  C35 BCR D 403     -39.641 136.358  11.471  1.00 22.68     0.048 C 
HETATM   36  C36 BCR D 403     -42.828 141.215   7.225  1.00 19.40     0.048 C 
HETATM   37  C37 BCR D 403     -46.969 144.597   7.338  1.00 20.07     0.048 C 
HETATM   38  C38 BCR D 403     -50.771 142.588  10.250  1.00 70.87     0.044 C 
HETATM   39  C39 BCR D 403     -50.056 147.333  10.190  1.00 46.29     0.020 C 
HETATM   40  C40 BCR D 403     -51.669 146.769   8.362  1.00 32.90     0.020 C 
ENDROOT
TORSDOF 10
