REMARK VINA RESULT:    -8.411      2.823      4.786
REMARK INTER + INTRA:         -15.199
REMARK INTER:                 -12.773
REMARK INTRA:                  -2.426
REMARK UNBOUND:                -6.789
REMARK  0 active torsions:
REMARK  status: ('A' for Active; 'I' for Inactive)
REMARK       I    between atoms: C6_6  and  C7_7 
REMARK       I    between atoms: C8_8  and  C9_9 
REMARK       I    between atoms: C10_10  and  C11_11 
REMARK       I    between atoms: C12_16  and  C13_17 
REMARK       I    between atoms: C14_18  and  C15_19 
REMARK       I    between atoms: C16_20  and  C17_21 
REMARK       I    between atoms: C18_22  and  C19_23 
REMARK       I    between atoms: C20_24  and  C21_25 
REMARK       I    between atoms: C22_26  and  C23_27 
REMARK       I    between atoms: C24_28  and  C25_29 
ROOT
HETATM    1  C1  BCR C 516     -34.700 127.210   5.938  1.00 30.02    -0.020 C 
HETATM    2  C2  BCR C 516     -33.445 126.463   5.540  1.00 30.87     0.014 C 
HETATM    3  C3  BCR C 516     -32.343 127.434   5.193  1.00 30.68     0.005 C 
HETATM    4  C4  BCR C 516     -31.969 128.315   6.364  1.00 31.80     0.034 C 
HETATM    5  C5  BCR C 516     -33.166 128.691   7.189  1.00 32.46    -0.077 C 
HETATM    6  C6  BCR C 516     -34.400 128.322   6.885  1.00 30.66    -0.048 C 
HETATM    7  C7  BCR C 516     -35.544 128.968   7.530  1.00 30.01     0.009 C 
HETATM    8  C8  BCR C 516     -35.926 130.192   7.221  1.00 34.00     0.007 C 
HETATM    9  C9  BCR C 516     -37.076 130.759   7.929  1.00 33.37    -0.062 C 
HETATM   10  C10 BCR C 516     -37.219 132.079   7.959  1.00 32.41     0.007 C 
HETATM   11  C11 BCR C 516     -38.317 132.748   8.638  1.00 36.14     0.001 C 
HETATM   12  C33 BCR C 516     -32.915 129.498   8.418  1.00 28.57     0.044 C 
HETATM   13  C31 BCR C 516     -35.681 126.276   6.620  1.00 26.76     0.020 C 
HETATM   14  C32 BCR C 516     -35.364 127.812   4.717  1.00 31.67     0.020 C 
HETATM   15  C34 BCR C 516     -38.057 129.846   8.599  1.00 31.81     0.048 C 
HETATM   16  C12 BCR C 516     -38.323 134.066   8.544  1.00 35.77     0.007 C 
HETATM   17  C13 BCR C 516     -39.323 134.947   9.155  1.00 38.22    -0.062 C 
HETATM   18  C14 BCR C 516     -39.438 136.195   8.663  1.00 37.80     0.007 C 
HETATM   19  C15 BCR C 516     -40.383 137.173   9.194  1.00 32.13     0.001 C 
HETATM   20  C16 BCR C 516     -40.760 138.251   8.512  1.00 37.10     0.001 C 
HETATM   21  C17 BCR C 516     -41.698 139.159   9.162  1.00 38.20     0.007 C 
HETATM   22  C18 BCR C 516     -41.954 140.404   8.754  1.00 31.50    -0.062 C 
HETATM   23  C19 BCR C 516     -42.903 141.188   9.546  1.00 25.76     0.007 C 
HETATM   24  C20 BCR C 516     -43.311 142.416   9.281  1.00 25.99     0.001 C 
HETATM   25  C21 BCR C 516     -44.235 142.943  10.265  1.00 30.28     0.007 C 
HETATM   26  C22 BCR C 516     -44.700 144.182  10.288  1.00 28.61    -0.062 C 
HETATM   27  C23 BCR C 516     -45.611 144.570  11.368  1.00 24.47     0.007 C 
HETATM   28  C24 BCR C 516     -45.851 145.853  11.590  1.00 23.15     0.009 C 
HETATM   29  C25 BCR C 516     -46.727 146.377  12.649  1.00 23.34    -0.048 C 
HETATM   30  C26 BCR C 516     -48.026 146.077  12.743  1.00 21.26    -0.077 C 
HETATM   31  C27 BCR C 516     -48.892 146.617  13.844  1.00 23.10     0.034 C 
HETATM   32  C28 BCR C 516     -48.054 147.017  15.031  1.00 24.68     0.005 C 
HETATM   33  C29 BCR C 516     -46.987 147.983  14.590  1.00 25.94     0.014 C 
HETATM   34  C30 BCR C 516     -46.045 147.320  13.600  1.00 23.98    -0.020 C 
HETATM   35  C35 BCR C 516     -40.165 134.458  10.294  1.00 31.22     0.048 C 
HETATM   36  C36 BCR C 516     -41.275 140.981   7.559  1.00 33.32     0.048 C 
HETATM   37  C37 BCR C 516     -44.306 145.175   9.241  1.00 23.79     0.048 C 
HETATM   38  C38 BCR C 516     -48.719 145.196  11.753  1.00 23.96     0.044 C 
HETATM   39  C39 BCR C 516     -44.997 146.532  14.360  1.00 22.89     0.020 C 
HETATM   40  C40 BCR C 516     -45.342 148.379  12.773  1.00 22.73     0.020 C 
ENDROOT
TORSDOF 10
