REMARK VINA RESULT:    -6.178      0.480     16.327
REMARK INTER + INTRA:         -12.777
REMARK INTER:                  -7.283
REMARK INTRA:                  -5.494
REMARK UNBOUND:                -6.599
REMARK  0 active torsions:
REMARK  status: ('A' for Active; 'I' for Inactive)
REMARK       I    between atoms: C6_6  and  C7_7 
REMARK       I    between atoms: C8_8  and  C9_9 
REMARK       I    between atoms: C10_10  and  C11_11 
REMARK       I    between atoms: C12_16  and  C13_17 
REMARK       I    between atoms: C14_18  and  C15_19 
REMARK       I    between atoms: C16_20  and  C17_21 
REMARK       I    between atoms: C18_22  and  C19_23 
REMARK       I    between atoms: C20_24  and  C21_25 
REMARK       I    between atoms: C22_26  and  C23_27 
REMARK       I    between atoms: C24_28  and  C25_29 
ROOT
HETATM    1  C1  BCR B 618     -49.967 150.486   7.907  1.00 18.61    -0.020 C 
HETATM    2  C2  BCR B 618     -51.194 151.286   7.534  1.00 18.63     0.014 C 
HETATM    3  C3  BCR B 618     -52.122 150.462   6.694  1.00 18.62     0.005 C 
HETATM    4  C4  BCR B 618     -52.592 149.249   7.451  1.00 18.60     0.034 C 
HETATM    5  C5  BCR B 618     -51.511 148.590   8.224  1.00 18.57    -0.077 C 
HETATM    6  C6  BCR B 618     -50.296 149.127   8.445  1.00 18.52    -0.048 C 
HETATM    7  C7  BCR B 618     -49.248 148.456   9.230  1.00 18.34     0.009 C 
HETATM    8  C8  BCR B 618     -48.494 147.466   8.749  1.00 18.07     0.007 C 
HETATM    9  C9  BCR B 618     -47.484 146.718   9.470  1.00 17.93    -0.062 C 
HETATM   10  C10 BCR B 618     -47.102 145.539   8.956  1.00 17.77     0.007 C 
HETATM   11  C11 BCR B 618     -45.887 144.845   9.300  1.00 17.60     0.001 C 
HETATM   12  C33 BCR B 618     -51.918 147.262   8.736  1.00 18.57     0.044 C 
HETATM   13  C31 BCR B 618     -49.207 151.322   8.915  1.00 18.66     0.020 C 
HETATM   14  C32 BCR B 618     -49.126 150.359   6.652  1.00 18.64     0.020 C 
HETATM   15  C34 BCR B 618     -46.600 147.470  10.379  1.00 17.92     0.048 C 
HETATM   16  C12 BCR B 618     -45.593 143.681   8.703  1.00 17.46     0.007 C 
HETATM   17  C13 BCR B 618     -44.552 142.778   9.135  1.00 17.39    -0.062 C 
HETATM   18  C14 BCR B 618     -44.310 141.673   8.411  1.00 17.35     0.007 C 
HETATM   19  C15 BCR B 618     -43.227 140.764   8.661  1.00 17.33     0.001 C 
HETATM   20  C16 BCR B 618     -43.062 139.670   7.904  1.00 17.39     0.001 C 
HETATM   21  C17 BCR B 618     -42.145 138.646   8.331  1.00 17.40     0.007 C 
HETATM   22  C18 BCR B 618     -41.849 137.518   7.673  1.00 17.49    -0.062 C 
HETATM   23  C19 BCR B 618     -40.757 136.720   8.182  1.00 17.57     0.007 C 
HETATM   24  C20 BCR B 618     -40.502 135.473   7.795  1.00 17.71     0.001 C 
HETATM   25  C21 BCR B 618     -39.359 134.793   8.337  1.00 17.85     0.007 C 
HETATM   26  C22 BCR B 618     -39.026 133.519   8.115  1.00 18.00    -0.062 C 
HETATM   27  C23 BCR B 618     -37.749 133.060   8.626  1.00 18.11     0.007 C 
HETATM   28  C24 BCR B 618     -37.399 131.771   8.609  1.00 18.27     0.009 C 
HETATM   29  C25 BCR B 618     -36.137 131.191   9.073  1.00 18.38    -0.048 C 
HETATM   30  C26 BCR B 618     -35.824 131.030  10.366  1.00 18.39    -0.077 C 
HETATM   31  C27 BCR B 618     -34.575 130.458  10.920  1.00 18.43     0.034 C 
HETATM   32  C28 BCR B 618     -33.542 130.091   9.882  1.00 18.45     0.005 C 
HETATM   33  C29 BCR B 618     -33.757 130.774   8.559  1.00 18.46     0.014 C 
HETATM   34  C30 BCR B 618     -35.176 130.706   8.037  1.00 18.45    -0.020 C 
HETATM   35  C35 BCR B 618     -43.579 143.221  10.151  1.00 17.31     0.048 C 
HETATM   36  C36 BCR B 618     -42.824 136.872   6.772  1.00 17.49     0.048 C 
HETATM   37  C37 BCR B 618     -39.782 132.651   7.186  1.00 18.00     0.048 C 
HETATM   38  C38 BCR B 618     -36.677 131.451  11.493  1.00 18.43     0.044 C 
HETATM   39  C39 BCR B 618     -35.551 129.304   7.584  1.00 18.49     0.020 C 
HETATM   40  C40 BCR B 618     -35.166 131.546   6.773  1.00 18.48     0.020 C 
ENDROOT
TORSDOF 10
