REMARK VINA RESULT:    -6.093      1.029     15.861
REMARK INTER + INTRA:          -9.919
REMARK INTER:                  -6.363
REMARK INTRA:                  -3.556
REMARK UNBOUND:                -3.826
REMARK  0 active torsions:
REMARK  status: ('A' for Active; 'I' for Inactive)
REMARK       I    between atoms: C6_6  and  C7_7 
REMARK       I    between atoms: C8_8  and  C9_9 
REMARK       I    between atoms: C10_10  and  C11_11 
REMARK       I    between atoms: C12_16  and  C13_17 
REMARK       I    between atoms: C14_18  and  C15_19 
REMARK       I    between atoms: C16_20  and  C17_21 
REMARK       I    between atoms: C18_22  and  C19_23 
REMARK       I    between atoms: C20_24  and  C21_25 
REMARK       I    between atoms: C22_26  and  C23_27 
REMARK       I    between atoms: C24_28  and  C25_29 
ROOT
HETATM    1  C1  BCR D 405     -50.306 146.945   8.241  1.00 23.81    -0.020 C 
HETATM    2  C2  BCR D 405     -51.776 147.256   8.461  1.00 23.81     0.014 C 
HETATM    3  C3  BCR D 405     -52.365 146.496   9.605  1.00 23.79     0.005 C 
HETATM    4  C4  BCR D 405     -52.133 145.014   9.476  1.00 23.78     0.034 C 
HETATM    5  C5  BCR D 405     -50.851 144.645   8.840  1.00 23.75    -0.077 C 
HETATM    6  C6  BCR D 405     -49.978 145.497   8.285  1.00 23.76    -0.048 C 
HETATM    7  C7  BCR D 405     -48.717 145.092   7.637  1.00 23.73     0.009 C 
HETATM    8  C8  BCR D 405     -47.587 144.747   8.265  1.00 23.75     0.007 C 
HETATM    9  C9  BCR D 405     -46.489 144.040   7.613  1.00 23.73    -0.062 C 
HETATM   10  C10 BCR D 405     -45.525 143.454   8.339  1.00 23.72     0.007 C 
HETATM   11  C11 BCR D 405     -44.330 142.837   7.804  1.00 23.71     0.001 C 
HETATM   12  C33 BCR D 405     -50.625 143.199   8.907  1.00 23.71     0.044 C 
HETATM   13  C31 BCR D 405     -49.499 147.724   9.256  1.00 23.82     0.020 C 
HETATM   14  C32 BCR D 405     -49.981 147.500   6.872  1.00 23.83     0.020 C 
HETATM   15  C34 BCR D 405     -46.351 144.217   6.155  1.00 23.71     0.048 C 
HETATM   16  C12 BCR D 405     -43.616 141.989   8.560  1.00 23.80     0.007 C 
HETATM   17  C13 BCR D 405     -42.506 141.170   8.110  1.00 23.88    -0.062 C 
HETATM   18  C14 BCR D 405     -41.892 140.374   8.999  1.00 24.05     0.007 C 
HETATM   19  C15 BCR D 405     -40.756 139.522   8.752  1.00 24.33     0.001 C 
HETATM   20  C16 BCR D 405     -40.481 138.502   9.585  1.00 24.74     0.001 C 
HETATM   21  C17 BCR D 405     -39.352 137.638   9.357  1.00 25.24     0.007 C 
HETATM   22  C18 BCR D 405     -39.055 136.519  10.035  1.00 25.66    -0.062 C 
HETATM   23  C19 BCR D 405     -37.972 135.682   9.567  1.00 26.14     0.007 C 
HETATM   24  C20 BCR D 405     -37.607 134.529  10.133  1.00 26.76     0.001 C 
HETATM   25  C21 BCR D 405     -36.532 133.801   9.505  1.00 27.46     0.007 C 
HETATM   26  C22 BCR D 405     -36.014 132.630   9.886  1.00 28.07    -0.062 C 
HETATM   27  C23 BCR D 405     -35.238 131.859   8.921  1.00 28.67     0.007 C 
HETATM   28  C24 BCR D 405     -35.218 130.517   8.910  1.00 29.42     0.009 C 
HETATM   29  C25 BCR D 405     -34.756 129.648   7.817  1.00 29.98    -0.048 C 
HETATM   30  C26 BCR D 405     -35.497 129.387   6.730  1.00 30.20    -0.077 C 
HETATM   31  C27 BCR D 405     -35.105 128.526   5.593  1.00 30.31     0.034 C 
HETATM   32  C28 BCR D 405     -33.618 128.287   5.549  1.00 30.34     0.005 C 
HETATM   33  C29 BCR D 405     -33.131 127.944   6.931  1.00 30.21     0.014 C 
HETATM   34  C30 BCR D 405     -33.397 129.033   7.957  1.00 30.10    -0.020 C 
HETATM   35  C35 BCR D 405     -42.112 141.172   6.686  1.00 23.85     0.048 C 
HETATM   36  C36 BCR D 405     -39.823 136.088  11.216  1.00 25.62     0.048 C 
HETATM   37  C37 BCR D 405     -36.325 132.037  11.202  1.00 28.05     0.048 C 
HETATM   38  C38 BCR D 405     -36.848 129.938   6.493  1.00 30.33     0.044 C 
HETATM   39  C39 BCR D 405     -32.332 130.108   7.868  1.00 30.14     0.020 C 
HETATM   40  C40 BCR D 405     -33.231 128.322   9.291  1.00 30.12     0.020 C 
ENDROOT
TORSDOF 10
