REMARK VINA RESULT:    -7.547      2.633     16.526
REMARK INTER + INTRA:         -10.972
REMARK INTER:                  -8.438
REMARK INTRA:                  -2.534
REMARK UNBOUND:                -3.425
REMARK  0 active torsions:
REMARK  status: ('A' for Active; 'I' for Inactive)
REMARK       I    between atoms: C6_6  and  C7_7 
REMARK       I    between atoms: C8_8  and  C9_9 
REMARK       I    between atoms: C10_10  and  C11_11 
REMARK       I    between atoms: C12_16  and  C13_17 
REMARK       I    between atoms: C14_18  and  C15_19 
REMARK       I    between atoms: C16_20  and  C17_21 
REMARK       I    between atoms: C18_22  and  C19_23 
REMARK       I    between atoms: C20_24  and  C21_25 
REMARK       I    between atoms: C22_26  and  C23_27 
REMARK       I    between atoms: C24_28  and  C25_29 
ROOT
HETATM    1  C1  BCR B 618     -32.216 129.970   7.527  1.00 32.17    -0.020 C 
HETATM    2  C2  BCR B 618     -31.402 128.863   6.866  1.00 31.21     0.014 C 
HETATM    3  C3  BCR B 618     -31.972 128.502   5.505  1.00 25.40     0.005 C 
HETATM    4  C4  BCR B 618     -33.383 127.945   5.644  1.00 32.46     0.034 C 
HETATM    5  C5  BCR B 618     -34.216 128.754   6.622  1.00 24.06    -0.077 C 
HETATM    6  C6  BCR B 618     -33.702 129.664   7.483  1.00 29.25    -0.048 C 
HETATM    7  C7  BCR B 618     -34.596 130.398   8.423  1.00 12.74     0.009 C 
HETATM    8  C8  BCR B 618     -35.185 131.573   8.122  1.00 19.92     0.007 C 
HETATM    9  C9  BCR B 618     -36.089 132.287   9.073  1.00 18.47    -0.062 C 
HETATM   10  C10 BCR B 618     -36.685 133.447   8.716  1.00 19.37     0.007 C 
HETATM   11  C11 BCR B 618     -37.616 134.211   9.569  1.00 24.83     0.001 C 
HETATM   12  C33 BCR B 618     -35.686 128.470   6.606  1.00 28.03     0.044 C 
HETATM   13  C31 BCR B 618     -31.967 131.301   6.819  1.00 29.30     0.020 C 
HETATM   14  C32 BCR B 618     -31.762 130.094   8.975  1.00 21.79     0.020 C 
HETATM   15  C34 BCR B 618     -36.363 131.702  10.429  1.00 26.35     0.048 C 
HETATM   16  C12 BCR B 618     -38.241 135.309   9.077  1.00 21.16     0.007 C 
HETATM   17  C13 BCR B 618     -39.227 136.125   9.846  1.00 24.62    -0.062 C 
HETATM   18  C14 BCR B 618     -39.787 137.235   9.286  1.00 15.54     0.007 C 
HETATM   19  C15 BCR B 618     -40.807 138.109   9.926  1.00 12.82     0.001 C 
HETATM   20  C16 BCR B 618     -41.358 139.164   9.274  1.00 24.30     0.001 C 
HETATM   21  C17 BCR B 618     -42.415 140.010   9.883  1.00 16.13     0.007 C 
HETATM   22  C18 BCR B 618     -43.127 140.955   9.210  1.00 18.31    -0.062 C 
HETATM   23  C19 BCR B 618     -44.199 141.726   9.900  1.00 25.80     0.007 C 
HETATM   24  C20 BCR B 618     -45.062 142.565   9.295  1.00 23.93     0.001 C 
HETATM   25  C21 BCR B 618     -46.053 143.221  10.155  1.00 21.34     0.007 C 
HETATM   26  C22 BCR B 618     -47.100 143.967   9.765  1.00 23.72    -0.062 C 
HETATM   27  C23 BCR B 618     -47.924 144.503  10.718  1.00 17.58     0.007 C 
HETATM   28  C24 BCR B 618     -49.002 145.269  10.437  1.00 13.80     0.009 C 
HETATM   29  C25 BCR B 618     -49.918 145.891  11.445  1.00 25.70    -0.048 C 
HETATM   30  C26 BCR B 618     -50.568 145.171  12.397  1.00 16.18    -0.077 C 
HETATM   31  C27 BCR B 618     -51.491 145.807  13.425  1.00 28.93     0.034 C 
HETATM   32  C28 BCR B 618     -51.933 147.205  13.031  1.00 35.11     0.005 C 
HETATM   33  C29 BCR B 618     -50.757 148.039  12.562  1.00 27.97     0.014 C 
HETATM   34  C30 BCR B 618     -50.105 147.405  11.338  1.00 27.33    -0.020 C 
HETATM   35  C35 BCR B 618     -39.615 135.655  11.227  1.00 11.92     0.048 C 
HETATM   36  C36 BCR B 618     -42.843 141.267   7.770  1.00 19.38     0.048 C 
HETATM   37  C37 BCR B 618     -47.317 144.226   8.300  1.00 13.28     0.048 C 
HETATM   38  C38 BCR B 618     -50.415 143.683  12.540  1.00 17.46     0.044 C 
HETATM   39  C39 BCR B 618     -48.743 148.061  11.180  1.00 25.99     0.020 C 
HETATM   40  C40 BCR B 618     -50.934 147.745  10.106  1.00 23.14     0.020 C 
ENDROOT
TORSDOF 10
