REMARK VINA RESULT:    -9.997      1.895     16.108
REMARK INTER + INTRA:         -10.278
REMARK INTER:                  -8.514
REMARK INTRA:                  -1.764
REMARK UNBOUND:                -0.281
REMARK  0 active torsions:
REMARK  status: ('A' for Active; 'I' for Inactive)
REMARK       I    between atoms: C6_6  and  C7_7 
REMARK       I    between atoms: C8_8  and  C9_9 
REMARK       I    between atoms: C10_10  and  C11_11 
REMARK       I    between atoms: C12_16  and  C13_17 
REMARK       I    between atoms: C14_18  and  C15_19 
REMARK       I    between atoms: C16_20  and  C17_21 
REMARK       I    between atoms: C18_22  and  C19_23 
REMARK       I    between atoms: C20_24  and  C21_25 
REMARK       I    between atoms: C22_26  and  C23_27 
REMARK       I    between atoms: C24_28  and  C25_29 
ROOT
HETATM    1  C1  BCR F 101     -33.640 129.206   8.040  1.00 41.36    -0.020 C 
HETATM    2  C2  BCR F 101     -32.167 128.842   7.978  1.00 46.22     0.014 C 
HETATM    3  C3  BCR F 101     -31.455 129.539   6.861  1.00 40.40     0.005 C 
HETATM    4  C4  BCR F 101     -31.602 131.027   7.004  1.00 37.04     0.034 C 
HETATM    5  C5  BCR F 101     -33.033 131.406   7.097  1.00 43.37    -0.077 C 
HETATM    6  C6  BCR F 101     -33.963 130.583   7.583  1.00 36.67    -0.048 C 
HETATM    7  C7  BCR F 101     -35.364 130.946   7.662  1.00 37.51     0.009 C 
HETATM    8  C8  BCR F 101     -35.759 131.928   8.458  1.00 40.99     0.007 C 
HETATM    9  C9  BCR F 101     -37.124 132.402   8.459  1.00 37.99    -0.062 C 
HETATM   10  C10 BCR F 101     -37.371 133.596   9.012  1.00 32.67     0.007 C 
HETATM   11  C11 BCR F 101     -38.671 134.230   9.124  1.00 30.31     0.001 C 
HETATM   12  C33 BCR F 101     -33.345 132.778   6.579  1.00 36.33     0.044 C 
HETATM   13  C31 BCR F 101     -34.084 129.007   9.462  1.00 51.06     0.020 C 
HETATM   14  C32 BCR F 101     -34.404 128.180   7.223  1.00 43.35     0.020 C 
HETATM   15  C34 BCR F 101     -38.086 131.646   7.629  1.00 39.55     0.048 C 
HETATM   16  C12 BCR F 101     -38.741 135.476   9.625  1.00 29.21     0.007 C 
HETATM   17  C13 BCR F 101     -39.964 136.245   9.662  1.00 31.53    -0.062 C 
HETATM   18  C14 BCR F 101     -39.881 137.569   9.836  1.00 36.47     0.007 C 
HETATM   19  C15 BCR F 101     -41.001 138.460  10.059  1.00 33.10     0.001 C 
HETATM   20  C16 BCR F 101     -40.768 139.743  10.419  1.00 33.82     0.001 C 
HETATM   21  C17 BCR F 101     -41.836 140.722  10.305  1.00 36.91     0.007 C 
HETATM   22  C18 BCR F 101     -41.779 142.054  10.493  1.00 32.34    -0.062 C 
HETATM   23  C19 BCR F 101     -42.983 142.825  10.244  1.00 30.12     0.007 C 
HETATM   24  C20 BCR F 101     -43.034 144.157  10.368  1.00 37.50     0.001 C 
HETATM   25  C21 BCR F 101     -44.127 144.914   9.789  1.00 38.83     0.007 C 
HETATM   26  C22 BCR F 101     -44.423 146.202  10.060  1.00 38.49    -0.062 C 
HETATM   27  C23 BCR F 101     -45.675 146.756   9.597  1.00 39.36     0.007 C 
HETATM   28  C24 BCR F 101     -46.134 147.933  10.043  1.00 56.86     0.009 C 
HETATM   29  C25 BCR F 101     -47.166 148.731   9.388  1.00 57.44    -0.048 C 
HETATM   30  C26 BCR F 101     -46.870 149.896   8.821  1.00 61.92    -0.077 C 
HETATM   31  C27 BCR F 101     -47.838 150.748   8.127  1.00 63.69     0.034 C 
HETATM   32  C28 BCR F 101     -48.892 149.860   7.530  1.00 63.72     0.005 C 
HETATM   33  C29 BCR F 101     -49.538 149.110   8.656  1.00 59.25     0.014 C 
HETATM   34  C30 BCR F 101     -48.572 148.214   9.404  1.00 65.60    -0.020 C 
HETATM   35  C35 BCR F 101     -41.190 135.639   9.091  1.00 33.23     0.048 C 
HETATM   36  C36 BCR F 101     -40.538 142.806  10.739  1.00 21.57     0.048 C 
HETATM   37  C37 BCR F 101     -43.429 147.153  10.575  1.00 27.86     0.048 C 
HETATM   38  C38 BCR F 101     -45.508 150.465   8.797  1.00 68.49     0.044 C 
HETATM   39  C39 BCR F 101     -48.650 146.799   8.863  1.00 75.29     0.020 C 
HETATM   40  C40 BCR F 101     -49.109 148.172  10.832  1.00 67.84     0.020 C 
ENDROOT
TORSDOF 10
