REMARK VINA RESULT:    -7.794      1.544     16.454
REMARK INTER + INTRA:         -10.510
REMARK INTER:                  -4.861
REMARK INTRA:                  -5.650
REMARK UNBOUND:                -2.716
REMARK  0 active torsions:
REMARK  status: ('A' for Active; 'I' for Inactive)
REMARK       I    between atoms: C6_6  and  C7_7 
REMARK       I    between atoms: C8_8  and  C9_9 
REMARK       I    between atoms: C10_10  and  C11_11 
REMARK       I    between atoms: C12_16  and  C13_17 
REMARK       I    between atoms: C14_18  and  C15_19 
REMARK       I    between atoms: C16_20  and  C17_21 
REMARK       I    between atoms: C18_22  and  C19_23 
REMARK       I    between atoms: C20_24  and  C21_25 
REMARK       I    between atoms: C22_26  and  C23_27 
REMARK       I    between atoms: C24_28  and  C25_29 
ROOT
HETATM    1  C1  BCR B 617     -50.597 150.350   9.816  1.00 16.64    -0.020 C 
HETATM    2  C2  BCR B 617     -51.537 151.349  10.458  1.00 16.66     0.014 C 
HETATM    3  C3  BCR B 617     -51.905 150.928  11.845  1.00 16.67     0.005 C 
HETATM    4  C4  BCR B 617     -52.600 149.596  11.820  1.00 16.65     0.034 C 
HETATM    5  C5  BCR B 617     -51.900 148.613  10.964  1.00 16.64    -0.077 C 
HETATM    6  C6  BCR B 617     -50.969 148.922  10.055  1.00 16.61    -0.048 C 
HETATM    7  C7  BCR B 617     -50.312 147.906   9.211  1.00 16.52     0.009 C 
HETATM    8  C8  BCR B 617     -49.216 147.241   9.578  1.00 16.42     0.007 C 
HETATM    9  C9  BCR B 617     -48.495 146.327   8.712  1.00 16.35    -0.062 C 
HETATM   10  C10 BCR B 617     -47.463 145.625   9.194  1.00 16.25     0.007 C 
HETATM   11  C11 BCR B 617     -46.884 144.458   8.574  1.00 16.13     0.001 C 
HETATM   12  C33 BCR B 617     -52.326 147.229  11.233  1.00 16.67     0.044 C 
HETATM   13  C31 BCR B 617     -49.215 150.685  10.341  1.00 16.64     0.020 C 
HETATM   14  C32 BCR B 617     -50.625 150.629   8.330  1.00 16.66     0.020 C 
HETATM   15  C34 BCR B 617     -48.895 146.256   7.299  1.00 16.38     0.048 C 
HETATM   16  C12 BCR B 617     -45.649 144.057   8.916  1.00 15.96     0.007 C 
HETATM   17  C13 BCR B 617     -45.027 142.827   8.481  1.00 15.83    -0.062 C 
HETATM   18  C14 BCR B 617     -43.904 142.411   9.089  1.00 15.70     0.007 C 
HETATM   19  C15 BCR B 617     -43.354 141.081   9.016  1.00 15.54     0.001 C 
HETATM   20  C16 BCR B 617     -42.242 140.750   9.689  1.00 15.40     0.001 C 
HETATM   21  C17 BCR B 617     -41.584 139.495   9.412  1.00 15.27     0.007 C 
HETATM   22  C18 BCR B 617     -40.588 138.904  10.089  1.00 15.19    -0.062 C 
HETATM   23  C19 BCR B 617     -40.048 137.653   9.579  1.00 15.12     0.007 C 
HETATM   24  C20 BCR B 617     -39.123 136.931  10.212  1.00 15.10     0.001 C 
HETATM   25  C21 BCR B 617     -38.768 135.636   9.687  1.00 15.07     0.007 C 
HETATM   26  C22 BCR B 617     -37.907 134.747  10.200  1.00 15.07    -0.062 C 
HETATM   27  C23 BCR B 617     -37.426 133.710   9.309  1.00 15.08     0.007 C 
HETATM   28  C24 BCR B 617     -36.977 132.503   9.672  1.00 15.19     0.009 C 
HETATM   29  C25 BCR B 617     -36.347 131.502   8.802  1.00 15.27    -0.048 C 
HETATM   30  C26 BCR B 617     -37.029 130.767   7.907  1.00 15.33    -0.077 C 
HETATM   31  C27 BCR B 617     -36.451 129.743   7.013  1.00 15.37     0.034 C 
HETATM   32  C28 BCR B 617     -34.992 129.999   6.750  1.00 15.36     0.005 C 
HETATM   33  C29 BCR B 617     -34.260 130.264   8.036  1.00 15.31     0.014 C 
HETATM   34  C30 BCR B 617     -34.855 131.310   8.960  1.00 15.29    -0.020 C 
HETATM   35  C35 BCR B 617     -45.545 142.144   7.283  1.00 15.82     0.048 C 
HETATM   36  C36 BCR B 617     -40.078 139.403  11.383  1.00 15.16     0.048 C 
HETATM   37  C37 BCR B 617     -37.640 134.642  11.647  1.00 15.01     0.048 C 
HETATM   38  C38 BCR B 617     -38.488 130.853   7.661  1.00 15.36     0.044 C 
HETATM   39  C39 BCR B 617     -34.092 132.620   8.818  1.00 15.27     0.020 C 
HETATM   40  C40 BCR B 617     -34.512 130.774  10.341  1.00 15.28     0.020 C 
ENDROOT
TORSDOF 10
