REMARK VINA RESULT:    -9.407      0.000      0.000
REMARK INTER + INTRA:         -15.374
REMARK INTER:                  -9.407
REMARK INTRA:                  -5.967
REMARK UNBOUND:                -5.967
REMARK  0 active torsions:
REMARK  status: ('A' for Active; 'I' for Inactive)
REMARK       I    between atoms: C6_6  and  C7_7 
REMARK       I    between atoms: C8_8  and  C9_9 
REMARK       I    between atoms: C10_10  and  C11_11 
REMARK       I    between atoms: C12_16  and  C13_17 
REMARK       I    between atoms: C14_18  and  C15_19 
REMARK       I    between atoms: C16_20  and  C17_21 
REMARK       I    between atoms: C18_22  and  C19_23 
REMARK       I    between atoms: C20_24  and  C21_25 
REMARK       I    between atoms: C22_26  and  C23_27 
REMARK       I    between atoms: C24_28  and  C25_29 
ROOT
HETATM    1  C1  BCR B 618     -50.313 149.920  11.212  1.00 32.08    -0.020 C 
HETATM    2  C2  BCR B 618     -51.600 150.636  10.817  1.00 32.02     0.014 C 
HETATM    3  C3  BCR B 618     -52.564 149.763  10.035  1.00 30.00     0.005 C 
HETATM    4  C4  BCR B 618     -51.878 148.917   8.976  1.00 29.70     0.034 C 
HETATM    5  C5  BCR B 618     -50.429 149.302   8.893  1.00 32.08    -0.077 C 
HETATM    6  C6  BCR B 618     -49.706 149.280  10.003  1.00 29.52    -0.048 C 
HETATM    7  C7  BCR B 618     -48.370 148.669  10.105  1.00 26.64     0.009 C 
HETATM    8  C8  BCR B 618     -47.996 147.585   9.443  1.00 26.25     0.007 C 
HETATM    9  C9  BCR B 618     -46.624 147.079   9.637  1.00 28.38    -0.062 C 
HETATM   10  C10 BCR B 618     -46.343 145.803   9.376  1.00 28.10     0.007 C 
HETATM   11  C11 BCR B 618     -45.031 145.201   9.552  1.00 22.97     0.001 C 
HETATM   12  C33 BCR B 618     -49.867 149.755   7.585  1.00 36.33     0.044 C 
HETATM   13  C31 BCR B 618     -50.555 148.845  12.260  1.00 29.12     0.020 C 
HETATM   14  C32 BCR B 618     -49.344 150.952  11.742  1.00 31.50     0.020 C 
HETATM   15  C34 BCR B 618     -45.549 147.997  10.110  1.00 24.68     0.048 C 
HETATM   16  C12 BCR B 618     -44.923 143.958   9.113  1.00 27.25     0.007 C 
HETATM   17  C13 BCR B 618     -43.718 143.128   9.203  1.00 24.75    -0.062 C 
HETATM   18  C14 BCR B 618     -43.737 141.901   8.683  1.00 20.67     0.007 C 
HETATM   19  C15 BCR B 618     -42.585 141.028   8.791  1.00 20.47     0.001 C 
HETATM   20  C16 BCR B 618     -42.713 139.749   8.482  1.00 22.70     0.001 C 
HETATM   21  C17 BCR B 618     -41.587 138.855   8.637  1.00 22.25     0.007 C 
HETATM   22  C18 BCR B 618     -41.613 137.587   8.224  1.00 26.36    -0.062 C 
HETATM   23  C19 BCR B 618     -40.436 136.740   8.466  1.00 25.59     0.007 C 
HETATM   24  C20 BCR B 618     -40.319 135.497   8.025  1.00 24.27     0.001 C 
HETATM   25  C21 BCR B 618     -39.102 134.798   8.389  1.00 23.38     0.007 C 
HETATM   26  C22 BCR B 618     -38.818 133.534   8.066  1.00 27.07    -0.062 C 
HETATM   27  C23 BCR B 618     -37.544 132.965   8.548  1.00 25.86     0.007 C 
HETATM   28  C24 BCR B 618     -37.289 131.660   8.616  1.00 25.72     0.009 C 
HETATM   29  C25 BCR B 618     -36.010 131.129   9.149  1.00 30.28    -0.048 C 
HETATM   30  C26 BCR B 618     -35.837 131.070  10.470  1.00 31.25    -0.077 C 
HETATM   31  C27 BCR B 618     -34.757 130.214  11.059  1.00 29.22     0.034 C 
HETATM   32  C28 BCR B 618     -33.496 130.496  10.284  1.00 25.82     0.005 C 
HETATM   33  C29 BCR B 618     -33.712 130.000   8.876  1.00 26.07     0.014 C 
HETATM   34  C30 BCR B 618     -34.936 130.625   8.209  1.00 28.46    -0.020 C 
HETATM   35  C35 BCR B 618     -42.498 143.634   9.900  1.00 18.72     0.048 C 
HETATM   36  C36 BCR B 618     -42.821 137.027   7.550  1.00 23.59     0.048 C 
HETATM   37  C37 BCR B 618     -39.770 132.721   7.256  1.00 34.23     0.048 C 
HETATM   38  C38 BCR B 618     -36.690 131.840  11.425  1.00 29.70     0.044 C 
HETATM   39  C39 BCR B 618     -35.543 129.547   7.331  1.00 35.43     0.020 C 
HETATM   40  C40 BCR B 618     -34.466 131.793   7.371  1.00 25.20     0.020 C 
ENDROOT
TORSDOF 10
