REMARK VINA RESULT:   -10.624      2.447     16.433
REMARK INTER + INTRA:         -13.100
REMARK INTER:                 -10.855
REMARK INTRA:                  -2.245
REMARK UNBOUND:                -2.477
REMARK  0 active torsions:
REMARK  status: ('A' for Active; 'I' for Inactive)
REMARK       I    between atoms: C6_6  and  C7_7 
REMARK       I    between atoms: C8_8  and  C9_9 
REMARK       I    between atoms: C10_10  and  C11_11 
REMARK       I    between atoms: C12_16  and  C13_17 
REMARK       I    between atoms: C14_18  and  C15_19 
REMARK       I    between atoms: C16_20  and  C17_21 
REMARK       I    between atoms: C18_22  and  C19_23 
REMARK       I    between atoms: C20_24  and  C21_25 
REMARK       I    between atoms: C22_26  and  C23_27 
REMARK       I    between atoms: C24_28  and  C25_29 
ROOT
HETATM    1  C1  BCR A 411     -50.926 145.990   8.838  1.00 34.05    -0.020 C 
HETATM    2  C2  BCR A 411     -51.868 146.919   9.611  1.00 36.23     0.014 C 
HETATM    3  C3  BCR A 411     -51.473 147.010  11.078  1.00 33.07     0.005 C 
HETATM    4  C4  BCR A 411     -50.088 147.647  11.213  1.00 33.10     0.034 C 
HETATM    5  C5  BCR A 411     -49.081 146.973  10.269  1.00 30.69    -0.077 C 
HETATM    6  C6  BCR A 411     -49.467 146.262   9.184  1.00 30.04    -0.048 C 
HETATM    7  C7  BCR A 411     -48.439 145.635   8.284  1.00 26.76     0.009 C 
HETATM    8  C8  BCR A 411     -47.667 144.639   8.801  1.00 27.28     0.007 C 
HETATM    9  C9  BCR A 411     -46.659 143.920   7.976  1.00 28.08    -0.062 C 
HETATM   10  C10 BCR A 411     -45.884 142.975   8.593  1.00 26.21     0.007 C 
HETATM   11  C11 BCR A 411     -44.895 142.179   7.872  1.00 26.20     0.001 C 
HETATM   12  C33 BCR A 411     -47.637 147.252  10.550  1.00 31.19     0.044 C 
HETATM   13  C31 BCR A 411     -51.135 146.212   7.322  1.00 32.76     0.020 C 
HETATM   14  C32 BCR A 411     -51.308 144.550   9.176  1.00 29.01     0.020 C 
HETATM   15  C34 BCR A 411     -46.597 144.238   6.488  1.00 27.13     0.048 C 
HETATM   16  C12 BCR A 411     -44.299 141.140   8.515  1.00 25.91     0.007 C 
HETATM   17  C13 BCR A 411     -43.254 140.247   7.922  1.00 28.13    -0.062 C 
HETATM   18  C14 BCR A 411     -42.774 139.226   8.663  1.00 26.80     0.007 C 
HETATM   19  C15 BCR A 411     -41.769 138.234   8.214  1.00 23.65     0.001 C 
HETATM   20  C16 BCR A 411     -41.259 137.344   9.088  1.00 25.01     0.001 C 
HETATM   21  C17 BCR A 411     -40.345 136.334   8.533  1.00 24.87     0.007 C 
HETATM   22  C18 BCR A 411     -39.822 135.271   9.194  1.00 26.74    -0.062 C 
HETATM   23  C19 BCR A 411     -38.924 134.326   8.458  1.00 22.57     0.007 C 
HETATM   24  C20 BCR A 411     -38.088 133.504   9.057  1.00 21.95     0.001 C 
HETATM   25  C21 BCR A 411     -37.237 132.610   8.261  1.00 26.44     0.007 C 
HETATM   26  C22 BCR A 411     -36.202 131.911   8.768  1.00 26.69    -0.062 C 
HETATM   27  C23 BCR A 411     -35.416 131.053   7.840  1.00 22.74     0.007 C 
HETATM   28  C24 BCR A 411     -34.267 130.450   8.220  1.00 21.39     0.009 C 
HETATM   29  C25 BCR A 411     -33.459 129.630   7.289  1.00 21.80    -0.048 C 
HETATM   30  C26 BCR A 411     -34.049 128.583   6.638  1.00 24.09    -0.077 C 
HETATM   31  C27 BCR A 411     -33.382 127.654   5.616  1.00 21.42     0.034 C 
HETATM   32  C28 BCR A 411     -32.057 128.287   5.150  1.00 25.08     0.005 C 
HETATM   33  C29 BCR A 411     -31.273 128.863   6.365  1.00 24.49     0.014 C 
HETATM   34  C30 BCR A 411     -31.984 130.006   7.118  1.00 24.42    -0.020 C 
HETATM   35  C35 BCR A 411     -42.690 140.480   6.527  1.00 27.87     0.048 C 
HETATM   36  C36 BCR A 411     -40.055 135.047  10.660  1.00 23.84     0.048 C 
HETATM   37  C37 BCR A 411     -35.793 132.017  10.238  1.00 27.51     0.048 C 
HETATM   38  C38 BCR A 411     -35.479 128.180   6.853  1.00 22.20     0.044 C 
HETATM   39  C39 BCR A 411     -31.856 131.392   6.428  1.00 24.11     0.020 C 
HETATM   40  C40 BCR A 411     -31.317 130.119   8.489  1.00 24.62     0.020 C 
ENDROOT
TORSDOF 10
