REMARK VINA RESULT:    -6.282      0.000      0.000
REMARK INTER + INTRA:          -9.861
REMARK INTER:                  -6.282
REMARK INTRA:                  -3.579
REMARK UNBOUND:                -3.579
REMARK  0 active torsions:
REMARK  status: ('A' for Active; 'I' for Inactive)
REMARK       I    between atoms: C6_6  and  C7_7 
REMARK       I    between atoms: C8_8  and  C9_9 
REMARK       I    between atoms: C10_10  and  C11_11 
REMARK       I    between atoms: C12_16  and  C13_17 
REMARK       I    between atoms: C14_18  and  C15_19 
REMARK       I    between atoms: C16_20  and  C17_21 
REMARK       I    between atoms: C18_22  and  C19_23 
REMARK       I    between atoms: C20_24  and  C21_25 
REMARK       I    between atoms: C22_26  and  C23_27 
REMARK       I    between atoms: C24_28  and  C25_29 
ROOT
HETATM    1  C1  BCR D 405     -50.349 146.491   9.511  1.00 30.90    -0.020 C 
HETATM    2  C2  BCR D 405     -51.805 146.730   9.919  1.00 31.78     0.014 C 
HETATM    3  C3  BCR D 405     -52.584 145.681  10.702  1.00 29.69     0.005 C 
HETATM    4  C4  BCR D 405     -52.039 144.248  10.694  1.00 26.40     0.034 C 
HETATM    5  C5  BCR D 405     -50.727 144.022   9.996  1.00 27.97    -0.077 C 
HETATM    6  C6  BCR D 405     -49.948 145.017   9.465  1.00 28.25    -0.048 C 
HETATM    7  C7  BCR D 405     -48.669 144.643   8.787  1.00 24.92     0.009 C 
HETATM    8  C8  BCR D 405     -47.602 144.164   9.431  1.00 24.70     0.007 C 
HETATM    9  C9  BCR D 405     -46.444 143.827   8.597  1.00 24.75    -0.062 C 
HETATM   10  C10 BCR D 405     -45.532 143.009   9.127  1.00 26.58     0.007 C 
HETATM   11  C11 BCR D 405     -44.336 142.484   8.457  1.00 22.57     0.001 C 
HETATM   12  C33 BCR D 405     -50.312 142.559   9.915  1.00 27.23     0.044 C 
HETATM   13  C31 BCR D 405     -49.373 147.293  10.390  1.00 32.44     0.020 C 
HETATM   14  C32 BCR D 405     -50.270 147.132   8.138  1.00 32.88     0.020 C 
HETATM   15  C34 BCR D 405     -46.310 144.363   7.193  1.00 25.55     0.048 C 
HETATM   16  C12 BCR D 405     -43.601 141.622   9.180  1.00 23.06     0.007 C 
HETATM   17  C13 BCR D 405     -42.383 140.888   8.661  1.00 24.15    -0.062 C 
HETATM   18  C14 BCR D 405     -41.788 139.958   9.471  1.00 24.94     0.007 C 
HETATM   19  C15 BCR D 405     -40.674 139.076   9.100  1.00 25.20     0.001 C 
HETATM   20  C16 BCR D 405     -40.258 138.052   9.853  1.00 27.04     0.001 C 
HETATM   21  C17 BCR D 405     -39.245 137.104   9.344  1.00 26.38     0.007 C 
HETATM   22  C18 BCR D 405     -38.831 135.990   9.994  1.00 26.16    -0.062 C 
HETATM   23  C19 BCR D 405     -37.843 135.122   9.275  1.00 24.55     0.007 C 
HETATM   24  C20 BCR D 405     -37.353 133.964   9.744  1.00 27.03     0.001 C 
HETATM   25  C21 BCR D 405     -36.443 133.129   8.897  1.00 28.88     0.007 C 
HETATM   26  C22 BCR D 405     -35.841 131.947   9.259  1.00 32.91    -0.062 C 
HETATM   27  C23 BCR D 405     -34.993 131.236   8.266  1.00 38.29     0.007 C 
HETATM   28  C24 BCR D 405     -35.086 129.894   8.160  1.00 46.67     0.009 C 
HETATM   29  C25 BCR D 405     -34.341 129.043   7.171  1.00 51.60    -0.048 C 
HETATM   30  C26 BCR D 405     -34.836 128.894   5.934  1.00 54.27    -0.077 C 
HETATM   31  C27 BCR D 405     -34.149 128.054   4.877  1.00 55.15     0.034 C 
HETATM   32  C28 BCR D 405     -32.648 128.111   5.098  1.00 54.99     0.005 C 
HETATM   33  C29 BCR D 405     -32.424 127.494   6.462  1.00 54.48     0.014 C 
HETATM   34  C30 BCR D 405     -33.091 128.312   7.569  1.00 50.68    -0.020 C 
HETATM   35  C35 BCR D 405     -41.864 141.168   7.258  1.00 28.63     0.048 C 
HETATM   36  C36 BCR D 405     -39.420 135.638  11.352  1.00 26.41     0.048 C 
HETATM   37  C37 BCR D 405     -35.993 131.318  10.626  1.00 31.00     0.048 C 
HETATM   38  C38 BCR D 405     -36.101 129.595   5.545  1.00 57.74     0.044 C 
HETATM   39  C39 BCR D 405     -32.063 129.302   8.100  1.00 54.20     0.020 C 
HETATM   40  C40 BCR D 405     -33.579 127.363   8.656  1.00 48.16     0.020 C 
ENDROOT
TORSDOF 10
