REMARK VINA RESULT:    -6.262      2.105     16.566
REMARK INTER + INTRA:         -13.186
REMARK INTER:                 -10.834
REMARK INTRA:                  -2.352
REMARK UNBOUND:                -6.924
REMARK  0 active torsions:
REMARK  status: ('A' for Active; 'I' for Inactive)
REMARK       I    between atoms: C6_6  and  C7_7 
REMARK       I    between atoms: C8_8  and  C9_9 
REMARK       I    between atoms: C10_10  and  C11_11 
REMARK       I    between atoms: C12_16  and  C13_17 
REMARK       I    between atoms: C14_18  and  C15_19 
REMARK       I    between atoms: C16_20  and  C17_21 
REMARK       I    between atoms: C18_22  and  C19_23 
REMARK       I    between atoms: C20_24  and  C21_25 
REMARK       I    between atoms: C22_26  and  C23_27 
REMARK       I    between atoms: C24_28  and  C25_29 
ROOT
HETATM    1  C1  BCR A 610     -50.908 146.091   8.886  1.00 29.59    -0.020 C 
HETATM    2  C2  BCR A 610     -51.858 146.991   9.639  1.00 31.72     0.014 C 
HETATM    3  C3  BCR A 610     -51.510 146.991  11.100  1.00 27.94     0.005 C 
HETATM    4  C4  BCR A 610     -50.091 147.520  11.289  1.00 32.43     0.034 C 
HETATM    5  C5  BCR A 610     -49.084 146.895  10.350  1.00 29.29    -0.077 C 
HETATM    6  C6  BCR A 610     -49.447 146.278   9.235  1.00 25.73    -0.048 C 
HETATM    7  C7  BCR A 610     -48.451 145.568   8.358  1.00 25.66     0.009 C 
HETATM    8  C8  BCR A 610     -47.506 144.788   8.917  1.00 28.04     0.007 C 
HETATM    9  C9  BCR A 610     -46.600 143.957   8.073  1.00 26.85    -0.062 C 
HETATM   10  C10 BCR A 610     -45.837 142.991   8.639  1.00 26.33     0.007 C 
HETATM   11  C11 BCR A 610     -44.951 142.103   7.874  1.00 27.36     0.001 C 
HETATM   12  C33 BCR A 610     -47.684 147.209  10.682  1.00 35.13     0.044 C 
HETATM   13  C31 BCR A 610     -51.119 146.380   7.437  1.00 31.88     0.020 C 
HETATM   14  C32 BCR A 610     -51.275 144.636   9.206  1.00 31.60     0.020 C 
HETATM   15  C34 BCR A 610     -46.602 144.237   6.587  1.00 29.30     0.048 C 
HETATM   16  C12 BCR A 610     -44.189 141.207   8.543  1.00 26.07     0.007 C 
HETATM   17  C13 BCR A 610     -43.213 140.270   7.942  1.00 27.88    -0.062 C 
HETATM   18  C14 BCR A 610     -42.659 139.322   8.762  1.00 26.29     0.007 C 
HETATM   19  C15 BCR A 610     -41.739 138.274   8.301  1.00 24.17     0.001 C 
HETATM   20  C16 BCR A 610     -41.276 137.310   9.113  1.00 25.06     0.001 C 
HETATM   21  C17 BCR A 610     -40.408 136.283   8.547  1.00 23.08     0.007 C 
HETATM   22  C18 BCR A 610     -39.840 135.235   9.212  1.00 25.47    -0.062 C 
HETATM   23  C19 BCR A 610     -38.959 134.272   8.506  1.00 24.27     0.007 C 
HETATM   24  C20 BCR A 610     -38.044 133.523   9.098  1.00 22.34     0.001 C 
HETATM   25  C21 BCR A 610     -37.199 132.601   8.280  1.00 26.05     0.007 C 
HETATM   26  C22 BCR A 610     -36.139 131.877   8.812  1.00 27.30    -0.062 C 
HETATM   27  C23 BCR A 610     -35.349 131.000   7.873  1.00 23.16     0.007 C 
HETATM   28  C24 BCR A 610     -34.243 130.382   8.257  1.00 21.54     0.009 C 
HETATM   29  C25 BCR A 610     -33.440 129.627   7.316  1.00 21.54    -0.048 C 
HETATM   30  C26 BCR A 610     -34.033 128.652   6.589  1.00 20.62    -0.077 C 
HETATM   31  C27 BCR A 610     -33.310 127.776   5.574  1.00 20.11     0.034 C 
HETATM   32  C28 BCR A 610     -31.974 128.396   5.221  1.00 24.80     0.005 C 
HETATM   33  C29 BCR A 610     -31.247 128.893   6.480  1.00 24.65     0.014 C 
HETATM   34  C30 BCR A 610     -31.981 130.004   7.207  1.00 22.24    -0.020 C 
HETATM   35  C35 BCR A 610     -42.859 140.500   6.492  1.00 33.62     0.048 C 
HETATM   36  C36 BCR A 610     -40.081 135.017  10.660  1.00 23.31     0.048 C 
HETATM   37  C37 BCR A 610     -35.819 131.979  10.298  1.00 28.25     0.048 C 
HETATM   38  C38 BCR A 610     -35.422 128.186   6.852  1.00 20.57     0.044 C 
HETATM   39  C39 BCR A 610     -31.944 131.341   6.441  1.00 24.02     0.020 C 
HETATM   40  C40 BCR A 610     -31.379 130.120   8.558  1.00 22.78     0.020 C 
ENDROOT
TORSDOF 10
