REMARK VINA RESULT:    -7.100      2.504      4.707
REMARK INTER + INTRA:         -13.982
REMARK INTER:                 -10.150
REMARK INTRA:                  -3.832
REMARK UNBOUND:                -6.882
REMARK  0 active torsions:
REMARK  status: ('A' for Active; 'I' for Inactive)
REMARK       I    between atoms: C6_6  and  C7_7 
REMARK       I    between atoms: C8_8  and  C9_9 
REMARK       I    between atoms: C10_10  and  C11_11 
REMARK       I    between atoms: C12_16  and  C13_17 
REMARK       I    between atoms: C14_18  and  C15_19 
REMARK       I    between atoms: C16_20  and  C17_21 
REMARK       I    between atoms: C18_22  and  C19_23 
REMARK       I    between atoms: C20_24  and  C21_25 
REMARK       I    between atoms: C22_26  and  C23_27 
REMARK       I    between atoms: C24_28  and  C25_29 
ROOT
HETATM    1  C1  BCR C 514     -34.765 126.858   5.978  1.00 46.03    -0.020 C 
HETATM    2  C2  BCR C 514     -33.606 125.976   5.607  1.00 36.42     0.014 C 
HETATM    3  C3  BCR C 514     -32.472 126.787   5.084  1.00 38.25     0.005 C 
HETATM    4  C4  BCR C 514     -31.996 127.725   6.153  1.00 35.91     0.034 C 
HETATM    5  C5  BCR C 514     -33.114 128.401   6.852  1.00 46.41    -0.077 C 
HETATM    6  C6  BCR C 514     -34.389 128.036   6.780  1.00 48.24    -0.048 C 
HETATM    7  C7  BCR C 514     -35.490 128.691   7.498  1.00 37.95     0.009 C 
HETATM    8  C8  BCR C 514     -35.941 129.915   7.223  1.00 29.80     0.007 C 
HETATM    9  C9  BCR C 514     -37.122 130.526   7.866  1.00 34.42    -0.062 C 
HETATM   10  C10 BCR C 514     -37.400 131.838   7.739  1.00 30.24     0.007 C 
HETATM   11  C11 BCR C 514     -38.568 132.508   8.275  1.00 33.35     0.001 C 
HETATM   12  C33 BCR C 514     -32.678 129.544   7.664  1.00 46.30     0.044 C 
HETATM   13  C31 BCR C 514     -35.673 125.973   6.781  1.00 39.84     0.020 C 
HETATM   14  C32 BCR C 514     -35.452 127.333   4.713  1.00 53.07     0.020 C 
HETATM   15  C34 BCR C 514     -38.001 129.674   8.690  1.00 30.46     0.048 C 
HETATM   16  C12 BCR C 514     -38.875 133.735   7.836  1.00 34.08     0.007 C 
HETATM   17  C13 BCR C 514     -39.812 134.666   8.444  1.00 43.06    -0.062 C 
HETATM   18  C14 BCR C 514     -40.176 135.768   7.753  1.00 44.33     0.007 C 
HETATM   19  C15 BCR C 514     -41.427 136.474   7.936  1.00 30.45     0.001 C 
HETATM   20  C16 BCR C 514     -41.486 137.803   7.854  1.00 31.93     0.001 C 
HETATM   21  C17 BCR C 514     -42.772 138.454   8.024  1.00 33.60     0.007 C 
HETATM   22  C18 BCR C 514     -43.169 139.598   7.431  1.00 30.74    -0.062 C 
HETATM   23  C19 BCR C 514     -43.946 140.564   8.183  1.00 33.81     0.007 C 
HETATM   24  C20 BCR C 514     -44.600 141.595   7.643  1.00 33.30     0.001 C 
HETATM   25  C21 BCR C 514     -45.561 142.302   8.465  1.00 26.27     0.007 C 
HETATM   26  C22 BCR C 514     -46.271 143.412   8.154  1.00 33.99    -0.062 C 
HETATM   27  C23 BCR C 514     -47.072 144.003   9.232  1.00 36.02     0.007 C 
HETATM   28  C24 BCR C 514     -47.631 145.223   9.220  1.00 32.82     0.009 C 
HETATM   29  C25 BCR C 514     -48.522 145.730  10.267  1.00 23.72    -0.048 C 
HETATM   30  C26 BCR C 514     -49.761 145.265  10.418  1.00 28.89    -0.077 C 
HETATM   31  C27 BCR C 514     -50.733 145.716  11.445  1.00 31.77     0.034 C 
HETATM   32  C28 BCR C 514     -50.074 146.463  12.582  1.00 32.56     0.005 C 
HETATM   33  C29 BCR C 514     -49.050 147.431  12.066  1.00 35.64     0.014 C 
HETATM   34  C30 BCR C 514     -47.984 146.786  11.186  1.00 36.04    -0.020 C 
HETATM   35  C35 BCR C 514     -40.629 134.235   9.600  1.00 31.96     0.048 C 
HETATM   36  C36 BCR C 514     -42.544 140.048   6.183  1.00 34.59     0.048 C 
HETATM   37  C37 BCR C 514     -46.012 144.224   6.928  1.00 38.91     0.048 C 
HETATM   38  C38 BCR C 514     -50.332 144.208   9.544  1.00 31.74     0.044 C 
HETATM   39  C39 BCR C 514     -46.900 146.192  12.055  1.00 32.31     0.020 C 
HETATM   40  C40 BCR C 514     -47.331 147.936  10.421  1.00 36.49     0.020 C 
ENDROOT
TORSDOF 10
