REMARK VINA RESULT:   -10.367      0.000      0.000
REMARK INTER + INTRA:         -12.821
REMARK INTER:                 -10.367
REMARK INTRA:                  -2.454
REMARK UNBOUND:                -2.454
REMARK  0 active torsions:
REMARK  status: ('A' for Active; 'I' for Inactive)
REMARK       I    between atoms: C6_6  and  C7_7 
REMARK       I    between atoms: C8_8  and  C9_9 
REMARK       I    between atoms: C10_10  and  C11_11 
REMARK       I    between atoms: C12_16  and  C13_17 
REMARK       I    between atoms: C14_18  and  C15_19 
REMARK       I    between atoms: C16_20  and  C17_21 
REMARK       I    between atoms: C18_22  and  C19_23 
REMARK       I    between atoms: C20_24  and  C21_25 
REMARK       I    between atoms: C22_26  and  C23_27 
REMARK       I    between atoms: C24_28  and  C25_29 
ROOT
HETATM    1  C1  BCR C 514     -48.954 147.934   9.702  1.00 38.04    -0.020 C 
HETATM    2  C2  BCR C 514     -50.125 148.781  10.171  1.00 38.20     0.014 C 
HETATM    3  C3  BCR C 514     -50.975 148.068  11.207  1.00 33.25     0.005 C 
HETATM    4  C4  BCR C 514     -51.405 146.690  10.782  1.00 36.16     0.034 C 
HETATM    5  C5  BCR C 514     -50.422 145.911   9.952  1.00 38.48    -0.077 C 
HETATM    6  C6  BCR C 514     -49.308 146.481   9.449  1.00 37.46    -0.048 C 
HETATM    7  C7  BCR C 514     -48.344 145.714   8.618  1.00 42.89     0.009 C 
HETATM    8  C8  BCR C 514     -47.740 144.613   9.062  1.00 44.19     0.007 C 
HETATM    9  C9  BCR C 514     -46.756 143.887   8.232  1.00 46.71    -0.062 C 
HETATM   10  C10 BCR C 514     -46.057 142.917   8.833  1.00 41.97     0.007 C 
HETATM   11  C11 BCR C 514     -45.029 142.130   8.144  1.00 40.92     0.001 C 
HETATM   12  C33 BCR C 514     -50.790 144.479   9.696  1.00 41.56     0.044 C 
HETATM   13  C31 BCR C 514     -47.856 148.005  10.787  1.00 35.33     0.020 C 
HETATM   14  C32 BCR C 514     -48.518 148.587   8.377  1.00 38.77     0.020 C 
HETATM   15  C34 BCR C 514     -46.567 144.225   6.762  1.00 44.98     0.048 C 
HETATM   16  C12 BCR C 514     -44.642 140.961   8.669  1.00 44.53     0.007 C 
HETATM   17  C13 BCR C 514     -43.617 140.113   8.037  1.00 45.51    -0.062 C 
HETATM   18  C14 BCR C 514     -42.999 139.181   8.809  1.00 43.91     0.007 C 
HETATM   19  C15 BCR C 514     -41.959 138.248   8.333  1.00 44.35     0.001 C 
HETATM   20  C16 BCR C 514     -41.593 137.202   9.076  1.00 42.58     0.001 C 
HETATM   21  C17 BCR C 514     -40.569 136.246   8.646  1.00 41.40     0.007 C 
HETATM   22  C18 BCR C 514     -39.804 135.430   9.424  1.00 40.94    -0.062 C 
HETATM   23  C19 BCR C 514     -38.813 134.565   8.721  1.00 41.16     0.007 C 
HETATM   24  C20 BCR C 514     -38.188 133.520   9.269  1.00 41.17     0.001 C 
HETATM   25  C21 BCR C 514     -37.203 132.753   8.495  1.00 43.08     0.007 C 
HETATM   26  C22 BCR C 514     -36.187 132.022   9.042  1.00 46.47    -0.062 C 
HETATM   27  C23 BCR C 514     -35.313 131.315   8.061  1.00 43.42     0.007 C 
HETATM   28  C24 BCR C 514     -34.426 130.351   8.367  1.00 46.58     0.009 C 
HETATM   29  C25 BCR C 514     -33.583 129.637   7.348  1.00 45.04    -0.048 C 
HETATM   30  C26 BCR C 514     -34.112 128.637   6.586  1.00 43.97    -0.077 C 
HETATM   31  C27 BCR C 514     -33.327 127.833   5.535  1.00 42.37     0.034 C 
HETATM   32  C28 BCR C 514     -31.992 128.493   5.184  1.00 45.24     0.005 C 
HETATM   33  C29 BCR C 514     -31.274 129.082   6.397  1.00 45.27     0.014 C 
HETATM   34  C30 BCR C 514     -32.116 130.038   7.243  1.00 46.36    -0.020 C 
HETATM   35  C35 BCR C 514     -43.338 140.296   6.564  1.00 43.98     0.048 C 
HETATM   36  C36 BCR C 514     -39.850 135.397  10.940  1.00 37.85     0.048 C 
HETATM   37  C37 BCR C 514     -35.961 131.908  10.555  1.00 36.78     0.048 C 
HETATM   38  C38 BCR C 514     -35.543 128.219   6.704  1.00 35.37     0.044 C 
HETATM   39  C39 BCR C 514     -31.983 131.467   6.705  1.00 44.38     0.020 C 
HETATM   40  C40 BCR C 514     -31.546 129.979   8.661  1.00 45.05     0.020 C 
ENDROOT
TORSDOF 10
