REMARK VINA RESULT:    -5.988      2.170     16.459
REMARK INTER + INTRA:         -10.561
REMARK INTER:                  -7.580
REMARK INTRA:                  -2.981
REMARK UNBOUND:                -4.573
REMARK  0 active torsions:
REMARK  status: ('A' for Active; 'I' for Inactive)
REMARK       I    between atoms: C6_6  and  C7_7 
REMARK       I    between atoms: C8_8  and  C9_9 
REMARK       I    between atoms: C10_10  and  C11_11 
REMARK       I    between atoms: C12_16  and  C13_17 
REMARK       I    between atoms: C14_18  and  C15_19 
REMARK       I    between atoms: C16_20  and  C17_21 
REMARK       I    between atoms: C18_22  and  C19_23 
REMARK       I    between atoms: C20_24  and  C21_25 
REMARK       I    between atoms: C22_26  and  C23_27 
REMARK       I    between atoms: C24_28  and  C25_29 
ROOT
HETATM    1  C1  BCR C 514     -33.892 127.222   7.410  1.00 35.58    -0.020 C 
HETATM    2  C2  BCR C 514     -33.026 126.276   6.647  1.00 41.22     0.014 C 
HETATM    3  C3  BCR C 514     -32.421 126.848   5.399  1.00 43.51     0.005 C 
HETATM    4  C4  BCR C 514     -33.446 127.455   4.477  1.00 41.68     0.034 C 
HETATM    5  C5  BCR C 514     -34.619 128.100   5.180  1.00 42.53    -0.077 C 
HETATM    6  C6  BCR C 514     -34.865 127.946   6.510  1.00 37.16    -0.048 C 
HETATM    7  C7  BCR C 514     -36.031 128.580   7.144  1.00 40.52     0.009 C 
HETATM    8  C8  BCR C 514     -36.137 129.921   7.091  1.00 40.92     0.007 C 
HETATM    9  C9  BCR C 514     -37.259 130.607   7.832  1.00 42.01    -0.062 C 
HETATM   10  C10 BCR C 514     -37.313 131.912   7.808  1.00 37.28     0.007 C 
HETATM   11  C11 BCR C 514     -38.383 132.686   8.462  1.00 41.23     0.001 C 
HETATM   12  C33 BCR C 514     -35.584 128.717   4.215  1.00 40.30     0.044 C 
HETATM   13  C31 BCR C 514     -32.990 128.303   7.991  1.00 39.42     0.020 C 
HETATM   14  C32 BCR C 514     -34.649 126.373   8.462  1.00 41.23     0.020 C 
HETATM   15  C34 BCR C 514     -38.352 129.807   8.511  1.00 46.73     0.048 C 
HETATM   16  C12 BCR C 514     -38.417 134.014   8.349  1.00 43.50     0.007 C 
HETATM   17  C13 BCR C 514     -39.465 134.866   8.913  1.00 41.12    -0.062 C 
HETATM   18  C14 BCR C 514     -39.363 136.207   8.755  1.00 37.55     0.007 C 
HETATM   19  C15 BCR C 514     -40.363 137.201   9.261  1.00 39.88     0.001 C 
HETATM   20  C16 BCR C 514     -40.144 138.512   9.124  1.00 39.12     0.001 C 
HETATM   21  C17 BCR C 514     -41.098 139.513   9.585  1.00 41.68     0.007 C 
HETATM   22  C18 BCR C 514     -40.961 140.868   9.661  1.00 39.37    -0.062 C 
HETATM   23  C19 BCR C 514     -42.097 141.681  10.198  1.00 44.12     0.007 C 
HETATM   24  C20 BCR C 514     -42.065 143.022  10.376  1.00 37.68     0.001 C 
HETATM   25  C21 BCR C 514     -43.248 143.716  10.934  1.00 39.34     0.007 C 
HETATM   26  C22 BCR C 514     -43.200 145.029  11.303  1.00 42.90    -0.062 C 
HETATM   27  C23 BCR C 514     -44.452 145.613  11.870  1.00 39.44     0.007 C 
HETATM   28  C24 BCR C 514     -44.435 146.909  12.360  1.00 55.37     0.009 C 
HETATM   29  C25 BCR C 514     -45.706 147.332  12.998  1.00 47.75    -0.048 C 
HETATM   30  C26 BCR C 514     -46.869 147.045  12.446  1.00 47.05    -0.077 C 
HETATM   31  C27 BCR C 514     -48.091 146.893  13.286  1.00 57.69     0.034 C 
HETATM   32  C28 BCR C 514     -48.259 148.171  14.030  1.00 50.11     0.005 C 
HETATM   33  C29 BCR C 514     -46.999 148.593  14.772  1.00 48.72     0.014 C 
HETATM   34  C30 BCR C 514     -45.698 147.908  14.380  1.00 46.83    -0.020 C 
HETATM   35  C35 BCR C 514     -40.650 134.203   9.550  1.00 42.11     0.048 C 
HETATM   36  C36 BCR C 514     -39.720 141.540   9.175  1.00 38.24     0.048 C 
HETATM   37  C37 BCR C 514     -41.973 145.871  11.061  1.00 31.50     0.048 C 
HETATM   38  C38 BCR C 514     -47.122 146.958  10.990  1.00 38.56     0.044 C 
HETATM   39  C39 BCR C 514     -45.438 146.722  15.328  1.00 46.44     0.020 C 
HETATM   40  C40 BCR C 514     -44.545 148.897  14.473  1.00 48.77     0.020 C 
ENDROOT
TORSDOF 10
