REMARK VINA RESULT:    -8.617      1.022     16.524
REMARK INTER + INTRA:         -10.919
REMARK INTER:                  -6.509
REMARK INTRA:                  -4.410
REMARK UNBOUND:                -2.302
REMARK  0 active torsions:
REMARK  status: ('A' for Active; 'I' for Inactive)
REMARK       I    between atoms: C6_6  and  C7_7 
REMARK       I    between atoms: C8_8  and  C9_9 
REMARK       I    between atoms: C10_10  and  C11_11 
REMARK       I    between atoms: C12_16  and  C13_17 
REMARK       I    between atoms: C14_18  and  C15_19 
REMARK       I    between atoms: C16_20  and  C17_21 
REMARK       I    between atoms: C18_22  and  C19_23 
REMARK       I    between atoms: C20_24  and  C21_25 
REMARK       I    between atoms: C22_26  and  C23_27 
REMARK       I    between atoms: C24_28  and  C25_29 
ROOT
HETATM    1  C1  BCR C 515     -32.516 129.112   6.868  1.00 43.74    -0.020 C 
HETATM    2  C2  BCR C 515     -31.721 128.066   6.098  1.00 33.04     0.014 C 
HETATM    3  C3  BCR C 515     -32.418 127.720   4.797  1.00 39.49     0.005 C 
HETATM    4  C4  BCR C 515     -33.770 127.101   5.092  1.00 35.85     0.034 C 
HETATM    5  C5  BCR C 515     -34.597 128.010   5.970  1.00 30.47    -0.077 C 
HETATM    6  C6  BCR C 515     -34.032 128.925   6.784  1.00 45.08    -0.048 C 
HETATM    7  C7  BCR C 515     -34.883 129.799   7.646  1.00 35.93     0.009 C 
HETATM    8  C8  BCR C 515     -35.704 130.773   7.222  1.00 40.16     0.007 C 
HETATM    9  C9  BCR C 515     -36.496 131.564   8.201  1.00 37.91    -0.062 C 
HETATM   10  C10 BCR C 515     -37.445 132.432   7.778  1.00 40.13     0.007 C 
HETATM   11  C11 BCR C 515     -38.274 133.267   8.669  1.00 37.53     0.001 C 
HETATM   12  C33 BCR C 515     -36.090 127.833   5.894  1.00 32.24     0.044 C 
HETATM   13  C31 BCR C 515     -32.185 130.477   6.285  1.00 38.68     0.020 C 
HETATM   14  C32 BCR C 515     -32.056 129.049   8.322  1.00 37.12     0.020 C 
HETATM   15  C34 BCR C 515     -36.226 131.391   9.668  1.00 53.32     0.048 C 
HETATM   16  C12 BCR C 515     -39.168 134.116   8.131  1.00 49.88     0.007 C 
HETATM   17  C13 BCR C 515     -40.058 135.008   8.922  1.00 44.94    -0.062 C 
HETATM   18  C14 BCR C 515     -40.905 135.858   8.281  1.00 48.13     0.007 C 
HETATM   19  C15 BCR C 515     -41.837 136.789   8.952  1.00 45.78     0.001 C 
HETATM   20  C16 BCR C 515     -42.666 137.586   8.248  1.00 42.98     0.001 C 
HETATM   21  C17 BCR C 515     -43.609 138.514   8.889  1.00 35.18     0.007 C 
HETATM   22  C18 BCR C 515     -44.332 139.461   8.234  1.00 46.37    -0.062 C 
HETATM   23  C19 BCR C 515     -45.242 140.339   9.015  1.00 46.12     0.007 C 
HETATM   24  C20 BCR C 515     -45.895 141.386   8.496  1.00 39.74     0.001 C 
HETATM   25  C21 BCR C 515     -46.754 142.175   9.388  1.00 40.38     0.007 C 
HETATM   26  C22 BCR C 515     -47.348 143.343   9.059  1.00 42.03    -0.062 C 
HETATM   27  C23 BCR C 515     -48.104 143.953   9.999  1.00 46.40     0.007 C 
HETATM   28  C24 BCR C 515     -48.893 145.022   9.778  1.00 51.13     0.009 C 
HETATM   29  C25 BCR C 515     -49.700 145.645  10.872  1.00 38.87    -0.048 C 
HETATM   30  C26 BCR C 515     -50.813 145.047  11.342  1.00 44.05    -0.077 C 
HETATM   31  C27 BCR C 515     -51.667 145.636  12.455  1.00 33.55     0.034 C 
HETATM   32  C28 BCR C 515     -50.970 146.774  13.189  1.00 33.51     0.005 C 
HETATM   33  C29 BCR C 515     -50.333 147.707  12.175  1.00 35.48     0.014 C 
HETATM   34  C30 BCR C 515     -49.225 146.968  11.437  1.00 38.75    -0.020 C 
HETATM   35  C35 BCR C 515     -39.997 134.960  10.420  1.00 34.72     0.048 C 
HETATM   36  C36 BCR C 515     -44.228 139.663   6.743  1.00 29.10     0.048 C 
HETATM   37  C37 BCR C 515     -47.178 143.946   7.688  1.00 29.31     0.048 C 
HETATM   38  C38 BCR C 515     -51.276 143.732  10.775  1.00 41.01     0.044 C 
HETATM   39  C39 BCR C 515     -48.094 146.682  12.418  1.00 38.61     0.020 C 
HETATM   40  C40 BCR C 515     -48.723 147.838  10.295  1.00 30.77     0.020 C 
ENDROOT
TORSDOF 10
