REMARK VINA RESULT:    -6.033      2.489      4.948
REMARK INTER + INTRA:         -12.966
REMARK INTER:                 -10.669
REMARK INTRA:                  -2.297
REMARK UNBOUND:                -6.933
REMARK  0 active torsions:
REMARK  status: ('A' for Active; 'I' for Inactive)
REMARK       I    between atoms: C6_6  and  C7_7 
REMARK       I    between atoms: C8_8  and  C9_9 
REMARK       I    between atoms: C10_10  and  C11_11 
REMARK       I    between atoms: C12_16  and  C13_17 
REMARK       I    between atoms: C14_18  and  C15_19 
REMARK       I    between atoms: C16_20  and  C17_21 
REMARK       I    between atoms: C18_22  and  C19_23 
REMARK       I    between atoms: C20_24  and  C21_25 
REMARK       I    between atoms: C22_26  and  C23_27 
REMARK       I    between atoms: C24_28  and  C25_29 
ROOT
HETATM    1  C1  BCR C 516     -34.040 126.917   6.794  1.00 26.01    -0.020 C 
HETATM    2  C2  BCR C 516     -33.049 126.176   5.924  1.00 26.00     0.014 C 
HETATM    3  C3  BCR C 516     -32.488 127.064   4.857  1.00 26.01     0.005 C 
HETATM    4  C4  BCR C 516     -31.770 128.218   5.500  1.00 26.06     0.034 C 
HETATM    5  C5  BCR C 516     -32.651 128.925   6.451  1.00 26.05    -0.077 C 
HETATM    6  C6  BCR C 516     -33.711 128.361   7.043  1.00 25.99    -0.048 C 
HETATM    7  C7  BCR C 516     -34.576 129.088   7.981  1.00 25.93     0.009 C 
HETATM    8  C8  BCR C 516     -35.532 129.954   7.615  1.00 25.79     0.007 C 
HETATM    9  C9  BCR C 516     -36.095 130.955   8.499  1.00 25.69    -0.062 C 
HETATM   10  C10 BCR C 516     -36.903 131.898   7.996  1.00 25.62     0.007 C 
HETATM   11  C11 BCR C 516     -37.405 133.013   8.766  1.00 25.56     0.001 C 
HETATM   12  C33 BCR C 516     -32.244 130.328   6.669  1.00 26.12     0.044 C 
HETATM   13  C31 BCR C 516     -34.078 126.144   8.095  1.00 25.98     0.020 C 
HETATM   14  C32 BCR C 516     -35.378 126.780   6.101  1.00 26.02     0.020 C 
HETATM   15  C34 BCR C 516     -35.993 130.705   9.945  1.00 25.63     0.048 C 
HETATM   16  C12 BCR C 516     -38.288 133.877   8.255  1.00 25.46     0.007 C 
HETATM   17  C13 BCR C 516     -39.060 134.820   9.038  1.00 25.42    -0.062 C 
HETATM   18  C14 BCR C 516     -39.887 135.677   8.420  1.00 25.36     0.007 C 
HETATM   19  C15 BCR C 516     -40.801 136.585   9.073  1.00 25.30     0.001 C 
HETATM   20  C16 BCR C 516     -41.632 137.367   8.363  1.00 25.21     0.001 C 
HETATM   21  C17 BCR C 516     -42.551 138.252   9.041  1.00 25.08     0.007 C 
HETATM   22  C18 BCR C 516     -43.471 139.063   8.496  1.00 24.90    -0.062 C 
HETATM   23  C19 BCR C 516     -43.939 140.201   9.275  1.00 24.65     0.007 C 
HETATM   24  C20 BCR C 516     -44.977 140.981   8.961  1.00 24.34     0.001 C 
HETATM   25  C21 BCR C 516     -45.280 142.088   9.837  1.00 24.01     0.007 C 
HETATM   26  C22 BCR C 516     -46.112 143.111   9.615  1.00 23.78    -0.062 C 
HETATM   27  C23 BCR C 516     -46.319 144.047  10.715  1.00 23.53     0.007 C 
HETATM   28  C24 BCR C 516     -47.139 145.105  10.712  1.00 23.23     0.009 C 
HETATM   29  C25 BCR C 516     -47.323 146.058  11.811  1.00 23.01    -0.048 C 
HETATM   30  C26 BCR C 516     -48.082 145.793  12.884  1.00 22.93    -0.077 C 
HETATM   31  C27 BCR C 516     -48.327 146.688  14.037  1.00 22.89     0.034 C 
HETATM   32  C28 BCR C 516     -47.362 147.839  14.101  1.00 22.87     0.005 C 
HETATM   33  C29 BCR C 516     -47.114 148.390  12.732  1.00 22.93     0.014 C 
HETATM   34  C30 BCR C 516     -46.607 147.377  11.719  1.00 22.97    -0.020 C 
HETATM   35  C35 BCR C 516     -38.709 135.008  10.453  1.00 25.42     0.048 C 
HETATM   36  C36 BCR C 516     -43.994 138.861   7.132  1.00 24.91     0.048 C 
HETATM   37  C37 BCR C 516     -46.453 143.507   8.233  1.00 23.74     0.048 C 
HETATM   38  C38 BCR C 516     -48.839 144.543  13.074  1.00 22.86     0.044 C 
HETATM   39  C39 BCR C 516     -45.107 147.211  11.847  1.00 22.94     0.020 C 
HETATM   40  C40 BCR C 516     -46.843 148.061  10.378  1.00 22.96     0.020 C 
ENDROOT
TORSDOF 10
