REMARK VINA RESULT:    -7.921      0.000      0.000
REMARK INTER + INTRA:         -14.662
REMARK INTER:                  -7.921
REMARK INTRA:                  -6.741
REMARK UNBOUND:                -6.741
REMARK  0 active torsions:
REMARK  status: ('A' for Active; 'I' for Inactive)
REMARK       I    between atoms: C6_6  and  C7_7 
REMARK       I    between atoms: C8_8  and  C9_9 
REMARK       I    between atoms: C10_10  and  C11_11 
REMARK       I    between atoms: C12_16  and  C13_17 
REMARK       I    between atoms: C14_18  and  C15_19 
REMARK       I    between atoms: C16_20  and  C17_21 
REMARK       I    between atoms: C18_22  and  C19_23 
REMARK       I    between atoms: C20_24  and  C21_25 
REMARK       I    between atoms: C22_26  and  C23_27 
REMARK       I    between atoms: C24_28  and  C25_29 
ROOT
HETATM    1  C1  BCR A 409     -34.799 130.820   8.126  1.00 29.94    -0.020 C 
HETATM    2  C2  BCR A 409     -33.639 129.977   8.667  1.00 30.88     0.014 C 
HETATM    3  C3  BCR A 409     -33.203 130.366  10.069  1.00 32.43     0.005 C 
HETATM    4  C4  BCR A 409     -34.388 130.128  10.993  1.00 29.61     0.034 C 
HETATM    5  C5  BCR A 409     -35.682 130.751  10.478  1.00 28.91    -0.077 C 
HETATM    6  C6  BCR A 409     -35.860 131.064   9.178  1.00 28.39    -0.048 C 
HETATM    7  C7  BCR A 409     -37.137 131.678   8.670  1.00 26.60     0.009 C 
HETATM    8  C8  BCR A 409     -37.565 132.879   9.133  1.00 26.69     0.007 C 
HETATM    9  C9  BCR A 409     -38.819 133.506   8.582  1.00 26.50    -0.062 C 
HETATM   10  C10 BCR A 409     -39.124 134.762   9.021  1.00 23.70     0.007 C 
HETATM   11  C11 BCR A 409     -40.294 135.570   8.628  1.00 23.45     0.001 C 
HETATM   12  C33 BCR A 409     -36.743 130.992  11.518  1.00 28.66     0.044 C 
HETATM   13  C31 BCR A 409     -35.405 130.039   6.949  1.00 29.02     0.020 C 
HETATM   14  C32 BCR A 409     -34.268 132.137   7.541  1.00 26.94     0.020 C 
HETATM   15  C34 BCR A 409     -39.637 132.745   7.554  1.00 25.47     0.048 C 
HETATM   16  C12 BCR A 409     -40.342 136.833   9.146  1.00 22.47     0.007 C 
HETATM   17  C13 BCR A 409     -41.427 137.786   8.861  1.00 24.00    -0.062 C 
HETATM   18  C14 BCR A 409     -41.333 139.055   9.299  1.00 23.35     0.007 C 
HETATM   19  C15 BCR A 409     -42.359 140.108   9.066  1.00 23.49     0.001 C 
HETATM   20  C16 BCR A 409     -42.248 141.319   9.666  1.00 21.92     0.001 C 
HETATM   21  C17 BCR A 409     -43.254 142.322   9.320  1.00 20.40     0.007 C 
HETATM   22  C18 BCR A 409     -43.266 143.635   9.656  1.00 24.23    -0.062 C 
HETATM   23  C19 BCR A 409     -44.397 144.495   9.120  1.00 21.16     0.007 C 
HETATM   24  C20 BCR A 409     -44.656 145.670   9.670  1.00 20.36     0.001 C 
HETATM   25  C21 BCR A 409     -45.766 146.510   9.255  1.00 21.69     0.007 C 
HETATM   26  C22 BCR A 409     -46.326 147.563   9.888  1.00 22.36    -0.062 C 
HETATM   27  C23 BCR A 409     -47.453 148.279   9.207  1.00 21.97     0.007 C 
HETATM   28  C24 BCR A 409     -48.150 149.262   9.802  1.00 20.30     0.009 C 
HETATM   29  C25 BCR A 409     -49.277 149.960   9.151  1.00 19.83    -0.048 C 
HETATM   30  C26 BCR A 409     -49.090 150.619   7.960  1.00 20.22    -0.077 C 
HETATM   31  C27 BCR A 409     -50.195 151.350   7.205  1.00 20.64     0.034 C 
HETATM   32  C28 BCR A 409     -51.561 150.850   7.696  1.00 22.68     0.005 C 
HETATM   33  C29 BCR A 409     -51.592 150.978   9.223  1.00 20.94     0.014 C 
HETATM   34  C30 BCR A 409     -50.617 149.967   9.870  1.00 20.28    -0.020 C 
HETATM   35  C35 BCR A 409     -42.649 137.296   8.121  1.00 25.40     0.048 C 
HETATM   36  C36 BCR A 409     -42.235 144.225  10.601  1.00 22.76     0.048 C 
HETATM   37  C37 BCR A 409     -45.901 148.090  11.231  1.00 25.07     0.048 C 
HETATM   38  C38 BCR A 409     -47.739 150.658   7.333  1.00 20.82     0.044 C 
HETATM   39  C39 BCR A 409     -51.177 148.554   9.771  1.00 22.71     0.020 C 
HETATM   40  C40 BCR A 409     -50.424 150.368  11.348  1.00 21.64     0.020 C 
ENDROOT
TORSDOF 10
