REMARK VINA RESULT:    -6.018      2.075     16.566
REMARK INTER + INTRA:         -12.759
REMARK INTER:                 -10.451
REMARK INTRA:                  -2.308
REMARK UNBOUND:                -6.741
REMARK  0 active torsions:
REMARK  status: ('A' for Active; 'I' for Inactive)
REMARK       I    between atoms: C6_6  and  C7_7 
REMARK       I    between atoms: C8_8  and  C9_9 
REMARK       I    between atoms: C10_10  and  C11_11 
REMARK       I    between atoms: C12_16  and  C13_17 
REMARK       I    between atoms: C14_18  and  C15_19 
REMARK       I    between atoms: C16_20  and  C17_21 
REMARK       I    between atoms: C18_22  and  C19_23 
REMARK       I    between atoms: C20_24  and  C21_25 
REMARK       I    between atoms: C22_26  and  C23_27 
REMARK       I    between atoms: C24_28  and  C25_29 
ROOT
HETATM    1  C1  BCR A 409     -50.932 146.086   8.934  1.00 29.94    -0.020 C 
HETATM    2  C2  BCR A 409     -51.872 146.978   9.751  1.00 30.88     0.014 C 
HETATM    3  C3  BCR A 409     -51.497 147.079  11.219  1.00 32.43     0.005 C 
HETATM    4  C4  BCR A 409     -50.116 147.714  11.290  1.00 29.61     0.034 C 
HETATM    5  C5  BCR A 409     -49.103 147.045  10.366  1.00 28.91    -0.077 C 
HETATM    6  C6  BCR A 409     -49.480 146.307   9.302  1.00 28.39    -0.048 C 
HETATM    7  C7  BCR A 409     -48.480 145.648   8.389  1.00 26.60     0.009 C 
HETATM    8  C8  BCR A 409     -47.610 144.723   8.863  1.00 26.69     0.007 C 
HETATM    9  C9  BCR A 409     -46.646 144.035   7.931  1.00 26.50    -0.062 C 
HETATM   10  C10 BCR A 409     -45.877 143.040   8.464  1.00 23.70     0.007 C 
HETATM   11  C11 BCR A 409     -44.868 142.233   7.752  1.00 23.45     0.001 C 
HETATM   12  C33 BCR A 409     -47.658 147.265  10.723  1.00 28.66     0.044 C 
HETATM   13  C31 BCR A 409     -51.153 146.444   7.456  1.00 29.02     0.020 C 
HETATM   14  C32 BCR A 409     -51.337 144.613   9.086  1.00 26.94     0.020 C 
HETATM   15  C34 BCR A 409     -46.612 144.442   6.469  1.00 25.47     0.048 C 
HETATM   16  C12 BCR A 409     -44.280 141.241   8.484  1.00 22.47     0.007 C 
HETATM   17  C13 BCR A 409     -43.258 140.332   7.943  1.00 24.00    -0.062 C 
HETATM   18  C14 BCR A 409     -42.826 139.295   8.686  1.00 23.35     0.007 C 
HETATM   19  C15 BCR A 409     -41.805 138.306   8.245  1.00 23.49     0.001 C 
HETATM   20  C16 BCR A 409     -41.327 137.380   9.112  1.00 21.92     0.001 C 
HETATM   21  C17 BCR A 409     -40.388 136.396   8.576  1.00 20.40     0.007 C 
HETATM   22  C18 BCR A 409     -39.903 135.290   9.192  1.00 24.23    -0.062 C 
HETATM   23  C19 BCR A 409     -38.981 134.381   8.398  1.00 21.16     0.007 C 
HETATM   24  C20 BCR A 409     -38.219 133.499   9.024  1.00 20.36     0.001 C 
HETATM   25  C21 BCR A 409     -37.263 132.649   8.334  1.00 21.69     0.007 C 
HETATM   26  C22 BCR A 409     -36.237 131.931   8.838  1.00 22.36    -0.062 C 
HETATM   27  C23 BCR A 409     -35.421 131.105   7.890  1.00 21.97     0.007 C 
HETATM   28  C24 BCR A 409     -34.312 130.449   8.273  1.00 20.30     0.009 C 
HETATM   29  C25 BCR A 409     -33.487 129.651   7.345  1.00 19.83    -0.048 C 
HETATM   30  C26 BCR A 409     -34.040 128.602   6.651  1.00 20.22    -0.077 C 
HETATM   31  C27 BCR A 409     -33.273 127.734   5.659  1.00 20.64     0.034 C 
HETATM   32  C28 BCR A 409     -32.003 128.473   5.214  1.00 22.68     0.005 C 
HETATM   33  C29 BCR A 409     -31.235 128.895   6.472  1.00 20.94     0.014 C 
HETATM   34  C30 BCR A 409     -32.009 129.996   7.234  1.00 20.28    -0.020 C 
HETATM   35  C35 BCR A 409     -42.681 140.616   6.577  1.00 25.40     0.048 C 
HETATM   36  C36 BCR A 409     -40.198 134.998  10.652  1.00 22.76     0.048 C 
HETATM   37  C37 BCR A 409     -35.846 131.883  10.289  1.00 25.07     0.048 C 
HETATM   38  C38 BCR A 409     -35.472 128.246   6.855  1.00 20.82     0.044 C 
HETATM   39  C39 BCR A 409     -31.921 131.320   6.486  1.00 22.71     0.020 C 
HETATM   40  C40 BCR A 409     -31.388 130.129   8.641  1.00 21.64     0.020 C 
ENDROOT
TORSDOF 10
