REMARK VINA RESULT:    -8.028      0.000      0.000
REMARK INTER + INTRA:         -12.309
REMARK INTER:                  -8.028
REMARK INTRA:                  -4.280
REMARK UNBOUND:                -4.280
REMARK  0 active torsions:
REMARK  status: ('A' for Active; 'I' for Inactive)
REMARK       I    between atoms: C6_6  and  C7_7 
REMARK       I    between atoms: C8_8  and  C9_9 
REMARK       I    between atoms: C10_10  and  C11_11 
REMARK       I    between atoms: C12_16  and  C13_17 
REMARK       I    between atoms: C14_18  and  C15_19 
REMARK       I    between atoms: C16_20  and  C17_21 
REMARK       I    between atoms: C18_22  and  C19_23 
REMARK       I    between atoms: C20_24  and  C21_25 
REMARK       I    between atoms: C22_26  and  C23_27 
REMARK       I    between atoms: C24_28  and  C25_29 
ROOT
HETATM    1  C1  BCR T 101     -34.000 128.562   5.847  1.00 41.70    -0.020 C 
HETATM    2  C2  BCR T 101     -33.099 127.513   5.206  1.00 42.78     0.014 C 
HETATM    3  C3  BCR T 101     -32.512 126.573   6.209  1.00 41.03     0.005 C 
HETATM    4  C4  BCR T 101     -33.600 125.850   6.942  1.00 43.70     0.034 C 
HETATM    5  C5  BCR T 101     -34.716 126.740   7.327  1.00 45.79    -0.077 C 
HETATM    6  C6  BCR T 101     -34.917 127.988   6.853  1.00 40.49    -0.048 C 
HETATM    7  C7  BCR T 101     -36.095 128.772   7.262  1.00 44.14     0.009 C 
HETATM    8  C8  BCR T 101     -36.124 130.080   7.536  1.00 36.42     0.007 C 
HETATM    9  C9  BCR T 101     -37.338 130.687   8.089  1.00 37.41    -0.062 C 
HETATM   10  C10 BCR T 101     -37.612 131.966   7.797  1.00 30.62     0.007 C 
HETATM   11  C11 BCR T 101     -38.824 132.670   8.100  1.00 28.97     0.001 C 
HETATM   12  C33 BCR T 101     -35.627 126.101   8.314  1.00 43.90     0.044 C 
HETATM   13  C31 BCR T 101     -34.755 129.164   4.680  1.00 32.30     0.020 C 
HETATM   14  C32 BCR T 101     -33.156 129.639   6.512  1.00 43.93     0.020 C 
HETATM   15  C34 BCR T 101     -38.352 129.806   8.727  1.00 35.44     0.048 C 
HETATM   16  C12 BCR T 101     -38.781 134.005   8.213  1.00 28.42     0.007 C 
HETATM   17  C13 BCR T 101     -39.871 134.848   8.702  1.00 29.67    -0.062 C 
HETATM   18  C14 BCR T 101     -39.914 136.162   8.362  1.00 27.65     0.007 C 
HETATM   19  C15 BCR T 101     -40.318 137.245   9.237  1.00 28.48     0.001 C 
HETATM   20  C16 BCR T 101     -40.926 138.342   8.753  1.00 25.66     0.001 C 
HETATM   21  C17 BCR T 101     -41.064 139.550   9.538  1.00 31.53     0.007 C 
HETATM   22  C18 BCR T 101     -41.388 140.773   9.079  1.00 35.11    -0.062 C 
HETATM   23  C19 BCR T 101     -42.140 141.669   9.954  1.00 31.55     0.007 C 
HETATM   24  C20 BCR T 101     -42.026 143.003   9.934  1.00 33.30     0.001 C 
HETATM   25  C21 BCR T 101     -42.690 143.826  10.930  1.00 34.76     0.007 C 
HETATM   26  C22 BCR T 101     -42.666 145.176  11.042  1.00 38.40    -0.062 C 
HETATM   27  C23 BCR T 101     -43.085 145.748  12.323  1.00 37.30     0.007 C 
HETATM   28  C24 BCR T 101     -43.302 147.045  12.550  1.00 34.14     0.009 C 
HETATM   29  C25 BCR T 101     -43.633 147.570  13.874  1.00 34.41    -0.048 C 
HETATM   30  C26 BCR T 101     -44.685 147.123  14.559  1.00 30.82    -0.077 C 
HETATM   31  C27 BCR T 101     -45.096 147.524  15.904  1.00 38.31     0.034 C 
HETATM   32  C28 BCR T 101     -43.980 148.212  16.637  1.00 33.34     0.005 C 
HETATM   33  C29 BCR T 101     -43.380 149.234  15.742  1.00 23.88     0.014 C 
HETATM   34  C30 BCR T 101     -42.773 148.642  14.458  1.00 29.76    -0.020 C 
HETATM   35  C35 BCR T 101     -40.780 134.291   9.725  1.00 34.50     0.048 C 
HETATM   36  C36 BCR T 101     -40.921 141.276   7.767  1.00 32.52     0.048 C 
HETATM   37  C37 BCR T 101     -42.591 146.068   9.861  1.00 33.52     0.048 C 
HETATM   38  C38 BCR T 101     -45.597 146.089  14.080  1.00 36.86     0.044 C 
HETATM   39  C39 BCR T 101     -41.346 148.167  14.668  1.00 35.69     0.020 C 
HETATM   40  C40 BCR T 101     -42.671 149.815  13.502  1.00 29.24     0.020 C 
ENDROOT
TORSDOF 10
