REMARK VINA RESULT:    -7.258      1.848     16.599
REMARK INTER + INTRA:         -14.191
REMARK INTER:                 -10.056
REMARK INTRA:                  -4.135
REMARK UNBOUND:                -6.933
REMARK  0 active torsions:
REMARK  status: ('A' for Active; 'I' for Inactive)
REMARK       I    between atoms: C6_6  and  C7_7 
REMARK       I    between atoms: C8_8  and  C9_9 
REMARK       I    between atoms: C10_10  and  C11_11 
REMARK       I    between atoms: C12_16  and  C13_17 
REMARK       I    between atoms: C14_18  and  C15_19 
REMARK       I    between atoms: C16_20  and  C17_21 
REMARK       I    between atoms: C18_22  and  C19_23 
REMARK       I    between atoms: C20_24  and  C21_25 
REMARK       I    between atoms: C22_26  and  C23_27 
REMARK       I    between atoms: C24_28  and  C25_29 
ROOT
HETATM    1  C1  BCR C 516     -48.592 147.301   9.966  1.00 26.01    -0.020 C 
HETATM    2  C2  BCR C 516     -48.956 148.621  10.609  1.00 26.00     0.014 C 
HETATM    3  C3  BCR C 516     -47.813 149.177  11.399  1.00 26.01     0.005 C 
HETATM    4  C4  BCR C 516     -46.645 149.414  10.481  1.00 26.06     0.034 C 
HETATM    5  C5  BCR C 516     -46.303 148.187   9.734  1.00 26.05    -0.077 C 
HETATM    6  C6  BCR C 516     -47.169 147.192   9.502  1.00 25.99    -0.048 C 
HETATM    7  C7  BCR C 516     -46.802 145.978   8.761  1.00 25.93     0.009 C 
HETATM    8  C8  BCR C 516     -46.116 144.951   9.283  1.00 25.79     0.007 C 
HETATM    9  C9  BCR C 516     -45.412 143.965   8.487  1.00 25.69    -0.062 C 
HETATM   10  C10 BCR C 516     -44.599 143.088   9.094  1.00 25.62     0.007 C 
HETATM   11  C11 BCR C 516     -43.753 142.159   8.381  1.00 25.56     0.001 C 
HETATM   12  C33 BCR C 516     -44.897 148.169   9.283  1.00 26.12     0.044 C 
HETATM   13  C31 BCR C 516     -49.548 147.153   8.801  1.00 25.98     0.020 C 
HETATM   14  C32 BCR C 516     -48.906 146.241  10.999  1.00 26.02     0.020 C 
HETATM   15  C34 BCR C 516     -45.856 143.783   7.097  1.00 25.63     0.048 C 
HETATM   16  C12 BCR C 516     -43.032 141.233   9.023  1.00 25.46     0.007 C 
HETATM   17  C13 BCR C 516     -42.412 140.090   8.386  1.00 25.42    -0.062 C 
HETATM   18  C14 BCR C 516     -41.669 139.244   9.116  1.00 25.36     0.007 C 
HETATM   19  C15 BCR C 516     -41.093 138.006   8.644  1.00 25.30     0.001 C 
HETATM   20  C16 BCR C 516     -40.410 137.197   9.471  1.00 25.21     0.001 C 
HETATM   21  C17 BCR C 516     -39.861 135.954   8.980  1.00 25.08     0.007 C 
HETATM   22  C18 BCR C 516     -39.194 135.016   9.668  1.00 24.90    -0.062 C 
HETATM   23  C19 BCR C 516     -38.320 134.110   8.935  1.00 24.65     0.007 C 
HETATM   24  C20 BCR C 516     -37.744 133.014   9.437  1.00 24.34     0.001 C 
HETATM   25  C21 BCR C 516     -36.879 132.248   8.572  1.00 24.01     0.007 C 
HETATM   26  C22 BCR C 516     -36.038 131.263   8.906  1.00 23.78    -0.062 C 
HETATM   27  C23 BCR C 516     -35.353 130.577   7.817  1.00 23.53     0.007 C 
HETATM   28  C24 BCR C 516     -34.510 129.545   7.935  1.00 23.23     0.009 C 
HETATM   29  C25 BCR C 516     -33.803 128.876   6.838  1.00 23.01    -0.048 C 
HETATM   30  C26 BCR C 516     -34.390 127.977   6.035  1.00 22.93    -0.077 C 
HETATM   31  C27 BCR C 516     -33.761 127.253   4.908  1.00 22.89     0.034 C 
HETATM   32  C28 BCR C 516     -32.452 127.859   4.481  1.00 22.87     0.005 C 
HETATM   33  C29 BCR C 516     -31.654 128.276   5.675  1.00 22.93     0.014 C 
HETATM   34  C30 BCR C 516     -32.363 129.242   6.610  1.00 22.97    -0.020 C 
HETATM   35  C35 BCR C 516     -42.377 140.040   6.917  1.00 25.42     0.048 C 
HETATM   36  C36 BCR C 516     -39.289 134.895  11.135  1.00 24.91     0.048 C 
HETATM   37  C37 BCR C 516     -35.515 131.169  10.285  1.00 23.74     0.048 C 
HETATM   38  C38 BCR C 516     -35.788 127.533   6.173  1.00 22.86     0.044 C 
HETATM   39  C39 BCR C 516     -32.217 130.663   6.106  1.00 22.94     0.020 C 
HETATM   40  C40 BCR C 516     -31.545 129.165   7.893  1.00 22.96     0.020 C 
ENDROOT
TORSDOF 10
