REMARK VINA RESULT:    -8.050      2.753      4.708
REMARK INTER + INTRA:         -13.900
REMARK INTER:                 -11.494
REMARK INTRA:                  -2.406
REMARK UNBOUND:                -5.850
REMARK  0 active torsions:
REMARK  status: ('A' for Active; 'I' for Inactive)
REMARK       I    between atoms: C6_6  and  C7_7 
REMARK       I    between atoms: C8_8  and  C9_9 
REMARK       I    between atoms: C10_10  and  C11_11 
REMARK       I    between atoms: C12_16  and  C13_17 
REMARK       I    between atoms: C14_18  and  C15_19 
REMARK       I    between atoms: C16_20  and  C17_21 
REMARK       I    between atoms: C18_22  and  C19_23 
REMARK       I    between atoms: C20_24  and  C21_25 
REMARK       I    between atoms: C22_26  and  C23_27 
REMARK       I    between atoms: C24_28  and  C25_29 
ROOT
HETATM    1  C1  BCR B 619     -33.923 126.888   6.948  1.00 30.41    -0.020 C 
HETATM    2  C2  BCR B 619     -33.005 126.107   5.972  1.00 29.63     0.014 C 
HETATM    3  C3  BCR B 619     -32.801 126.940   4.690  1.00 28.10     0.005 C 
HETATM    4  C4  BCR B 619     -32.095 128.274   5.011  1.00 30.58     0.034 C 
HETATM    5  C5  BCR B 619     -32.705 128.995   6.210  1.00 27.72    -0.077 C 
HETATM    6  C6  BCR B 619     -33.552 128.356   7.089  1.00 26.65    -0.048 C 
HETATM    7  C7  BCR B 619     -34.211 129.096   8.212  1.00 26.32     0.009 C 
HETATM    8  C8  BCR B 619     -34.891 130.263   8.006  1.00 23.77     0.007 C 
HETATM    9  C9  BCR B 619     -35.579 130.998   9.094  1.00 23.42    -0.062 C 
HETATM   10  C10 BCR B 619     -36.152 132.164   8.759  1.00 22.94     0.007 C 
HETATM   11  C11 BCR B 619     -36.947 133.031   9.650  1.00 21.56     0.001 C 
HETATM   12  C33 BCR B 619     -32.342 130.464   6.312  1.00 25.32     0.044 C 
HETATM   13  C31 BCR B 619     -33.848 126.226   8.312  1.00 32.57     0.020 C 
HETATM   14  C32 BCR B 619     -35.376 126.836   6.459  1.00 28.71     0.020 C 
HETATM   15  C34 BCR B 619     -35.642 130.374  10.488  1.00 22.58     0.048 C 
HETATM   16  C12 BCR B 619     -37.618 134.083   9.112  1.00 19.70     0.007 C 
HETATM   17  C13 BCR B 619     -38.447 134.967   9.956  1.00 21.87    -0.062 C 
HETATM   18  C14 BCR B 619     -38.929 136.104   9.404  1.00 20.70     0.007 C 
HETATM   19  C15 BCR B 619     -39.726 137.142  10.077  1.00 23.20     0.001 C 
HETATM   20  C16 BCR B 619     -40.279 138.240   9.453  1.00 22.02     0.001 C 
HETATM   21  C17 BCR B 619     -41.028 139.215  10.275  1.00 23.03     0.007 C 
HETATM   22  C18 BCR B 619     -41.556 140.399   9.833  1.00 21.71    -0.062 C 
HETATM   23  C19 BCR B 619     -42.333 141.262  10.764  1.00 23.57     0.007 C 
HETATM   24  C20 BCR B 619     -42.900 142.423  10.379  1.00 26.34     0.001 C 
HETATM   25  C21 BCR B 619     -43.675 143.210  11.344  1.00 25.97     0.007 C 
HETATM   26  C22 BCR B 619     -44.032 144.511  11.227  1.00 30.95    -0.062 C 
HETATM   27  C23 BCR B 619     -44.817 145.096  12.364  1.00 33.56     0.007 C 
HETATM   28  C24 BCR B 619     -45.304 146.365  12.419  1.00 40.35     0.009 C 
HETATM   29  C25 BCR B 619     -46.106 147.000  13.556  1.00 41.63    -0.048 C 
HETATM   30  C26 BCR B 619     -45.609 147.190  14.816  1.00 40.62    -0.077 C 
HETATM   31  C27 BCR B 619     -46.437 147.818  15.915  1.00 39.37     0.034 C 
HETATM   32  C28 BCR B 619     -47.909 147.489  15.739  1.00 37.91     0.005 C 
HETATM   33  C29 BCR B 619     -48.320 148.058  14.411  1.00 42.57     0.014 C 
HETATM   34  C30 BCR B 619     -47.527 147.480  13.228  1.00 42.87    -0.020 C 
HETATM   35  C35 BCR B 619     -38.640 134.578  11.440  1.00 21.20     0.048 C 
HETATM   36  C36 BCR B 619     -41.372 140.925   8.407  1.00 21.22     0.048 C 
HETATM   37  C37 BCR B 619     -43.682 145.341   9.980  1.00 32.33     0.048 C 
HETATM   38  C38 BCR B 619     -44.237 146.729  15.246  1.00 44.08     0.044 C 
HETATM   39  C39 BCR B 619     -47.448 148.527  12.079  1.00 45.77     0.020 C 
HETATM   40  C40 BCR B 619     -48.329 146.290  12.777  1.00 41.31     0.020 C 
ENDROOT
TORSDOF 10
