REMARK VINA RESULT:    -8.994      0.000      0.000
REMARK INTER + INTRA:         -14.261
REMARK INTER:                  -8.994
REMARK INTRA:                  -5.267
REMARK UNBOUND:                -5.267
REMARK  0 active torsions:
REMARK  status: ('A' for Active; 'I' for Inactive)
REMARK       I    between atoms: C6_6  and  C7_7 
REMARK       I    between atoms: C8_8  and  C9_9 
REMARK       I    between atoms: C10_10  and  C11_11 
REMARK       I    between atoms: C12_16  and  C13_17 
REMARK       I    between atoms: C14_18  and  C15_19 
REMARK       I    between atoms: C16_20  and  C17_21 
REMARK       I    between atoms: C18_22  and  C19_23 
REMARK       I    between atoms: C20_24  and  C21_25 
REMARK       I    between atoms: C22_26  and  C23_27 
REMARK       I    between atoms: C24_28  and  C25_29 
ROOT
HETATM    1  C1  BCR Y 101     -34.571 126.987   5.085  1.00 69.68    -0.020 C 
HETATM    2  C2  BCR Y 101     -33.826 125.858   4.380  1.00 67.04     0.014 C 
HETATM    3  C3  BCR Y 101     -32.714 126.412   3.501  1.00 62.62     0.005 C 
HETATM    4  C4  BCR Y 101     -31.686 127.191   4.314  1.00 59.69     0.034 C 
HETATM    5  C5  BCR Y 101     -32.306 127.960   5.466  1.00 56.78    -0.077 C 
HETATM    6  C6  BCR Y 101     -33.597 127.880   5.829  1.00 71.08    -0.048 C 
HETATM    7  C7  BCR Y 101     -34.075 128.690   6.989  1.00 68.86     0.009 C 
HETATM    8  C8  BCR Y 101     -35.076 129.573   6.896  1.00 51.04     0.007 C 
HETATM    9  C9  BCR Y 101     -35.568 130.398   8.028  1.00 63.66    -0.062 C 
HETATM   10  C10 BCR Y 101     -36.664 131.159   7.830  1.00 61.96     0.007 C 
HETATM   11  C11 BCR Y 101     -37.274 132.064   8.806  1.00 54.93     0.001 C 
HETATM   12  C33 BCR Y 101     -31.394 128.855   6.242  1.00 61.67     0.044 C 
HETATM   13  C31 BCR Y 101     -35.583 126.376   6.054  1.00 54.66     0.020 C 
HETATM   14  C32 BCR Y 101     -35.274 127.847   4.035  1.00 70.38     0.020 C 
HETATM   15  C34 BCR Y 101     -34.857 130.365   9.348  1.00 45.87     0.048 C 
HETATM   16  C12 BCR Y 101     -38.120 132.967   8.295  1.00 54.93     0.007 C 
HETATM   17  C13 BCR Y 101     -38.813 134.044   9.042  1.00 62.36    -0.062 C 
HETATM   18  C14 BCR Y 101     -39.745 134.788   8.409  1.00 57.29     0.007 C 
HETATM   19  C15 BCR Y 101     -40.432 135.920   9.044  1.00 58.51     0.001 C 
HETATM   20  C16 BCR Y 101     -41.116 136.803   8.301  1.00 44.78     0.001 C 
HETATM   21  C17 BCR Y 101     -41.766 137.944   8.949  1.00 61.60     0.007 C 
HETATM   22  C18 BCR Y 101     -42.520 138.856   8.305  1.00 60.54    -0.062 C 
HETATM   23  C19 BCR Y 101     -43.090 139.978   9.083  1.00 57.38     0.007 C 
HETATM   24  C20 BCR Y 101     -43.572 141.094   8.532  1.00 55.43     0.001 C 
HETATM   25  C21 BCR Y 101     -44.100 142.108   9.446  1.00 63.11     0.007 C 
HETATM   26  C22 BCR Y 101     -44.782 143.205   9.078  1.00 68.09    -0.062 C 
HETATM   27  C23 BCR Y 101     -45.214 144.004  10.071  1.00 69.35     0.007 C 
HETATM   28  C24 BCR Y 101     -46.274 144.811   9.950  1.00 58.02     0.009 C 
HETATM   29  C25 BCR Y 101     -46.780 145.632  11.082  1.00 63.78    -0.048 C 
HETATM   30  C26 BCR Y 101     -47.405 145.036  12.127  1.00 62.05    -0.077 C 
HETATM   31  C27 BCR Y 101     -47.943 145.832  13.292  1.00 53.38     0.034 C 
HETATM   32  C28 BCR Y 101     -47.172 147.130  13.430  1.00 58.62     0.005 C 
HETATM   33  C29 BCR Y 101     -47.313 147.878  12.121  1.00 62.11     0.014 C 
HETATM   34  C30 BCR Y 101     -46.589 147.134  11.007  1.00 65.90    -0.020 C 
HETATM   35  C35 BCR Y 101     -38.414 134.356  10.459  1.00 63.39     0.048 C 
HETATM   36  C36 BCR Y 101     -42.809 138.744   6.839  1.00 55.72     0.048 C 
HETATM   37  C37 BCR Y 101     -45.083 143.485   7.633  1.00 50.13     0.048 C 
HETATM   38  C38 BCR Y 101     -47.610 143.541  12.201  1.00 53.00     0.044 C 
HETATM   39  C39 BCR Y 101     -45.102 147.449  11.112  1.00 60.25     0.020 C 
HETATM   40  C40 BCR Y 101     -47.155 147.578   9.663  1.00 63.43     0.020 C 
ENDROOT
TORSDOF 10
