REMARK VINA RESULT:    -6.648      1.563     16.508
REMARK INTER + INTRA:          -9.443
REMARK INTER:                  -6.703
REMARK INTRA:                  -2.740
REMARK UNBOUND:                -2.795
REMARK  0 active torsions:
REMARK  status: ('A' for Active; 'I' for Inactive)
REMARK       I    between atoms: C6_6  and  C7_7 
REMARK       I    between atoms: C8_8  and  C9_9 
REMARK       I    between atoms: C10_10  and  C11_11 
REMARK       I    between atoms: C12_16  and  C13_17 
REMARK       I    between atoms: C14_18  and  C15_19 
REMARK       I    between atoms: C16_20  and  C17_21 
REMARK       I    between atoms: C18_22  and  C19_23 
REMARK       I    between atoms: C20_24  and  C21_25 
REMARK       I    between atoms: C22_26  and  C23_27 
REMARK       I    between atoms: C24_28  and  C25_29 
ROOT
HETATM    1  C1  BCR B 618     -33.709 127.423   7.261  1.00 52.27    -0.020 C 
HETATM    2  C2  BCR B 618     -32.724 126.532   6.504  1.00 40.31     0.014 C 
HETATM    3  C3  BCR B 618     -32.170 127.213   5.261  1.00 36.34     0.005 C 
HETATM    4  C4  BCR B 618     -33.302 127.539   4.301  1.00 43.90     0.034 C 
HETATM    5  C5  BCR B 618     -34.491 128.164   5.000  1.00 42.39    -0.077 C 
HETATM    6  C6  BCR B 618     -34.684 128.117   6.327  1.00 41.32    -0.048 C 
HETATM    7  C7  BCR B 618     -35.898 128.763   6.886  1.00 37.02     0.009 C 
HETATM    8  C8  BCR B 618     -35.944 130.051   7.257  1.00 40.38     0.007 C 
HETATM    9  C9  BCR B 618     -37.191 130.655   7.788  1.00 43.44    -0.062 C 
HETATM   10  C10 BCR B 618     -37.264 131.987   7.950  1.00 33.05     0.007 C 
HETATM   11  C11 BCR B 618     -38.451 132.703   8.435  1.00 38.44     0.001 C 
HETATM   12  C33 BCR B 618     -35.498 128.860   4.141  1.00 43.01     0.044 C 
HETATM   13  C31 BCR B 618     -32.954 128.504   8.033  1.00 47.24     0.020 C 
HETATM   14  C32 BCR B 618     -34.499 126.535   8.219  1.00 46.10     0.020 C 
HETATM   15  C34 BCR B 618     -38.366 129.796   8.137  1.00 38.09     0.048 C 
HETATM   16  C12 BCR B 618     -38.337 134.023   8.640  1.00 45.48     0.007 C 
HETATM   17  C13 BCR B 618     -39.474 134.861   9.075  1.00 46.67    -0.062 C 
HETATM   18  C14 BCR B 618     -39.288 136.195   9.250  1.00 36.87     0.007 C 
HETATM   19  C15 BCR B 618     -40.349 137.131   9.658  1.00 33.54     0.001 C 
HETATM   20  C16 BCR B 618     -40.209 138.453   9.497  1.00 30.58     0.001 C 
HETATM   21  C17 BCR B 618     -41.276 139.406   9.884  1.00 36.03     0.007 C 
HETATM   22  C18 BCR B 618     -41.141 140.754   9.848  1.00 37.55    -0.062 C 
HETATM   23  C19 BCR B 618     -42.288 141.609  10.263  1.00 41.57     0.007 C 
HETATM   24  C20 BCR B 618     -42.411 142.935  10.090  1.00 44.50     0.001 C 
HETATM   25  C21 BCR B 618     -43.657 143.554  10.579  1.00 27.16     0.007 C 
HETATM   26  C22 BCR B 618     -44.095 144.807  10.319  1.00 45.91    -0.062 C 
HETATM   27  C23 BCR B 618     -45.280 145.214  10.846  1.00 42.15     0.007 C 
HETATM   28  C24 BCR B 618     -45.821 146.396  10.511  1.00 36.90     0.009 C 
HETATM   29  C25 BCR B 618     -47.100 146.954  11.022  1.00 40.99    -0.048 C 
HETATM   30  C26 BCR B 618     -48.294 146.366  10.751  1.00 43.47    -0.077 C 
HETATM   31  C27 BCR B 618     -49.608 146.932  11.254  1.00 44.02     0.034 C 
HETATM   32  C28 BCR B 618     -49.469 148.384  11.698  1.00 46.97     0.005 C 
HETATM   33  C29 BCR B 618     -48.259 148.585  12.601  1.00 50.46     0.014 C 
HETATM   34  C30 BCR B 618     -46.980 148.249  11.845  1.00 44.40    -0.020 C 
HETATM   35  C35 BCR B 618     -40.811 134.192   9.237  1.00 29.80     0.048 C 
HETATM   36  C36 BCR B 618     -39.855 141.388   9.401  1.00 38.94     0.048 C 
HETATM   37  C37 BCR B 618     -43.281 145.765   9.485  1.00 32.34     0.048 C 
HETATM   38  C38 BCR B 618     -48.425 145.102   9.941  1.00 35.16     0.044 C 
HETATM   39  C39 BCR B 618     -45.838 148.135  12.848  1.00 36.65     0.020 C 
HETATM   40  C40 BCR B 618     -46.627 149.432  10.954  1.00 45.60     0.020 C 
ENDROOT
TORSDOF 10
