REMARK VINA RESULT:    -6.994      2.854      5.011
REMARK INTER + INTRA:         -13.418
REMARK INTER:                 -11.136
REMARK INTRA:                  -2.282
REMARK UNBOUND:                -6.424
REMARK  0 active torsions:
REMARK  status: ('A' for Active; 'I' for Inactive)
REMARK       I    between atoms: C6_6  and  C7_7 
REMARK       I    between atoms: C8_8  and  C9_9 
REMARK       I    between atoms: C10_10  and  C11_11 
REMARK       I    between atoms: C12_16  and  C13_17 
REMARK       I    between atoms: C14_18  and  C15_19 
REMARK       I    between atoms: C16_20  and  C17_21 
REMARK       I    between atoms: C18_22  and  C19_23 
REMARK       I    between atoms: C20_24  and  C21_25 
REMARK       I    between atoms: C22_26  and  C23_27 
REMARK       I    between atoms: C24_28  and  C25_29 
ROOT
HETATM    1  C1  BCR B 618     -33.938 127.008   6.969  1.00 40.46    -0.020 C 
HETATM    2  C2  BCR B 618     -33.170 126.194   5.923  1.00 38.19     0.014 C 
HETATM    3  C3  BCR B 618     -32.792 127.067   4.745  1.00 37.07     0.005 C 
HETATM    4  C4  BCR B 618     -31.910 128.199   5.196  1.00 35.92     0.034 C 
HETATM    5  C5  BCR B 618     -32.566 128.959   6.279  1.00 36.16    -0.077 C 
HETATM    6  C6  BCR B 618     -33.494 128.445   7.099  1.00 29.04    -0.048 C 
HETATM    7  C7  BCR B 618     -34.076 129.238   8.182  1.00 28.06     0.009 C 
HETATM    8  C8  BCR B 618     -34.774 130.352   7.940  1.00 32.09     0.007 C 
HETATM    9  C9  BCR B 618     -35.449 131.117   8.969  1.00 31.23    -0.062 C 
HETATM   10  C10 BCR B 618     -35.976 132.315   8.644  1.00 30.89     0.007 C 
HETATM   11  C11 BCR B 618     -36.884 133.080   9.476  1.00 28.43     0.001 C 
HETATM   12  C33 BCR B 618     -32.099 130.354   6.379  1.00 38.15     0.044 C 
HETATM   13  C31 BCR B 618     -33.835 126.290   8.301  1.00 41.07     0.020 C 
HETATM   14  C32 BCR B 618     -35.387 126.916   6.545  1.00 40.74     0.020 C 
HETATM   15  C34 BCR B 618     -35.807 130.386  10.207  1.00 31.69     0.048 C 
HETATM   16  C12 BCR B 618     -37.534 134.151   8.985  1.00 29.36     0.007 C 
HETATM   17  C13 BCR B 618     -38.312 135.092   9.790  1.00 25.32    -0.062 C 
HETATM   18  C14 BCR B 618     -38.938 136.131   9.206  1.00 31.04     0.007 C 
HETATM   19  C15 BCR B 618     -39.488 137.256   9.926  1.00 23.63     0.001 C 
HETATM   20  C16 BCR B 618     -40.372 138.107   9.359  1.00 31.26     0.001 C 
HETATM   21  C17 BCR B 618     -40.968 139.150  10.187  1.00 34.11     0.007 C 
HETATM   22  C18 BCR B 618     -41.394 140.378   9.825  1.00 31.18    -0.062 C 
HETATM   23  C19 BCR B 618     -42.075 141.233  10.784  1.00 30.29     0.007 C 
HETATM   24  C20 BCR B 618     -42.275 142.541  10.539  1.00 41.94     0.001 C 
HETATM   25  C21 BCR B 618     -43.388 143.244  11.146  1.00 35.48     0.007 C 
HETATM   26  C22 BCR B 618     -43.516 144.568  11.274  1.00 28.25    -0.062 C 
HETATM   27  C23 BCR B 618     -44.516 145.088  12.203  1.00 31.42     0.007 C 
HETATM   28  C24 BCR B 618     -44.716 146.400  12.459  1.00 38.15     0.009 C 
HETATM   29  C25 BCR B 618     -45.685 146.874  13.458  1.00 34.46    -0.048 C 
HETATM   30  C26 BCR B 618     -45.327 146.955  14.739  1.00 40.95    -0.077 C 
HETATM   31  C27 BCR B 618     -46.219 147.347  15.854  1.00 42.20     0.034 C 
HETATM   32  C28 BCR B 618     -47.364 148.222  15.437  1.00 33.45     0.005 C 
HETATM   33  C29 BCR B 618     -47.945 147.902  14.084  1.00 35.30     0.014 C 
HETATM   34  C30 BCR B 618     -47.069 147.225  13.022  1.00 37.08    -0.020 C 
HETATM   35  C35 BCR B 618     -38.630 134.753  11.188  1.00 27.05     0.048 C 
HETATM   36  C36 BCR B 618     -41.404 140.834   8.432  1.00 33.84     0.048 C 
HETATM   37  C37 BCR B 618     -43.101 145.436  10.157  1.00 39.76     0.048 C 
HETATM   38  C38 BCR B 618     -43.967 146.560  15.207  1.00 35.08     0.044 C 
HETATM   39  C39 BCR B 618     -46.988 148.003  11.731  1.00 43.92     0.020 C 
HETATM   40  C40 BCR B 618     -47.916 146.016  12.652  1.00 41.09     0.020 C 
ENDROOT
TORSDOF 10
