REMARK VINA RESULT:    -5.255      2.207      3.256
REMARK INTER + INTRA:          -9.829
REMARK INTER:                  -6.669
REMARK INTRA:                  -3.160
REMARK UNBOUND:                -4.573
REMARK  0 active torsions:
REMARK  status: ('A' for Active; 'I' for Inactive)
REMARK       I    between atoms: C6_6  and  C7_7 
REMARK       I    between atoms: C8_8  and  C9_9 
REMARK       I    between atoms: C10_10  and  C11_11 
REMARK       I    between atoms: C12_16  and  C13_17 
REMARK       I    between atoms: C14_18  and  C15_19 
REMARK       I    between atoms: C16_20  and  C17_21 
REMARK       I    between atoms: C18_22  and  C19_23 
REMARK       I    between atoms: C20_24  and  C21_25 
REMARK       I    between atoms: C22_26  and  C23_27 
REMARK       I    between atoms: C24_28  and  C25_29 
ROOT
HETATM    1  C1  BCR C 514     -44.943 148.527  13.823  1.00 35.58    -0.020 C 
HETATM    2  C2  BCR C 514     -46.006 149.539  14.088  1.00 41.22     0.014 C 
HETATM    3  C3  BCR C 514     -47.396 149.094  13.738  1.00 43.51     0.005 C 
HETATM    4  C4  BCR C 514     -47.510 148.596  12.321  1.00 41.68     0.034 C 
HETATM    5  C5  BCR C 514     -46.278 147.892  11.801  1.00 42.53    -0.077 C 
HETATM    6  C6  BCR C 514     -45.082 147.909  12.452  1.00 37.16    -0.048 C 
HETATM    7  C7  BCR C 514     -43.906 147.222  11.895  1.00 40.52     0.009 C 
HETATM    8  C8  BCR C 514     -43.981 145.895  11.683  1.00 40.92     0.007 C 
HETATM    9  C9  BCR C 514     -42.754 145.146  11.223  1.00 42.01    -0.062 C 
HETATM   10  C10 BCR C 514     -42.838 143.851  11.072  1.00 37.28     0.007 C 
HETATM   11  C11 BCR C 514     -41.717 143.023  10.594  1.00 41.23     0.001 C 
HETATM   12  C33 BCR C 514     -46.465 147.387  10.403  1.00 40.30     0.044 C 
HETATM   13  C31 BCR C 514     -45.141 147.384  14.809  1.00 39.42     0.020 C 
HETATM   14  C32 BCR C 514     -43.588 149.268  13.952  1.00 41.23     0.020 C 
HETATM   15  C34 BCR C 514     -41.482 145.881  10.856  1.00 46.73     0.048 C 
HETATM   16  C12 BCR C 514     -41.883 141.714  10.400  1.00 43.50     0.007 C 
HETATM   17  C13 BCR C 514     -40.852 140.817   9.876  1.00 41.12    -0.062 C 
HETATM   18  C14 BCR C 514     -41.140 139.499   9.760  1.00 37.55     0.007 C 
HETATM   19  C15 BCR C 514     -40.194 138.466   9.226  1.00 39.88     0.001 C 
HETATM   20  C16 BCR C 514     -40.536 137.175   9.217  1.00 39.12     0.001 C 
HETATM   21  C17 BCR C 514     -39.655 136.140   8.691  1.00 41.68     0.007 C 
HETATM   22  C18 BCR C 514     -39.784 134.783   8.747  1.00 39.37    -0.062 C 
HETATM   23  C19 BCR C 514     -38.717 133.928   8.140  1.00 44.12     0.007 C 
HETATM   24  C20 BCR C 514     -38.700 132.576   8.180  1.00 37.68     0.001 C 
HETATM   25  C21 BCR C 514     -37.577 131.838   7.558  1.00 39.34     0.007 C 
HETATM   26  C22 BCR C 514     -37.420 130.493   7.732  1.00 42.90    -0.062 C 
HETATM   27  C23 BCR C 514     -36.238 129.864   7.070  1.00 39.44     0.007 C 
HETATM   28  C24 BCR C 514     -35.967 128.525   7.295  1.00 55.37     0.009 C 
HETATM   29  C25 BCR C 514     -34.706 128.049   6.676  1.00 47.75    -0.048 C 
HETATM   30  C26 BCR C 514     -34.381 128.402   5.447  1.00 47.05    -0.077 C 
HETATM   31  C27 BCR C 514     -32.951 128.476   5.032  1.00 57.69     0.034 C 
HETATM   32  C28 BCR C 514     -32.366 127.129   5.273  1.00 50.11     0.005 C 
HETATM   33  C29 BCR C 514     -32.615 126.621   6.686  1.00 48.72     0.014 C 
HETATM   34  C30 BCR C 514     -33.685 127.332   7.502  1.00 46.83    -0.020 C 
HETATM   35  C35 BCR C 514     -39.564 141.420   9.400  1.00 42.11     0.048 C 
HETATM   36  C36 BCR C 514     -40.992 134.154   9.360  1.00 38.24     0.048 C 
HETATM   37  C37 BCR C 514     -38.442 129.671   8.474  1.00 31.50     0.048 C 
HETATM   38  C38 BCR C 514     -35.342 128.642   4.347  1.00 38.56     0.044 C 
HETATM   39  C39 BCR C 514     -33.025 128.411   8.382  1.00 46.44     0.020 C 
HETATM   40  C40 BCR C 514     -34.413 126.329   8.387  1.00 48.77     0.020 C 
ENDROOT
TORSDOF 10
