REMARK VINA RESULT:   -11.246      0.000      0.000
REMARK INTER + INTRA:         -14.062
REMARK INTER:                 -11.246
REMARK INTRA:                  -2.816
REMARK UNBOUND:                -2.816
REMARK  0 active torsions:
REMARK  status: ('A' for Active; 'I' for Inactive)
REMARK       I    between atoms: C6_6  and  C7_7 
REMARK       I    between atoms: C8_8  and  C9_9 
REMARK       I    between atoms: C10_10  and  C11_11 
REMARK       I    between atoms: C12_16  and  C13_17 
REMARK       I    between atoms: C14_18  and  C15_19 
REMARK       I    between atoms: C16_20  and  C17_21 
REMARK       I    between atoms: C18_22  and  C19_23 
REMARK       I    between atoms: C20_24  and  C21_25 
REMARK       I    between atoms: C22_26  and  C23_27 
REMARK       I    between atoms: C24_28  and  C25_29 
ROOT
HETATM    1  C1  BCR K 101     -48.738 147.447  10.075  1.00 40.27    -0.020 C 
HETATM    2  C2  BCR K 101     -49.705 148.167  10.990  1.00 46.17     0.014 C 
HETATM    3  C3  BCR K 101     -51.133 147.779  10.762  1.00 46.00     0.005 C 
HETATM    4  C4  BCR K 101     -51.321 146.287  10.791  1.00 50.16     0.034 C 
HETATM    5  C5  BCR K 101     -50.326 145.584   9.949  1.00 47.62    -0.077 C 
HETATM    6  C6  BCR K 101     -49.145 146.076   9.648  1.00 41.18    -0.048 C 
HETATM    7  C7  BCR K 101     -48.232 145.325   8.797  1.00 43.29     0.009 C 
HETATM    8  C8  BCR K 101     -47.705 144.154   9.149  1.00 42.58     0.007 C 
HETATM    9  C9  BCR K 101     -46.651 143.511   8.380  1.00 48.65    -0.062 C 
HETATM   10  C10 BCR K 101     -46.194 142.301   8.729  1.00 45.45     0.007 C 
HETATM   11  C11 BCR K 101     -44.849 141.875   8.451  1.00 51.34     0.001 C 
HETATM   12  C33 BCR K 101     -50.725 144.237   9.484  1.00 47.03     0.044 C 
HETATM   13  C31 BCR K 101     -47.406 147.489  10.821  1.00 48.55     0.020 C 
HETATM   14  C32 BCR K 101     -48.606 148.299   8.846  1.00 47.52     0.020 C 
HETATM   15  C34 BCR K 101     -45.957 144.330   7.362  1.00 49.90     0.048 C 
HETATM   16  C12 BCR K 101     -44.539 140.574   8.357  1.00 52.29     0.007 C 
HETATM   17  C13 BCR K 101     -43.171 140.109   8.440  1.00 57.82    -0.062 C 
HETATM   18  C14 BCR K 101     -42.936 138.788   8.527  1.00 56.99     0.007 C 
HETATM   19  C15 BCR K 101     -41.632 138.187   8.693  1.00 53.84     0.001 C 
HETATM   20  C16 BCR K 101     -41.511 136.909   9.084  1.00 48.03     0.001 C 
HETATM   21  C17 BCR K 101     -40.253 136.276   8.779  1.00 52.48     0.007 C 
HETATM   22  C18 BCR K 101     -39.601 135.380   9.533  1.00 57.46    -0.062 C 
HETATM   23  C19 BCR K 101     -38.842 134.329   8.857  1.00 53.57     0.007 C 
HETATM   24  C20 BCR K 101     -37.986 133.494   9.452  1.00 52.13     0.001 C 
HETATM   25  C21 BCR K 101     -36.935 132.885   8.668  1.00 54.30     0.007 C 
HETATM   26  C22 BCR K 101     -36.000 132.016   9.094  1.00 56.80    -0.062 C 
HETATM   27  C23 BCR K 101     -35.046 131.491   8.133  1.00 54.97     0.007 C 
HETATM   28  C24 BCR K 101     -34.210 130.494   8.417  1.00 52.41     0.009 C 
HETATM   29  C25 BCR K 101     -33.501 129.743   7.400  1.00 54.04    -0.048 C 
HETATM   30  C26 BCR K 101     -34.137 128.863   6.620  1.00 63.10    -0.077 C 
HETATM   31  C27 BCR K 101     -33.528 128.038   5.553  1.00 64.10     0.034 C 
HETATM   32  C28 BCR K 101     -32.132 128.503   5.213  1.00 68.43     0.005 C 
HETATM   33  C29 BCR K 101     -31.373 128.892   6.458  1.00 60.58     0.014 C 
HETATM   34  C30 BCR K 101     -32.044 129.997   7.251  1.00 50.92    -0.020 C 
HETATM   35  C35 BCR K 101     -42.148 141.090   8.874  1.00 62.47     0.048 C 
HETATM   36  C36 BCR K 101     -39.395 135.645  10.974  1.00 61.37     0.048 C 
HETATM   37  C37 BCR K 101     -35.718 131.762  10.525  1.00 59.71     0.048 C 
HETATM   38  C38 BCR K 101     -35.581 128.591   6.742  1.00 58.32     0.044 C 
HETATM   39  C39 BCR K 101     -31.825 131.342   6.577  1.00 63.29     0.020 C 
HETATM   40  C40 BCR K 101     -31.328 130.052   8.601  1.00 51.15     0.020 C 
ENDROOT
TORSDOF 10
