REMARK VINA RESULT:   -10.036      0.000      0.000
REMARK INTER + INTRA:         -16.732
REMARK INTER:                 -10.036
REMARK INTRA:                  -6.696
REMARK UNBOUND:                -6.696
REMARK  0 active torsions:
REMARK  status: ('A' for Active; 'I' for Inactive)
REMARK       I    between atoms: C6_6  and  C7_7 
REMARK       I    between atoms: C8_8  and  C9_9 
REMARK       I    between atoms: C10_10  and  C11_11 
REMARK       I    between atoms: C12_16  and  C13_17 
REMARK       I    between atoms: C14_18  and  C15_19 
REMARK       I    between atoms: C16_20  and  C17_21 
REMARK       I    between atoms: C18_22  and  C19_23 
REMARK       I    between atoms: C20_24  and  C21_25 
REMARK       I    between atoms: C22_26  and  C23_27 
REMARK       I    between atoms: C24_28  and  C25_29 
ROOT
HETATM    1  C1  BCR H 102     -51.144 149.673  10.538  1.00 28.14    -0.020 C 
HETATM    2  C2  BCR H 102     -52.304 150.552  10.155  1.00 33.62     0.014 C 
HETATM    3  C3  BCR H 102     -52.600 150.494   8.644  1.00 29.10     0.005 C 
HETATM    4  C4  BCR H 102     -51.374 150.782   7.759  1.00 27.97     0.034 C 
HETATM    5  C5  BCR H 102     -50.075 150.238   8.315  1.00 24.08    -0.077 C 
HETATM    6  C6  BCR H 102     -49.927 149.819   9.600  1.00 23.59    -0.048 C 
HETATM    7  C7  BCR H 102     -48.615 149.402  10.129  1.00 25.03     0.009 C 
HETATM    8  C8  BCR H 102     -47.733 148.677   9.457  1.00 25.08     0.007 C 
HETATM    9  C9  BCR H 102     -46.475 148.173  10.126  1.00 28.37    -0.062 C 
HETATM   10  C10 BCR H 102     -45.721 147.272   9.495  1.00 29.64     0.007 C 
HETATM   11  C11 BCR H 102     -44.591 146.531  10.038  1.00 28.00     0.001 C 
HETATM   12  C33 BCR H 102     -48.925 150.486   7.327  1.00 24.87     0.044 C 
HETATM   13  C31 BCR H 102     -51.568 148.203  10.445  1.00 29.74     0.020 C 
HETATM   14  C32 BCR H 102     -50.864 149.950  12.010  1.00 29.39     0.020 C 
HETATM   15  C34 BCR H 102     -46.091 148.678  11.502  1.00 29.30     0.048 C 
HETATM   16  C12 BCR H 102     -44.231 145.374   9.470  1.00 33.99     0.007 C 
HETATM   17  C13 BCR H 102     -43.129 144.496  10.003  1.00 31.24    -0.062 C 
HETATM   18  C14 BCR H 102     -42.843 143.317   9.384  1.00 30.81     0.007 C 
HETATM   19  C15 BCR H 102     -41.874 142.267   9.733  1.00 33.09     0.001 C 
HETATM   20  C16 BCR H 102     -41.908 141.106   9.028  1.00 34.61     0.001 C 
HETATM   21  C17 BCR H 102     -41.000 140.013   9.330  1.00 27.93     0.007 C 
HETATM   22  C18 BCR H 102     -41.071 138.787   8.732  1.00 34.07    -0.062 C 
HETATM   23  C19 BCR H 102     -40.047 137.808   9.181  1.00 31.80     0.007 C 
HETATM   24  C20 BCR H 102     -39.846 136.638   8.609  1.00 36.40     0.001 C 
HETATM   25  C21 BCR H 102     -38.835 135.744   9.136  1.00 43.19     0.007 C 
HETATM   26  C22 BCR H 102     -38.724 134.452   8.753  1.00 40.90    -0.062 C 
HETATM   27  C23 BCR H 102     -37.660 133.611   9.392  1.00 39.46     0.007 C 
HETATM   28  C24 BCR H 102     -37.332 132.417   8.887  1.00 42.36     0.009 C 
HETATM   29  C25 BCR H 102     -36.161 131.611   9.353  1.00 45.23    -0.048 C 
HETATM   30  C26 BCR H 102     -35.832 131.364  10.662  1.00 41.91    -0.077 C 
HETATM   31  C27 BCR H 102     -34.596 130.569  11.079  1.00 42.04     0.034 C 
HETATM   32  C28 BCR H 102     -33.483 130.321  10.013  1.00 45.21     0.005 C 
HETATM   33  C29 BCR H 102     -34.247 130.031   8.734  1.00 52.29     0.014 C 
HETATM   34  C30 BCR H 102     -35.225 131.130   8.248  1.00 51.33    -0.020 C 
HETATM   35  C35 BCR H 102     -42.412 144.949  11.230  1.00 31.82     0.048 C 
HETATM   36  C36 BCR H 102     -42.124 138.454   7.721  1.00 41.97     0.048 C 
HETATM   37  C37 BCR H 102     -39.674 133.923   7.699  1.00 55.92     0.048 C 
HETATM   38  C38 BCR H 102     -36.797 131.656  11.787  1.00 38.51     0.044 C 
HETATM   39  C39 BCR H 102     -36.041 130.579   7.057  1.00 45.00     0.020 C 
HETATM   40  C40 BCR H 102     -34.400 132.372   7.844  1.00 52.36     0.020 C 
ENDROOT
TORSDOF 10
