REMARK VINA RESULT:   -10.716      0.000      0.000
REMARK INTER + INTRA:         -13.952
REMARK INTER:                 -10.716
REMARK INTRA:                  -3.236
REMARK UNBOUND:                -3.236
REMARK  0 active torsions:
REMARK  status: ('A' for Active; 'I' for Inactive)
REMARK       I    between atoms: C6_6  and  C7_7 
REMARK       I    between atoms: C8_8  and  C9_9 
REMARK       I    between atoms: C10_10  and  C11_11 
REMARK       I    between atoms: C12_16  and  C13_17 
REMARK       I    between atoms: C14_18  and  C15_19 
REMARK       I    between atoms: C16_20  and  C17_21 
REMARK       I    between atoms: C18_22  and  C19_23 
REMARK       I    between atoms: C20_24  and  C21_25 
REMARK       I    between atoms: C22_26  and  C23_27 
REMARK       I    between atoms: C24_28  and  C25_29 
ROOT
HETATM    1  C1  BCR H 102     -32.117 130.448   6.934  1.00 48.43    -0.020 C 
HETATM    2  C2  BCR H 102     -31.349 129.813   5.793  1.00 45.30     0.014 C 
HETATM    3  C3  BCR H 102     -31.589 128.338   5.741  1.00 43.50     0.005 C 
HETATM    4  C4  BCR H 102     -33.047 128.107   5.490  1.00 33.84     0.034 C 
HETATM    5  C5  BCR H 102     -33.890 128.790   6.485  1.00 31.85    -0.077 C 
HETATM    6  C6  BCR H 102     -33.498 129.866   7.176  1.00 30.25    -0.048 C 
HETATM    7  C7  BCR H 102     -34.333 130.548   8.169  1.00 35.33     0.009 C 
HETATM    8  C8  BCR H 102     -35.605 130.926   7.951  1.00 43.57     0.007 C 
HETATM    9  C9  BCR H 102     -36.441 131.591   8.946  1.00 33.88    -0.062 C 
HETATM   10  C10 BCR H 102     -37.511 132.315   8.582  1.00 37.36     0.007 C 
HETATM   11  C11 BCR H 102     -38.154 133.333   9.386  1.00 39.57     0.001 C 
HETATM   12  C33 BCR H 102     -35.238 128.174   6.582  1.00 42.29     0.044 C 
HETATM   13  C31 BCR H 102     -32.196 131.916   6.577  1.00 39.85     0.020 C 
HETATM   14  C32 BCR H 102     -31.209 130.342   8.138  1.00 37.04     0.020 C 
HETATM   15  C34 BCR H 102     -35.890 131.710  10.310  1.00 43.60     0.048 C 
HETATM   16  C12 BCR H 102     -39.351 133.829   9.015  1.00 44.45     0.007 C 
HETATM   17  C13 BCR H 102     -39.956 135.045   9.535  1.00 40.33    -0.062 C 
HETATM   18  C14 BCR H 102     -40.776 135.768   8.755  1.00 40.69     0.007 C 
HETATM   19  C15 BCR H 102     -41.602 136.878   9.188  1.00 43.47     0.001 C 
HETATM   20  C16 BCR H 102     -42.311 137.537   8.264  1.00 39.77     0.001 C 
HETATM   21  C17 BCR H 102     -43.064 138.703   8.640  1.00 45.28     0.007 C 
HETATM   22  C18 BCR H 102     -43.578 139.620   7.807  1.00 40.17    -0.062 C 
HETATM   23  C19 BCR H 102     -44.431 140.656   8.371  1.00 43.20     0.007 C 
HETATM   24  C20 BCR H 102     -44.741 141.795   7.746  1.00 48.88     0.001 C 
HETATM   25  C21 BCR H 102     -45.807 142.632   8.273  1.00 49.74     0.007 C 
HETATM   26  C22 BCR H 102     -46.300 143.738   7.688  1.00 50.14    -0.062 C 
HETATM   27  C23 BCR H 102     -47.249 144.571   8.435  1.00 44.53     0.007 C 
HETATM   28  C24 BCR H 102     -47.637 145.794   8.036  1.00 55.23     0.009 C 
HETATM   29  C25 BCR H 102     -48.643 146.631   8.703  1.00 54.54    -0.048 C 
HETATM   30  C26 BCR H 102     -48.301 147.566   9.590  1.00 52.60    -0.077 C 
HETATM   31  C27 BCR H 102     -49.227 148.465  10.325  1.00 52.80     0.034 C 
HETATM   32  C28 BCR H 102     -50.605 148.559   9.711  1.00 54.83     0.005 C 
HETATM   33  C29 BCR H 102     -51.066 147.229   9.179  1.00 57.72     0.014 C 
HETATM   34  C30 BCR H 102     -50.072 146.426   8.337  1.00 53.00    -0.020 C 
HETATM   35  C35 BCR H 102     -39.820 135.406  10.956  1.00 52.18     0.048 C 
HETATM   36  C36 BCR H 102     -43.291 139.621   6.354  1.00 35.95     0.048 C 
HETATM   37  C37 BCR H 102     -45.943 144.061   6.279  1.00 46.70     0.048 C 
HETATM   38  C38 BCR H 102     -46.880 147.802   9.956  1.00 55.38     0.044 C 
HETATM   39  C39 BCR H 102     -50.260 146.680   6.858  1.00 45.73     0.020 C 
HETATM   40  C40 BCR H 102     -50.470 144.983   8.558  1.00 63.22     0.020 C 
ENDROOT
TORSDOF 10
