REMARK VINA RESULT:    -6.737      2.364      4.345
REMARK INTER + INTRA:         -13.630
REMARK INTER:                 -11.818
REMARK INTRA:                  -1.813
REMARK UNBOUND:                -6.893
REMARK  0 active torsions:
REMARK  status: ('A' for Active; 'I' for Inactive)
REMARK       I    between atoms: C6_6  and  C7_7 
REMARK       I    between atoms: C8_8  and  C9_9 
REMARK       I    between atoms: C10_10  and  C11_11 
REMARK       I    between atoms: C12_16  and  C13_17 
REMARK       I    between atoms: C14_18  and  C15_19 
REMARK       I    between atoms: C16_20  and  C17_21 
REMARK       I    between atoms: C18_22  and  C19_23 
REMARK       I    between atoms: C20_24  and  C21_25 
REMARK       I    between atoms: C22_26  and  C23_27 
REMARK       I    between atoms: C24_28  and  C25_29 
ROOT
HETATM    1  C1  BCR A 406     -34.003 127.170   7.128  1.00 36.20    -0.020 C 
HETATM    2  C2  BCR A 406     -33.065 126.276   6.294  1.00 35.59     0.014 C 
HETATM    3  C3  BCR A 406     -32.568 126.978   5.061  1.00 39.53     0.005 C 
HETATM    4  C4  BCR A 406     -31.835 128.224   5.462  1.00 31.69     0.034 C 
HETATM    5  C5  BCR A 406     -32.577 129.031   6.458  1.00 27.77    -0.077 C 
HETATM    6  C6  BCR A 406     -33.570 128.587   7.239  1.00 33.79    -0.048 C 
HETATM    7  C7  BCR A 406     -34.253 129.429   8.251  1.00 29.83     0.009 C 
HETATM    8  C8  BCR A 406     -35.217 130.310   7.920  1.00 31.65     0.007 C 
HETATM    9  C9  BCR A 406     -35.778 131.280   8.848  1.00 32.29    -0.062 C 
HETATM   10  C10 BCR A 406     -36.607 132.230   8.388  1.00 27.54     0.007 C 
HETATM   11  C11 BCR A 406     -37.181 133.290   9.180  1.00 33.59     0.001 C 
HETATM   12  C33 BCR A 406     -32.058 130.397   6.540  1.00 32.64     0.044 C 
HETATM   13  C31 BCR A 406     -34.116 126.595   8.521  1.00 30.33     0.020 C 
HETATM   14  C32 BCR A 406     -35.369 127.076   6.511  1.00 39.96     0.020 C 
HETATM   15  C34 BCR A 406     -35.789 130.877  10.260  1.00 32.57     0.048 C 
HETATM   16  C12 BCR A 406     -38.263 133.921   8.699  1.00 30.76     0.007 C 
HETATM   17  C13 BCR A 406     -39.097 134.845   9.435  1.00 32.78    -0.062 C 
HETATM   18  C14 BCR A 406     -39.710 135.807   8.717  1.00 29.28     0.007 C 
HETATM   19  C15 BCR A 406     -40.708 136.712   9.222  1.00 28.52     0.001 C 
HETATM   20  C16 BCR A 406     -41.265 137.654   8.436  1.00 29.07     0.001 C 
HETATM   21  C17 BCR A 406     -42.357 138.429   8.967  1.00 23.66     0.007 C 
HETATM   22  C18 BCR A 406     -43.147 139.266   8.283  1.00 29.00    -0.062 C 
HETATM   23  C19 BCR A 406     -43.988 140.167   9.077  1.00 33.02     0.007 C 
HETATM   24  C20 BCR A 406     -44.797 141.126   8.602  1.00 25.51     0.001 C 
HETATM   25  C21 BCR A 406     -45.253 142.171   9.504  1.00 28.80     0.007 C 
HETATM   26  C22 BCR A 406     -45.992 143.234   9.164  1.00 25.36    -0.062 C 
HETATM   27  C23 BCR A 406     -46.546 144.074  10.230  1.00 34.30     0.007 C 
HETATM   28  C24 BCR A 406     -47.426 145.074  10.036  1.00 25.99     0.009 C 
HETATM   29  C25 BCR A 406     -48.194 145.799  11.060  1.00 30.20    -0.048 C 
HETATM   30  C26 BCR A 406     -49.473 145.472  11.330  1.00 33.40    -0.077 C 
HETATM   31  C27 BCR A 406     -50.398 146.126  12.291  1.00 29.94     0.034 C 
HETATM   32  C28 BCR A 406     -49.709 147.126  13.191  1.00 29.32     0.005 C 
HETATM   33  C29 BCR A 406     -48.558 147.829  12.515  1.00 29.90     0.014 C 
HETATM   34  C30 BCR A 406     -47.554 146.965  11.750  1.00 29.21    -0.020 C 
HETATM   35  C35 BCR A 406     -39.013 134.882  10.923  1.00 30.52     0.048 C 
HETATM   36  C36 BCR A 406     -42.821 139.574   6.871  1.00 29.79     0.048 C 
HETATM   37  C37 BCR A 406     -45.803 143.837   7.834  1.00 34.36     0.048 C 
HETATM   38  C38 BCR A 406     -50.167 144.360  10.649  1.00 29.54     0.044 C 
HETATM   39  C39 BCR A 406     -46.410 146.539  12.623  1.00 30.51     0.020 C 
HETATM   40  C40 BCR A 406     -46.947 147.943  10.768  1.00 35.85     0.020 C 
ENDROOT
TORSDOF 10
