REMARK VINA RESULT:    -7.605      2.982      4.959
REMARK INTER + INTRA:         -14.492
REMARK INTER:                 -11.334
REMARK INTRA:                  -3.158
REMARK UNBOUND:                -6.888
REMARK  0 active torsions:
REMARK  status: ('A' for Active; 'I' for Inactive)
REMARK       I    between atoms: C6_6  and  C7_7 
REMARK       I    between atoms: C8_8  and  C9_9 
REMARK       I    between atoms: C10_10  and  C11_11 
REMARK       I    between atoms: C12_16  and  C13_17 
REMARK       I    between atoms: C14_18  and  C15_19 
REMARK       I    between atoms: C16_20  and  C17_21 
REMARK       I    between atoms: C18_22  and  C19_23 
REMARK       I    between atoms: C20_24  and  C21_25 
REMARK       I    between atoms: C22_26  and  C23_27 
REMARK       I    between atoms: C24_28  and  C25_29 
ROOT
HETATM    1  C1  BCR C 516     -34.776 127.021   5.588  1.00 60.14    -0.020 C 
HETATM    2  C2  BCR C 516     -33.555 126.299   5.021  1.00 60.11     0.014 C 
HETATM    3  C3  BCR C 516     -32.363 127.234   4.917  1.00 65.61     0.005 C 
HETATM    4  C4  BCR C 516     -31.974 127.739   6.294  1.00 64.39     0.034 C 
HETATM    5  C5  BCR C 516     -33.166 128.358   6.980  1.00 60.08    -0.077 C 
HETATM    6  C6  BCR C 516     -34.431 128.037   6.660  1.00 62.75    -0.048 C 
HETATM    7  C7  BCR C 516     -35.544 128.699   7.390  1.00 64.37     0.009 C 
HETATM    8  C8  BCR C 516     -35.985 129.920   7.062  1.00 59.25     0.007 C 
HETATM    9  C9  BCR C 516     -37.081 130.564   7.817  1.00 54.91    -0.062 C 
HETATM   10  C10 BCR C 516     -37.270 131.892   7.721  1.00 64.34     0.007 C 
HETATM   11  C11 BCR C 516     -38.314 132.622   8.454  1.00 58.58     0.001 C 
HETATM   12  C33 BCR C 516     -32.882 129.365   8.060  1.00 50.21     0.044 C 
HETATM   13  C31 BCR C 516     -35.719 125.990   6.196  1.00 59.78     0.020 C 
HETATM   14  C32 BCR C 516     -35.464 127.755   4.451  1.00 52.24     0.020 C 
HETATM   15  C34 BCR C 516     -37.966 129.727   8.689  1.00 59.08     0.048 C 
HETATM   16  C12 BCR C 516     -38.318 133.958   8.386  1.00 54.83     0.007 C 
HETATM   17  C13 BCR C 516     -39.293 134.831   9.089  1.00 56.98    -0.062 C 
HETATM   18  C14 BCR C 516     -39.495 136.089   8.635  1.00 63.19     0.007 C 
HETATM   19  C15 BCR C 516     -40.413 137.046   9.262  1.00 55.13     0.001 C 
HETATM   20  C16 BCR C 516     -40.562 138.280   8.758  1.00 53.01     0.001 C 
HETATM   21  C17 BCR C 516     -41.464 139.223   9.425  1.00 50.24     0.007 C 
HETATM   22  C18 BCR C 516     -41.684 140.503   9.051  1.00 50.44    -0.062 C 
HETATM   23  C19 BCR C 516     -42.617 141.296   9.882  1.00 50.82     0.007 C 
HETATM   24  C20 BCR C 516     -43.048 142.539   9.652  1.00 48.76     0.001 C 
HETATM   25  C21 BCR C 516     -43.951 143.095  10.665  1.00 50.02     0.007 C 
HETATM   26  C22 BCR C 516     -44.400 144.364  10.676  1.00 64.03    -0.062 C 
HETATM   27  C23 BCR C 516     -45.205 144.754  11.691  1.00 59.34     0.007 C 
HETATM   28  C24 BCR C 516     -45.543 146.033  11.869  1.00 49.95     0.009 C 
HETATM   29  C25 BCR C 516     -46.387 146.520  12.992  1.00 53.30    -0.048 C 
HETATM   30  C26 BCR C 516     -47.720 146.284  13.094  1.00 60.66    -0.077 C 
HETATM   31  C27 BCR C 516     -48.537 146.808  14.250  1.00 54.48     0.034 C 
HETATM   32  C28 BCR C 516     -47.633 147.046  15.440  1.00 45.55     0.005 C 
HETATM   33  C29 BCR C 516     -46.570 148.023  14.995  1.00 43.16     0.014 C 
HETATM   34  C30 BCR C 516     -45.619 147.340  14.021  1.00 51.35    -0.020 C 
HETATM   35  C35 BCR C 516     -40.015 134.322  10.308  1.00 47.12     0.048 C 
HETATM   36  C36 BCR C 516     -40.990 141.108   7.866  1.00 50.52     0.048 C 
HETATM   37  C37 BCR C 516     -43.986 145.325   9.596  1.00 47.56     0.048 C 
HETATM   38  C38 BCR C 516     -48.497 145.488  12.076  1.00 50.70     0.044 C 
HETATM   39  C39 BCR C 516     -44.612 146.476  14.790  1.00 39.43     0.020 C 
HETATM   40  C40 BCR C 516     -44.842 148.400  13.255  1.00 46.79     0.020 C 
ENDROOT
TORSDOF 10
