REMARK VINA RESULT:    -9.495      0.000      0.000
REMARK INTER + INTRA:         -16.290
REMARK INTER:                  -9.495
REMARK INTRA:                  -6.795
REMARK UNBOUND:                -6.795
REMARK  0 active torsions:
REMARK  status: ('A' for Active; 'I' for Inactive)
REMARK       I    between atoms: C6_6  and  C7_7 
REMARK       I    between atoms: C8_8  and  C9_9 
REMARK       I    between atoms: C10_10  and  C11_11 
REMARK       I    between atoms: C12_16  and  C13_17 
REMARK       I    between atoms: C14_18  and  C15_19 
REMARK       I    between atoms: C16_20  and  C17_21 
REMARK       I    between atoms: C18_22  and  C19_23 
REMARK       I    between atoms: C20_24  and  C21_25 
REMARK       I    between atoms: C22_26  and  C23_27 
REMARK       I    between atoms: C24_28  and  C25_29 
ROOT
HETATM    1  C1  BCR H 101     -51.231 149.536  10.258  1.00 30.28    -0.020 C 
HETATM    2  C2  BCR H 101     -52.441 150.326   9.755  1.00 26.44     0.014 C 
HETATM    3  C3  BCR H 101     -52.596 150.264   8.239  1.00 21.67     0.005 C 
HETATM    4  C4  BCR H 101     -51.388 150.934   7.634  1.00 20.41     0.034 C 
HETATM    5  C5  BCR H 101     -50.080 150.384   8.181  1.00 27.23    -0.077 C 
HETATM    6  C6  BCR H 101     -49.987 149.756   9.385  1.00 20.11    -0.048 C 
HETATM    7  C7  BCR H 101     -48.731 149.179   9.971  1.00 20.66     0.009 C 
HETATM    8  C8  BCR H 101     -47.642 148.686   9.357  1.00 22.34     0.007 C 
HETATM    9  C9  BCR H 101     -46.502 148.093  10.107  1.00 34.94    -0.062 C 
HETATM   10  C10 BCR H 101     -45.759 147.147   9.495  1.00 21.22     0.007 C 
HETATM   11  C11 BCR H 101     -44.624 146.431  10.097  1.00 28.87     0.001 C 
HETATM   12  C33 BCR H 101     -48.911 150.633   7.258  1.00 23.66     0.044 C 
HETATM   13  C31 BCR H 101     -51.546 148.044  10.230  1.00 19.41     0.020 C 
HETATM   14  C32 BCR H 101     -51.009 149.899  11.740  1.00 20.38     0.020 C 
HETATM   15  C34 BCR H 101     -46.213 148.504  11.523  1.00 27.97     0.048 C 
HETATM   16  C12 BCR H 101     -44.223 145.290   9.516  1.00 26.46     0.007 C 
HETATM   17  C13 BCR H 101     -43.107 144.429   9.987  1.00 41.86    -0.062 C 
HETATM   18  C14 BCR H 101     -42.875 143.255   9.349  1.00 35.90     0.007 C 
HETATM   19  C15 BCR H 101     -41.810 142.285   9.670  1.00 29.55     0.001 C 
HETATM   20  C16 BCR H 101     -41.777 141.087   9.044  1.00 30.73     0.001 C 
HETATM   21  C17 BCR H 101     -40.727 140.083   9.293  1.00 38.08     0.007 C 
HETATM   22  C18 BCR H 101     -40.783 138.819   8.805  1.00 36.14    -0.062 C 
HETATM   23  C19 BCR H 101     -39.689 137.854   9.079  1.00 38.04     0.007 C 
HETATM   24  C20 BCR H 101     -39.710 136.553   8.738  1.00 32.76     0.001 C 
HETATM   25  C21 BCR H 101     -38.539 135.733   9.087  1.00 37.36     0.007 C 
HETATM   26  C22 BCR H 101     -38.445 134.407   8.855  1.00 42.44    -0.062 C 
HETATM   27  C23 BCR H 101     -37.329 133.720   9.207  1.00 37.41     0.007 C 
HETATM   28  C24 BCR H 101     -37.170 132.402   8.967  1.00 28.37     0.009 C 
HETATM   29  C25 BCR H 101     -35.973 131.584   9.353  1.00 39.73    -0.048 C 
HETATM   30  C26 BCR H 101     -35.768 131.240  10.643  1.00 39.78    -0.077 C 
HETATM   31  C27 BCR H 101     -34.597 130.405  11.119  1.00 29.87     0.034 C 
HETATM   32  C28 BCR H 101     -33.503 130.197  10.086  1.00 35.21     0.005 C 
HETATM   33  C29 BCR H 101     -34.098 129.978   8.701  1.00 34.71     0.014 C 
HETATM   34  C30 BCR H 101     -35.013 131.126   8.267  1.00 48.99    -0.020 C 
HETATM   35  C35 BCR H 101     -42.275 144.863  11.158  1.00 43.67     0.048 C 
HETATM   36  C36 BCR H 101     -41.957 138.377   7.983  1.00 38.66     0.048 C 
HETATM   37  C37 BCR H 101     -39.608 133.706   8.219  1.00 32.15     0.048 C 
HETATM   38  C38 BCR H 101     -36.734 131.676  11.710  1.00 38.36     0.044 C 
HETATM   39  C39 BCR H 101     -35.833 130.634   7.079  1.00 45.00     0.020 C 
HETATM   40  C40 BCR H 101     -34.182 132.315   7.804  1.00 59.25     0.020 C 
ENDROOT
TORSDOF 10
