REMARK VINA RESULT:    -7.570      3.260      5.090
REMARK INTER + INTRA:         -14.548
REMARK INTER:                 -12.120
REMARK INTRA:                  -2.428
REMARK UNBOUND:                -6.978
REMARK  0 active torsions:
REMARK  status: ('A' for Active; 'I' for Inactive)
REMARK       I    between atoms: C6_6  and  C7_7 
REMARK       I    between atoms: C8_8  and  C9_9 
REMARK       I    between atoms: C10_10  and  C11_11 
REMARK       I    between atoms: C12_16  and  C13_17 
REMARK       I    between atoms: C14_18  and  C15_19 
REMARK       I    between atoms: C16_20  and  C17_21 
REMARK       I    between atoms: C18_22  and  C19_23 
REMARK       I    between atoms: C20_24  and  C21_25 
REMARK       I    between atoms: C22_26  and  C23_27 
REMARK       I    between atoms: C24_28  and  C25_29 
ROOT
HETATM    1  C1  BCR A 409     -34.066 126.857   6.725  1.00 15.04    -0.020 C 
HETATM    2  C2  BCR A 409     -33.293 125.980   5.753  1.00 15.03     0.014 C 
HETATM    3  C3  BCR A 409     -32.731 126.782   4.620  1.00 15.05     0.005 C 
HETATM    4  C4  BCR A 409     -31.770 127.803   5.155  1.00 15.05     0.034 C 
HETATM    5  C5  BCR A 409     -32.372 128.585   6.258  1.00 15.05    -0.077 C 
HETATM    6  C6  BCR A 409     -33.433 128.193   6.981  1.00 15.04    -0.048 C 
HETATM    7  C7  BCR A 409     -33.982 129.016   8.073  1.00 15.04     0.009 C 
HETATM    8  C8  BCR A 409     -34.851 130.023   7.890  1.00 15.04     0.007 C 
HETATM    9  C9  BCR A 409     -35.342 130.905   8.937  1.00 15.05    -0.062 C 
HETATM   10  C10 BCR A 409     -35.988 132.028   8.598  1.00 15.04     0.007 C 
HETATM   11  C11 BCR A 409     -36.508 133.007   9.526  1.00 15.04     0.001 C 
HETATM   12  C33 BCR A 409     -31.687 129.869   6.483  1.00 15.05     0.044 C 
HETATM   13  C31 BCR A 409     -34.160 126.045   7.997  1.00 15.03     0.020 C 
HETATM   14  C32 BCR A 409     -35.470 127.007   6.174  1.00 15.04     0.020 C 
HETATM   15  C34 BCR A 409     -35.399 130.388  10.316  1.00 15.07     0.048 C 
HETATM   16  C12 BCR A 409     -37.361 133.934   9.080  1.00 15.03     0.007 C 
HETATM   17  C13 BCR A 409     -38.059 134.901   9.896  1.00 15.02    -0.062 C 
HETATM   18  C14 BCR A 409     -38.913 135.750   9.306  1.00 15.00     0.007 C 
HETATM   19  C15 BCR A 409     -39.617 136.789  10.007  1.00 14.99     0.001 C 
HETATM   20  C16 BCR A 409     -40.214 137.768   9.321  1.00 14.98     0.001 C 
HETATM   21  C17 BCR A 409     -40.984 138.739  10.042  1.00 14.98     0.007 C 
HETATM   22  C18 BCR A 409     -41.809 139.658   9.527  1.00 14.98    -0.062 C 
HETATM   23  C19 BCR A 409     -42.570 140.470  10.449  1.00 14.98     0.007 C 
HETATM   24  C20 BCR A 409     -43.068 141.658  10.108  1.00 15.00     0.001 C 
HETATM   25  C21 BCR A 409     -44.013 142.320  10.976  1.00 14.99     0.007 C 
HETATM   26  C22 BCR A 409     -44.224 143.638  10.991  1.00 14.99    -0.062 C 
HETATM   27  C23 BCR A 409     -44.905 144.244  12.121  1.00 14.97     0.007 C 
HETATM   28  C24 BCR A 409     -45.458 145.459  12.037  1.00 14.93     0.009 C 
HETATM   29  C25 BCR A 409     -46.249 146.146  13.049  1.00 14.90    -0.048 C 
HETATM   30  C26 BCR A 409     -47.551 145.900  13.227  1.00 14.90    -0.077 C 
HETATM   31  C27 BCR A 409     -48.438 146.550  14.205  1.00 14.89     0.034 C 
HETATM   32  C28 BCR A 409     -47.660 147.226  15.301  1.00 14.90     0.005 C 
HETATM   33  C29 BCR A 409     -46.520 148.011  14.713  1.00 14.91     0.014 C 
HETATM   34  C30 BCR A 409     -45.555 147.194  13.866  1.00 14.90    -0.020 C 
HETATM   35  C35 BCR A 409     -37.956 134.856  11.365  1.00 15.02     0.048 C 
HETATM   36  C36 BCR A 409     -41.850 139.999   8.091  1.00 14.95     0.048 C 
HETATM   37  C37 BCR A 409     -43.999 144.453   9.784  1.00 15.00     0.048 C 
HETATM   38  C38 BCR A 409     -48.313 144.910  12.446  1.00 14.89     0.044 C 
HETATM   39  C39 BCR A 409     -44.462 146.601  14.736  1.00 14.93     0.020 C 
HETATM   40  C40 BCR A 409     -44.870 148.212  12.974  1.00 14.91     0.020 C 
ENDROOT
TORSDOF 10
