REMARK VINA RESULT:    -5.851      2.694     16.587
REMARK INTER + INTRA:         -12.497
REMARK INTER:                  -8.983
REMARK INTRA:                  -3.514
REMARK UNBOUND:                -6.646
REMARK  0 active torsions:
REMARK  status: ('A' for Active; 'I' for Inactive)
REMARK       I    between atoms: C6_6  and  C7_7 
REMARK       I    between atoms: C8_8  and  C9_9 
REMARK       I    between atoms: C10_10  and  C11_11 
REMARK       I    between atoms: C12_16  and  C13_17 
REMARK       I    between atoms: C14_18  and  C15_19 
REMARK       I    between atoms: C16_20  and  C17_21 
REMARK       I    between atoms: C18_22  and  C19_23 
REMARK       I    between atoms: C20_24  and  C21_25 
REMARK       I    between atoms: C22_26  and  C23_27 
REMARK       I    between atoms: C24_28  and  C25_29 
ROOT
HETATM    1  C1  BCR B 617     -46.536 147.608  12.072  1.00 26.29    -0.020 C 
HETATM    2  C2  BCR B 617     -47.155 148.655  12.986  1.00 24.49     0.014 C 
HETATM    3  C3  BCR B 617     -47.142 148.196  14.427  1.00 22.61     0.005 C 
HETATM    4  C4  BCR B 617     -45.744 147.910  14.916  1.00 25.50     0.034 C 
HETATM    5  C5  BCR B 617     -44.796 147.479  13.831  1.00 27.16    -0.077 C 
HETATM    6  C6  BCR B 617     -45.184 147.203  12.576  1.00 26.27    -0.048 C 
HETATM    7  C7  BCR B 617     -44.314 146.494  11.623  1.00 19.27     0.009 C 
HETATM    8  C8  BCR B 617     -44.020 145.204  11.782  1.00 21.60     0.007 C 
HETATM    9  C9  BCR B 617     -43.162 144.469  10.831  1.00 23.86    -0.062 C 
HETATM   10  C10 BCR B 617     -42.692 143.270  11.182  1.00 19.60     0.007 C 
HETATM   11  C11 BCR B 617     -41.843 142.434  10.349  1.00 18.33     0.001 C 
HETATM   12  C33 BCR B 617     -43.362 147.361  14.237  1.00 29.92     0.044 C 
HETATM   13  C31 BCR B 617     -46.405 148.190  10.674  1.00 24.31     0.020 C 
HETATM   14  C32 BCR B 617     -47.389 146.350  12.064  1.00 18.56     0.020 C 
HETATM   15  C34 BCR B 617     -42.848 145.055   9.492  1.00 23.81     0.048 C 
HETATM   16  C12 BCR B 617     -41.798 141.130  10.622  1.00 17.62     0.007 C 
HETATM   17  C13 BCR B 617     -40.979 140.171   9.866  1.00 18.11    -0.062 C 
HETATM   18  C14 BCR B 617     -40.872 138.900  10.313  1.00 18.92     0.007 C 
HETATM   19  C15 BCR B 617     -40.067 137.884   9.632  1.00 19.09     0.001 C 
HETATM   20  C16 BCR B 617     -39.686 136.748  10.224  1.00 23.01     0.001 C 
HETATM   21  C17 BCR B 617     -38.879 135.783   9.475  1.00 24.11     0.007 C 
HETATM   22  C18 BCR B 617     -38.450 134.591   9.923  1.00 19.95    -0.062 C 
HETATM   23  C19 BCR B 617     -37.660 133.750   9.030  1.00 21.01     0.007 C 
HETATM   24  C20 BCR B 617     -37.181 132.570   9.407  1.00 25.10     0.001 C 
HETATM   25  C21 BCR B 617     -36.434 131.815   8.406  1.00 22.05     0.007 C 
HETATM   26  C22 BCR B 617     -35.732 130.711   8.653  1.00 21.59    -0.062 C 
HETATM   27  C23 BCR B 617     -35.041 130.065   7.533  1.00 25.46     0.007 C 
HETATM   28  C24 BCR B 617     -34.157 129.097   7.743  1.00 27.51     0.009 C 
HETATM   29  C25 BCR B 617     -33.443 128.381   6.663  1.00 24.70    -0.048 C 
HETATM   30  C26 BCR B 617     -32.482 128.946   5.940  1.00 30.61    -0.077 C 
HETATM   31  C27 BCR B 617     -31.717 128.140   4.931  1.00 27.25     0.034 C 
HETATM   32  C28 BCR B 617     -32.767 127.363   4.175  1.00 25.90     0.005 C 
HETATM   33  C29 BCR B 617     -33.411 126.365   5.112  1.00 30.03     0.014 C 
HETATM   34  C30 BCR B 617     -33.819 126.938   6.463  1.00 27.09    -0.020 C 
HETATM   35  C35 BCR B 617     -40.276 140.599   8.616  1.00 15.67     0.048 C 
HETATM   36  C36 BCR B 617     -38.753 134.095  11.291  1.00 21.62     0.048 C 
HETATM   37  C37 BCR B 617     -35.653 130.117  10.023  1.00 24.04     0.048 C 
HETATM   38  C38 BCR B 617     -32.142 130.392   6.086  1.00 30.71     0.044 C 
HETATM   39  C39 BCR B 617     -33.154 126.171   7.591  1.00 28.41     0.020 C 
HETATM   40  C40 BCR B 617     -35.322 126.775   6.585  1.00 28.54     0.020 C 
ENDROOT
TORSDOF 10
