REMARK VINA RESULT:    -7.719      3.038      5.094
REMARK INTER + INTRA:         -14.077
REMARK INTER:                 -11.090
REMARK INTRA:                  -2.987
REMARK UNBOUND:                -6.358
REMARK  0 active torsions:
REMARK  status: ('A' for Active; 'I' for Inactive)
REMARK       I    between atoms: C6_6  and  C7_7 
REMARK       I    between atoms: C8_8  and  C9_9 
REMARK       I    between atoms: C10_10  and  C11_11 
REMARK       I    between atoms: C12_16  and  C13_17 
REMARK       I    between atoms: C14_18  and  C15_19 
REMARK       I    between atoms: C16_20  and  C17_21 
REMARK       I    between atoms: C18_22  and  C19_23 
REMARK       I    between atoms: C20_24  and  C21_25 
REMARK       I    between atoms: C22_26  and  C23_27 
REMARK       I    between atoms: C24_28  and  C25_29 
ROOT
HETATM    1  C1  BCR B 620     -43.571 149.012  11.984  1.00 59.21    -0.020 C 
HETATM    2  C2  BCR B 620     -43.679 150.084  13.063  1.00 51.24     0.014 C 
HETATM    3  C3  BCR B 620     -43.431 149.503  14.436  1.00 59.98     0.005 C 
HETATM    4  C4  BCR B 620     -44.540 148.511  14.716  1.00 63.95     0.034 C 
HETATM    5  C5  BCR B 620     -44.519 147.419  13.676  1.00 56.60    -0.077 C 
HETATM    6  C6  BCR B 620     -44.075 147.646  12.423  1.00 59.07    -0.048 C 
HETATM    7  C7  BCR B 620     -44.036 146.599  11.366  1.00 54.02     0.009 C 
HETATM    8  C8  BCR B 620     -43.445 145.409  11.523  1.00 65.68     0.007 C 
HETATM    9  C9  BCR B 620     -43.371 144.371  10.475  1.00 53.63    -0.062 C 
HETATM   10  C10 BCR B 620     -42.724 143.233  10.794  1.00 46.58     0.007 C 
HETATM   11  C11 BCR B 620     -42.476 142.097   9.905  1.00 41.79     0.001 C 
HETATM   12  C33 BCR B 620     -45.029 146.087  14.130  1.00 51.12     0.044 C 
HETATM   13  C31 BCR B 620     -42.109 148.928  11.532  1.00 43.92     0.020 C 
HETATM   14  C32 BCR B 620     -44.461 149.411  10.815  1.00 55.12     0.020 C 
HETATM   15  C34 BCR B 620     -43.975 144.605   9.121  1.00 45.21     0.048 C 
HETATM   16  C12 BCR B 620     -41.641 141.172  10.396  1.00 45.96     0.007 C 
HETATM   17  C13 BCR B 620     -41.195 139.979   9.652  1.00 40.88    -0.062 C 
HETATM   18  C14 BCR B 620     -40.658 138.921  10.297  1.00 41.01     0.007 C 
HETATM   19  C15 BCR B 620     -40.143 137.767   9.550  1.00 42.22     0.001 C 
HETATM   20  C16 BCR B 620     -39.287 136.921  10.149  1.00 44.26     0.001 C 
HETATM   21  C17 BCR B 620     -38.679 135.800   9.417  1.00 36.26     0.007 C 
HETATM   22  C18 BCR B 620     -38.066 134.751   9.989  1.00 40.60    -0.062 C 
HETATM   23  C19 BCR B 620     -37.453 133.724   9.105  1.00 46.29     0.007 C 
HETATM   24  C20 BCR B 620     -36.737 132.677   9.547  1.00 50.06     0.001 C 
HETATM   25  C21 BCR B 620     -36.151 131.753   8.566  1.00 37.91     0.007 C 
HETATM   26  C22 BCR B 620     -35.481 130.620   8.863  1.00 42.97    -0.062 C 
HETATM   27  C23 BCR B 620     -34.979 129.888   7.849  1.00 48.87     0.007 C 
HETATM   28  C24 BCR B 620     -34.040 128.932   8.006  1.00 45.55     0.009 C 
HETATM   29  C25 BCR B 620     -33.505 128.173   6.840  1.00 43.88    -0.048 C 
HETATM   30  C26 BCR B 620     -32.673 128.783   5.967  1.00 47.72    -0.077 C 
HETATM   31  C27 BCR B 620     -32.083 128.097   4.759  1.00 52.50     0.034 C 
HETATM   32  C28 BCR B 620     -32.959 126.932   4.348  1.00 49.92     0.005 C 
HETATM   33  C29 BCR B 620     -33.103 126.034   5.558  1.00 50.61     0.014 C 
HETATM   34  C30 BCR B 620     -33.901 126.721   6.664  1.00 54.77    -0.020 C 
HETATM   35  C35 BCR B 620     -41.324 139.994   8.153  1.00 35.11     0.048 C 
HETATM   36  C36 BCR B 620     -38.010 134.636  11.488  1.00 37.84     0.048 C 
HETATM   37  C37 BCR B 620     -35.295 130.167  10.287  1.00 32.11     0.048 C 
HETATM   38  C38 BCR B 620     -32.269 130.211   6.150  1.00 42.60     0.044 C 
HETATM   39  C39 BCR B 620     -33.652 125.958   7.969  1.00 50.58     0.020 C 
HETATM   40  C40 BCR B 620     -35.385 126.648   6.307  1.00 40.99     0.020 C 
ENDROOT
TORSDOF 10
