REMARK VINA RESULT:    -6.960      0.797     15.844
REMARK INTER + INTRA:         -10.830
REMARK INTER:                  -8.538
REMARK INTRA:                  -2.292
REMARK UNBOUND:                -3.870
REMARK  0 active torsions:
REMARK  status: ('A' for Active; 'I' for Inactive)
REMARK       I    between atoms: C6_6  and  C7_7 
REMARK       I    between atoms: C8_8  and  C9_9 
REMARK       I    between atoms: C10_10  and  C11_11 
REMARK       I    between atoms: C12_16  and  C13_17 
REMARK       I    between atoms: C14_18  and  C15_19 
REMARK       I    between atoms: C16_20  and  C17_21 
REMARK       I    between atoms: C18_22  and  C19_23 
REMARK       I    between atoms: C20_24  and  C21_25 
REMARK       I    between atoms: C22_26  and  C23_27 
REMARK       I    between atoms: C24_28  and  C25_29 
ROOT
HETATM    1  C1  BCR K 103     -50.157 142.622  12.084  1.00 56.77    -0.020 C 
HETATM    2  C2  BCR K 103     -51.258 143.021  13.043  1.00 45.87     0.014 C 
HETATM    3  C3  BCR K 103     -50.692 143.736  14.231  1.00 50.21     0.005 C 
HETATM    4  C4  BCR K 103     -50.055 145.022  13.786  1.00 55.76     0.034 C 
HETATM    5  C5  BCR K 103     -49.043 144.730  12.753  1.00 58.42    -0.077 C 
HETATM    6  C6  BCR K 103     -49.053 143.627  11.981  1.00 56.84    -0.048 C 
HETATM    7  C7  BCR K 103     -48.054 143.367  10.942  1.00 58.02     0.009 C 
HETATM    8  C8  BCR K 103     -46.790 143.061  11.228  1.00 55.60     0.007 C 
HETATM    9  C9  BCR K 103     -45.842 142.603  10.227  1.00 59.41    -0.062 C 
HETATM   10  C10 BCR K 103     -44.783 141.862  10.592  1.00 53.38     0.007 C 
HETATM   11  C11 BCR K 103     -43.966 141.118   9.668  1.00 50.51     0.001 C 
HETATM   12  C33 BCR K 103     -48.010 145.779  12.672  1.00 50.72     0.044 C 
HETATM   13  C31 BCR K 103     -50.803 142.398  10.724  1.00 56.63     0.020 C 
HETATM   14  C32 BCR K 103     -49.638 141.281  12.545  1.00 56.21     0.020 C 
HETATM   15  C34 BCR K 103     -46.008 143.100   8.848  1.00 55.47     0.048 C 
HETATM   16  C12 BCR K 103     -43.046 140.291  10.150  1.00 38.57     0.007 C 
HETATM   17  C13 BCR K 103     -42.185 139.476   9.340  1.00 36.45    -0.062 C 
HETATM   18  C14 BCR K 103     -41.330 138.680   9.997  1.00 45.53     0.007 C 
HETATM   19  C15 BCR K 103     -40.429 137.739   9.386  1.00 39.78     0.001 C 
HETATM   20  C16 BCR K 103     -39.712 136.938  10.185  1.00 43.24     0.001 C 
HETATM   21  C17 BCR K 103     -38.909 135.912   9.560  1.00 54.91     0.007 C 
HETATM   22  C18 BCR K 103     -38.111 135.014  10.161  1.00 49.76    -0.062 C 
HETATM   23  C19 BCR K 103     -37.153 134.287   9.324  1.00 46.29     0.007 C 
HETATM   24  C20 BCR K 103     -36.374 133.289   9.755  1.00 45.35     0.001 C 
HETATM   25  C21 BCR K 103     -35.726 132.401   8.805  1.00 43.82     0.007 C 
HETATM   26  C22 BCR K 103     -35.258 131.165   9.082  1.00 45.32    -0.062 C 
HETATM   27  C23 BCR K 103     -34.701 130.338   8.007  1.00 50.38     0.007 C 
HETATM   28  C24 BCR K 103     -34.073 129.168   8.180  1.00 43.89     0.009 C 
HETATM   29  C25 BCR K 103     -33.477 128.394   7.091  1.00 45.21    -0.048 C 
HETATM   30  C26 BCR K 103     -32.301 128.727   6.548  1.00 43.50    -0.077 C 
HETATM   31  C27 BCR K 103     -31.623 128.024   5.448  1.00 46.50     0.034 C 
HETATM   32  C28 BCR K 103     -32.100 126.603   5.322  1.00 48.43     0.005 C 
HETATM   33  C29 BCR K 103     -33.596 126.569   5.364  1.00 49.94     0.014 C 
HETATM   34  C30 BCR K 103     -34.210 127.180   6.607  1.00 40.03    -0.020 C 
HETATM   35  C35 BCR K 103     -41.941 139.876   7.938  1.00 51.19     0.048 C 
HETATM   36  C36 BCR K 103     -38.150 134.815  11.633  1.00 40.30     0.048 C 
HETATM   37  C37 BCR K 103     -35.592 130.529  10.374  1.00 47.05     0.048 C 
HETATM   38  C38 BCR K 103     -31.528 129.914   6.949  1.00 45.74     0.044 C 
HETATM   39  C39 BCR K 103     -34.233 126.178   7.725  1.00 41.11     0.020 C 
HETATM   40  C40 BCR K 103     -35.662 127.467   6.234  1.00 43.62     0.020 C 
ENDROOT
TORSDOF 10
