REMARK VINA RESULT:    -8.861      0.977     16.445
REMARK INTER + INTRA:         -11.338
REMARK INTER:                  -6.596
REMARK INTRA:                  -4.742
REMARK UNBOUND:                -2.477
REMARK  0 active torsions:
REMARK  status: ('A' for Active; 'I' for Inactive)
REMARK       I    between atoms: C6_6  and  C7_7 
REMARK       I    between atoms: C8_8  and  C9_9 
REMARK       I    between atoms: C10_10  and  C11_11 
REMARK       I    between atoms: C12_16  and  C13_17 
REMARK       I    between atoms: C14_18  and  C15_19 
REMARK       I    between atoms: C16_20  and  C17_21 
REMARK       I    between atoms: C18_22  and  C19_23 
REMARK       I    between atoms: C20_24  and  C21_25 
REMARK       I    between atoms: C22_26  and  C23_27 
REMARK       I    between atoms: C24_28  and  C25_29 
ROOT
HETATM    1  C1  BCR A 411     -48.258 147.064  12.363  1.00 34.05    -0.020 C 
HETATM    2  C2  BCR A 411     -48.970 147.989  13.355  1.00 36.23     0.014 C 
HETATM    3  C3  BCR A 411     -48.426 147.809  14.766  1.00 33.07     0.005 C 
HETATM    4  C4  BCR A 411     -46.955 148.225  14.822  1.00 33.10     0.034 C 
HETATM    5  C5  BCR A 411     -46.157 147.566  13.687  1.00 30.69    -0.077 C 
HETATM    6  C6  BCR A 411     -46.748 147.082  12.570  1.00 30.04    -0.048 C 
HETATM    7  C7  BCR A 411     -45.917 146.460  11.482  1.00 26.76     0.009 C 
HETATM    8  C8  BCR A 411     -45.259 145.302  11.770  1.00 27.28     0.007 C 
HETATM    9  C9  BCR A 411     -44.455 144.582  10.747  1.00 28.08    -0.062 C 
HETATM   10  C10 BCR A 411     -43.776 143.460  11.140  1.00 26.21     0.007 C 
HETATM   11  C11 BCR A 411     -42.993 142.652  10.210  1.00 26.20     0.001 C 
HETATM   12  C33 BCR A 411     -44.667 147.601  13.832  1.00 31.19     0.044 C 
HETATM   13  C31 BCR A 411     -48.575 147.534  10.924  1.00 32.76     0.020 C 
HETATM   14  C32 BCR A 411     -48.819 145.656  12.551  1.00 29.01     0.020 C 
HETATM   15  C34 BCR A 411     -44.488 145.104   9.316  1.00 27.13     0.048 C 
HETATM   16  C12 BCR A 411     -42.502 141.459  10.637  1.00 25.91     0.007 C 
HETATM   17  C13 BCR A 411     -41.666 140.529   9.814  1.00 28.13    -0.062 C 
HETATM   18  C14 BCR A 411     -41.276 139.354  10.354  1.00 26.80     0.007 C 
HETATM   19  C15 BCR A 411     -40.481 138.311   9.664  1.00 23.65     0.001 C 
HETATM   20  C16 BCR A 411     -40.029 137.241  10.348  1.00 25.01     0.001 C 
HETATM   21  C17 BCR A 411     -39.336 136.209   9.563  1.00 24.87     0.007 C 
HETATM   22  C18 BCR A 411     -38.918 134.999  10.013  1.00 26.74    -0.062 C 
HETATM   23  C19 BCR A 411     -38.249 134.059   9.060  1.00 22.57     0.007 C 
HETATM   24  C20 BCR A 411     -37.493 133.052   9.444  1.00 21.95     0.001 C 
HETATM   25  C21 BCR A 411     -36.868 132.177   8.444  1.00 26.44     0.007 C 
HETATM   26  C22 BCR A 411     -35.906 131.277   8.731  1.00 26.69    -0.062 C 
HETATM   27  C23 BCR A 411     -35.351 130.466   7.613  1.00 22.74     0.007 C 
HETATM   28  C24 BCR A 411     -34.275 129.662   7.774  1.00 21.39     0.009 C 
HETATM   29  C25 BCR A 411     -33.694 128.886   6.656  1.00 21.80    -0.048 C 
HETATM   30  C26 BCR A 411     -34.495 128.036   5.945  1.00 24.09    -0.077 C 
HETATM   31  C27 BCR A 411     -34.077 127.186   4.740  1.00 21.42     0.034 C 
HETATM   32  C28 BCR A 411     -32.722 127.693   4.210  1.00 25.08     0.005 C 
HETATM   33  C29 BCR A 411     -31.748 127.973   5.391  1.00 24.49     0.014 C 
HETATM   34  C30 BCR A 411     -32.202 129.078   6.366  1.00 24.42    -0.020 C 
HETATM   35  C35 BCR A 411     -41.209 140.885   8.406  1.00 27.87     0.048 C 
HETATM   36  C36 BCR A 411     -39.041 134.596  11.453  1.00 23.84     0.048 C 
HETATM   37  C37 BCR A 411     -35.347 131.109  10.145  1.00 27.51     0.048 C 
HETATM   38  C38 BCR A 411     -35.942 127.805   6.270  1.00 22.20     0.044 C 
HETATM   39  C39 BCR A 411     -31.933 130.521   5.854  1.00 24.11     0.020 C 
HETATM   40  C40 BCR A 411     -31.397 128.897   7.653  1.00 24.62     0.020 C 
ENDROOT
TORSDOF 10
