REMARK VINA RESULT:   -10.431      2.012     16.457
REMARK INTER + INTRA:         -13.667
REMARK INTER:                  -6.809
REMARK INTRA:                  -6.857
REMARK UNBOUND:                -3.236
REMARK  0 active torsions:
REMARK  status: ('A' for Active; 'I' for Inactive)
REMARK       I    between atoms: C6_6  and  C7_7 
REMARK       I    between atoms: C8_8  and  C9_9 
REMARK       I    between atoms: C10_10  and  C11_11 
REMARK       I    between atoms: C12_16  and  C13_17 
REMARK       I    between atoms: C14_18  and  C15_19 
REMARK       I    between atoms: C16_20  and  C17_21 
REMARK       I    between atoms: C18_22  and  C19_23 
REMARK       I    between atoms: C20_24  and  C21_25 
REMARK       I    between atoms: C22_26  and  C23_27 
REMARK       I    between atoms: C24_28  and  C25_29 
ROOT
HETATM    1  C1  BCR H 102     -51.355 149.481   9.954  1.00 48.43    -0.020 C 
HETATM    2  C2  BCR H 102     -52.594 149.849   9.165  1.00 45.30     0.014 C 
HETATM    3  C3  BCR H 102     -52.410 151.152   8.454  1.00 43.50     0.005 C 
HETATM    4  C4  BCR H 102     -51.281 151.001   7.481  1.00 33.84     0.034 C 
HETATM    5  C5  BCR H 102     -50.051 150.527   8.137  1.00 31.85    -0.077 C 
HETATM    6  C6  BCR H 102     -50.041 149.830   9.278  1.00 30.25    -0.048 C 
HETATM    7  C7  BCR H 102     -48.820 149.357   9.936  1.00 35.33     0.009 C 
HETATM    8  C8  BCR H 102     -47.836 148.690   9.306  1.00 43.57     0.007 C 
HETATM    9  C9  BCR H 102     -46.612 148.233   9.959  1.00 33.88    -0.062 C 
HETATM   10  C10 BCR H 102     -45.878 147.237   9.439  1.00 37.36     0.007 C 
HETATM   11  C11 BCR H 102     -44.918 146.430  10.162  1.00 39.57     0.001 C 
HETATM   12  C33 BCR H 102     -48.840 150.866   7.348  1.00 42.29     0.044 C 
HETATM   13  C31 BCR H 102     -51.473 147.991  10.186  1.00 39.85     0.020 C 
HETATM   14  C32 BCR H 102     -51.525 150.145  11.301  1.00 37.04     0.020 C 
HETATM   15  C34 BCR H 102     -46.393 148.671  11.351  1.00 43.60     0.048 C 
HETATM   16  C12 BCR H 102     -44.078 145.617   9.492  1.00 44.45     0.007 C 
HETATM   17  C13 BCR H 102     -43.296 144.542  10.080  1.00 40.33    -0.062 C 
HETATM   18  C14 BCR H 102     -42.989 143.461   9.346  1.00 40.69     0.007 C 
HETATM   19  C15 BCR H 102     -42.061 142.412   9.722  1.00 43.47     0.001 C 
HETATM   20  C16 BCR H 102     -41.922 141.365   8.900  1.00 39.77     0.001 C 
HETATM   21  C17 BCR H 102     -41.086 140.261   9.287  1.00 45.28     0.007 C 
HETATM   22  C18 BCR H 102     -41.070 139.043   8.727  1.00 40.17    -0.062 C 
HETATM   23  C19 BCR H 102     -40.052 138.100   9.167  1.00 43.20     0.007 C 
HETATM   24  C20 BCR H 102     -40.106 136.783   8.952  1.00 48.88     0.001 C 
HETATM   25  C21 BCR H 102     -38.923 135.971   9.188  1.00 49.74     0.007 C 
HETATM   26  C22 BCR H 102     -38.800 134.661   8.907  1.00 50.14    -0.062 C 
HETATM   27  C23 BCR H 102     -37.605 133.948   9.371  1.00 44.53     0.007 C 
HETATM   28  C24 BCR H 102     -37.477 132.610   9.332  1.00 55.23     0.009 C 
HETATM   29  C25 BCR H 102     -36.275 131.856   9.707  1.00 54.54    -0.048 C 
HETATM   30  C26 BCR H 102     -36.121 131.343  10.929  1.00 52.60    -0.077 C 
HETATM   31  C27 BCR H 102     -34.953 130.569  11.419  1.00 52.80     0.034 C 
HETATM   32  C28 BCR H 102     -34.078 130.015  10.317  1.00 54.83     0.005 C 
HETATM   33  C29 BCR H 102     -33.948 130.985   9.174  1.00 57.72     0.014 C 
HETATM   34  C30 BCR H 102     -35.230 131.649   8.666  1.00 53.00    -0.020 C 
HETATM   35  C35 BCR H 102     -42.692 144.694  11.414  1.00 52.18     0.048 C 
HETATM   36  C36 BCR H 102     -42.056 138.627   7.702  1.00 35.95     0.048 C 
HETATM   37  C37 BCR H 102     -39.825 133.976   8.072  1.00 46.70     0.048 C 
HETATM   38  C38 BCR H 102     -37.159 131.519  11.978  1.00 55.38     0.044 C 
HETATM   39  C39 BCR H 102     -35.820 130.899   7.494  1.00 45.73     0.020 C 
HETATM   40  C40 BCR H 102     -34.771 132.980   8.111  1.00 63.22     0.020 C 
ENDROOT
TORSDOF 10
