REMARK VINA RESULT:    -6.234      1.745     16.163
REMARK INTER + INTRA:         -10.644
REMARK INTER:                  -6.714
REMARK INTRA:                  -3.930
REMARK UNBOUND:                -4.409
REMARK  0 active torsions:
REMARK  status: ('A' for Active; 'I' for Inactive)
REMARK       I    between atoms: C6_6  and  C7_7 
REMARK       I    between atoms: C8_8  and  C9_9 
REMARK       I    between atoms: C10_10  and  C11_11 
REMARK       I    between atoms: C12_16  and  C13_17 
REMARK       I    between atoms: C14_18  and  C15_19 
REMARK       I    between atoms: C16_20  and  C17_21 
REMARK       I    between atoms: C18_22  and  C19_23 
REMARK       I    between atoms: C20_24  and  C21_25 
REMARK       I    between atoms: C22_26  and  C23_27 
REMARK       I    between atoms: C24_28  and  C25_29 
ROOT
HETATM    1  C1  BCR T 102     -43.149 148.226  11.637  1.00 40.91    -0.020 C 
HETATM    2  C2  BCR T 102     -43.357 149.689  12.076  1.00 42.83     0.014 C 
HETATM    3  C3  BCR T 102     -43.603 150.634  10.919  1.00 43.41     0.005 C 
HETATM    4  C4  BCR T 102     -44.798 150.242  10.076  1.00 42.59     0.034 C 
HETATM    5  C5  BCR T 102     -44.953 148.756   9.943  1.00 42.61    -0.077 C 
HETATM    6  C6  BCR T 102     -44.108 147.868  10.512  1.00 35.94    -0.048 C 
HETATM    7  C7  BCR T 102     -44.150 146.468   9.979  1.00 34.50     0.009 C 
HETATM    8  C8  BCR T 102     -43.490 145.379  10.444  1.00 37.29     0.007 C 
HETATM    9  C9  BCR T 102     -43.666 144.071   9.771  1.00 41.60    -0.062 C 
HETATM   10  C10 BCR T 102     -42.859 143.068  10.169  1.00 39.53     0.007 C 
HETATM   11  C11 BCR T 102     -42.808 141.716   9.642  1.00 43.83     0.001 C 
HETATM   12  C33 BCR T 102     -46.162 148.323   9.127  1.00 45.40     0.044 C 
HETATM   13  C31 BCR T 102     -43.284 147.339  12.877  1.00 37.85     0.020 C 
HETATM   14  C32 BCR T 102     -41.694 148.069  11.161  1.00 60.03     0.020 C 
HETATM   15  C34 BCR T 102     -44.723 143.951   8.697  1.00 48.02     0.048 C 
HETATM   16  C12 BCR T 102     -41.969 140.835  10.239  1.00 42.34     0.007 C 
HETATM   17  C13 BCR T 102     -41.800 139.477   9.658  1.00 40.69    -0.062 C 
HETATM   18  C14 BCR T 102     -40.731 138.800  10.050  1.00 29.64     0.007 C 
HETATM   19  C15 BCR T 102     -40.312 137.450   9.558  1.00 30.65     0.001 C 
HETATM   20  C16 BCR T 102     -39.417 136.685  10.173  1.00 29.14     0.001 C 
HETATM   21  C17 BCR T 102     -39.052 135.380   9.569  1.00 27.42     0.007 C 
HETATM   22  C18 BCR T 102     -38.166 134.523  10.136  1.00 26.54    -0.062 C 
HETATM   23  C19 BCR T 102     -37.859 133.350   9.308  1.00 26.35     0.007 C 
HETATM   24  C20 BCR T 102     -36.870 132.468   9.514  1.00 24.12     0.001 C 
HETATM   25  C21 BCR T 102     -36.626 131.450   8.483  1.00 23.80     0.007 C 
HETATM   26  C22 BCR T 102     -35.566 130.570   8.594  1.00 24.83    -0.062 C 
HETATM   27  C23 BCR T 102     -35.329 129.689   7.469  1.00 23.10     0.007 C 
HETATM   28  C24 BCR T 102     -34.219 128.979   7.300  1.00 25.94     0.009 C 
HETATM   29  C25 BCR T 102     -33.971 128.175   6.079  1.00 27.33    -0.048 C 
HETATM   30  C26 BCR T 102     -34.930 127.674   5.297  1.00 21.96    -0.077 C 
HETATM   31  C27 BCR T 102     -34.705 127.113   3.899  1.00 23.66     0.034 C 
HETATM   32  C28 BCR T 102     -33.271 127.338   3.451  1.00 20.98     0.005 C 
HETATM   33  C29 BCR T 102     -32.311 127.030   4.570  1.00 26.12     0.014 C 
HETATM   34  C30 BCR T 102     -32.510 127.985   5.737  1.00 28.84    -0.020 C 
HETATM   35  C35 BCR T 102     -42.671 138.996   8.557  1.00 45.71     0.048 C 
HETATM   36  C36 BCR T 102     -37.437 134.796  11.447  1.00 29.58     0.048 C 
HETATM   37  C37 BCR T 102     -34.680 130.498   9.798  1.00 29.24     0.048 C 
HETATM   38  C38 BCR T 102     -36.313 127.503   5.749  1.00 24.32     0.044 C 
HETATM   39  C39 BCR T 102     -31.990 129.375   5.327  1.00 27.10     0.020 C 
HETATM   40  C40 BCR T 102     -31.694 127.398   6.878  1.00 29.40     0.020 C 
ENDROOT
TORSDOF 10
