REMARK VINA RESULT:    -6.580      1.751     16.427
REMARK INTER + INTRA:          -9.388
REMARK INTER:                  -6.445
REMARK INTRA:                  -2.943
REMARK UNBOUND:                -2.807
REMARK  0 active torsions:
REMARK  status: ('A' for Active; 'I' for Inactive)
REMARK       I    between atoms: C6_6  and  C7_7 
REMARK       I    between atoms: C8_8  and  C9_9 
REMARK       I    between atoms: C10_10  and  C11_11 
REMARK       I    between atoms: C12_16  and  C13_17 
REMARK       I    between atoms: C14_18  and  C15_19 
REMARK       I    between atoms: C16_20  and  C17_21 
REMARK       I    between atoms: C18_22  and  C19_23 
REMARK       I    between atoms: C20_24  and  C21_25 
REMARK       I    between atoms: C22_26  and  C23_27 
REMARK       I    between atoms: C24_28  and  C25_29 
ROOT
HETATM    1  C1  BCR B 617     -48.739 146.802   9.957  1.00 41.49    -0.020 C 
HETATM    2  C2  BCR B 617     -50.032 147.344  10.544  1.00 45.09     0.014 C 
HETATM    3  C3  BCR B 617     -51.241 146.986   9.727  1.00 46.22     0.005 C 
HETATM    4  C4  BCR B 617     -51.307 145.500   9.526  1.00 43.15     0.034 C 
HETATM    5  C5  BCR B 617     -50.076 145.057   8.859  1.00 45.30    -0.077 C 
HETATM    6  C6  BCR B 617     -48.887 145.636   9.034  1.00 38.15    -0.048 C 
HETATM    7  C7  BCR B 617     -47.676 145.184   8.331  1.00 41.50     0.009 C 
HETATM    8  C8  BCR B 617     -46.857 144.232   8.813  1.00 33.63     0.007 C 
HETATM    9  C9  BCR B 617     -45.981 143.434   7.958  1.00 35.19    -0.062 C 
HETATM   10  C10 BCR B 617     -45.402 142.321   8.425  1.00 33.22     0.007 C 
HETATM   11  C11 BCR B 617     -44.129 141.795   7.958  1.00 24.33     0.001 C 
HETATM   12  C33 BCR B 617     -50.300 143.918   7.950  1.00 50.16     0.044 C 
HETATM   13  C31 BCR B 617     -47.833 146.446  11.120  1.00 49.85     0.020 C 
HETATM   14  C32 BCR B 617     -48.080 147.961   9.255  1.00 44.59     0.020 C 
HETATM   15  C34 BCR B 617     -45.488 144.066   6.713  1.00 35.95     0.048 C 
HETATM   16  C12 BCR B 617     -43.626 140.662   8.477  1.00 33.21     0.007 C 
HETATM   17  C13 BCR B 617     -42.568 139.858   7.884  1.00 33.12    -0.062 C 
HETATM   18  C14 BCR B 617     -42.022 138.877   8.628  1.00 31.10     0.007 C 
HETATM   19  C15 BCR B 617     -41.447 137.655   8.100  1.00 35.99     0.001 C 
HETATM   20  C16 BCR B 617     -40.737 136.810   8.875  1.00 30.49     0.001 C 
HETATM   21  C17 BCR B 617     -40.078 135.681   8.268  1.00 28.48     0.007 C 
HETATM   22  C18 BCR B 617     -39.627 134.553   8.867  1.00 29.63    -0.062 C 
HETATM   23  C19 BCR B 617     -38.887 133.602   8.061  1.00 31.91     0.007 C 
HETATM   24  C20 BCR B 617     -38.285 132.523   8.561  1.00 29.87     0.001 C 
HETATM   25  C21 BCR B 617     -37.499 131.695   7.674  1.00 34.48     0.007 C 
HETATM   26  C22 BCR B 617     -37.155 130.414   7.872  1.00 29.89    -0.062 C 
HETATM   27  C23 BCR B 617     -36.176 129.858   6.955  1.00 31.70     0.007 C 
HETATM   28  C24 BCR B 617     -35.800 128.586   6.964  1.00 26.71     0.009 C 
HETATM   29  C25 BCR B 617     -34.775 127.995   6.127  1.00 32.74    -0.048 C 
HETATM   30  C26 BCR B 617     -34.775 128.081   4.792  1.00 34.19    -0.077 C 
HETATM   31  C27 BCR B 617     -33.774 127.466   3.894  1.00 36.44     0.034 C 
HETATM   32  C28 BCR B 617     -32.497 127.118   4.621  1.00 33.65     0.005 C 
HETATM   33  C29 BCR B 617     -32.852 126.423   5.885  1.00 31.35     0.014 C 
HETATM   34  C30 BCR B 617     -33.724 127.215   6.837  1.00 33.77    -0.020 C 
HETATM   35  C35 BCR B 617     -41.952 140.263   6.587  1.00 35.31     0.048 C 
HETATM   36  C36 BCR B 617     -40.004 134.126  10.225  1.00 27.23     0.048 C 
HETATM   37  C37 BCR B 617     -37.793 129.573   8.927  1.00 28.60     0.048 C 
HETATM   38  C38 BCR B 617     -35.783 128.848   4.024  1.00 33.66     0.044 C 
HETATM   39  C39 BCR B 617     -32.930 128.114   7.763  1.00 31.39     0.020 C 
HETATM   40  C40 BCR B 617     -34.301 126.140   7.734  1.00 32.27     0.020 C 
ENDROOT
TORSDOF 10
