REMARK VINA RESULT:    -6.107      0.000      0.000
REMARK INTER + INTRA:          -9.521
REMARK INTER:                  -6.107
REMARK INTRA:                  -3.414
REMARK UNBOUND:                -3.414
REMARK  0 active torsions:
REMARK  status: ('A' for Active; 'I' for Inactive)
REMARK       I    between atoms: C6_6  and  C7_7 
REMARK       I    between atoms: C8_8  and  C9_9 
REMARK       I    between atoms: C10_10  and  C11_11 
REMARK       I    between atoms: C12_16  and  C13_17 
REMARK       I    between atoms: C14_18  and  C15_19 
REMARK       I    between atoms: C16_20  and  C17_21 
REMARK       I    between atoms: C18_22  and  C19_23 
REMARK       I    between atoms: C20_24  and  C21_25 
REMARK       I    between atoms: C22_26  and  C23_27 
REMARK       I    between atoms: C24_28  and  C25_29 
ROOT
HETATM    1  C1  BCR D 403     -50.412 146.758   9.237  1.00 31.64    -0.020 C 
HETATM    2  C2  BCR D 403     -51.883 146.998   9.553  1.00 36.91     0.014 C 
HETATM    3  C3  BCR D 403     -52.347 146.152  10.726  1.00 34.30     0.005 C 
HETATM    4  C4  BCR D 403     -52.248 144.689  10.355  1.00 20.39     0.034 C 
HETATM    5  C5  BCR D 403     -50.905 144.345   9.760  1.00 30.73    -0.077 C 
HETATM    6  C6  BCR D 403     -50.061 145.275   9.253  1.00 34.13    -0.048 C 
HETATM    7  C7  BCR D 403     -48.752 144.864   8.664  1.00 22.47     0.009 C 
HETATM    8  C8  BCR D 403     -47.668 144.460   9.342  1.00 27.46     0.007 C 
HETATM    9  C9  BCR D 403     -46.454 144.060   8.590  1.00 32.57    -0.062 C 
HETATM   10  C10 BCR D 403     -45.566 143.218   9.143  1.00 21.68     0.007 C 
HETATM   11  C11 BCR D 403     -44.360 142.720   8.467  1.00 23.10     0.001 C 
HETATM   12  C33 BCR D 403     -50.562 142.878   9.752  1.00 25.91     0.044 C 
HETATM   13  C31 BCR D 403     -49.513 147.508  10.220  1.00 40.32     0.020 C 
HETATM   14  C32 BCR D 403     -50.177 147.295   7.829  1.00 29.64     0.020 C 
HETATM   15  C34 BCR D 403     -46.223 144.608   7.211  1.00 31.14     0.048 C 
HETATM   16  C12 BCR D 403     -43.662 141.795   9.135  1.00 20.09     0.007 C 
HETATM   17  C13 BCR D 403     -42.479 141.068   8.642  1.00 19.95    -0.062 C 
HETATM   18  C14 BCR D 403     -41.866 140.167   9.456  1.00 30.05     0.007 C 
HETATM   19  C15 BCR D 403     -40.740 139.328   9.012  1.00 30.83     0.001 C 
HETATM   20  C16 BCR D 403     -40.354 138.267   9.746  1.00 27.80     0.001 C 
HETATM   21  C17 BCR D 403     -39.302 137.345   9.284  1.00 19.50     0.007 C 
HETATM   22  C18 BCR D 403     -38.917 136.229   9.963  1.00 20.25    -0.062 C 
HETATM   23  C19 BCR D 403     -37.919 135.316   9.346  1.00 20.98     0.007 C 
HETATM   24  C20 BCR D 403     -37.443 134.195   9.904  1.00 19.16     0.001 C 
HETATM   25  C21 BCR D 403     -36.536 133.364   9.102  1.00 32.99     0.007 C 
HETATM   26  C22 BCR D 403     -35.985 132.198   9.495  1.00 28.53    -0.062 C 
HETATM   27  C23 BCR D 403     -35.229 131.514   8.609  1.00 31.07     0.007 C 
HETATM   28  C24 BCR D 403     -35.305 130.165   8.560  1.00 50.55     0.009 C 
HETATM   29  C25 BCR D 403     -34.577 129.297   7.584  1.00 52.69    -0.048 C 
HETATM   30  C26 BCR D 403     -35.132 129.122   6.379  1.00 59.17    -0.077 C 
HETATM   31  C27 BCR D 403     -34.478 128.270   5.323  1.00 58.46     0.034 C 
HETATM   32  C28 BCR D 403     -32.987 128.503   5.425  1.00 49.26     0.005 C 
HETATM   33  C29 BCR D 403     -32.572 127.935   6.765  1.00 44.20     0.014 C 
HETATM   34  C30 BCR D 403     -33.271 128.610   7.938  1.00 46.31    -0.020 C 
HETATM   35  C35 BCR D 403     -42.020 141.259   7.218  1.00 22.68     0.048 C 
HETATM   36  C36 BCR D 403     -39.535 135.867  11.284  1.00 19.40     0.048 C 
HETATM   37  C37 BCR D 403     -36.251 131.666  10.874  1.00 20.07     0.048 C 
HETATM   38  C38 BCR D 403     -36.431 129.789   6.034  1.00 70.87     0.044 C 
HETATM   39  C39 BCR D 403     -32.319 129.649   8.504  1.00 46.29     0.020 C 
HETATM   40  C40 BCR D 403     -33.575 127.535   8.969  1.00 32.90     0.020 C 
ENDROOT
TORSDOF 10
