REMARK VINA RESULT:    -8.269      1.510     16.293
REMARK INTER + INTRA:         -11.076
REMARK INTER:                  -8.010
REMARK INTRA:                  -3.066
REMARK UNBOUND:                -2.807
REMARK  0 active torsions:
REMARK  status: ('A' for Active; 'I' for Inactive)
REMARK       I    between atoms: C6_6  and  C7_7 
REMARK       I    between atoms: C8_8  and  C9_9 
REMARK       I    between atoms: C10_10  and  C11_11 
REMARK       I    between atoms: C12_16  and  C13_17 
REMARK       I    between atoms: C14_18  and  C15_19 
REMARK       I    between atoms: C16_20  and  C17_21 
REMARK       I    between atoms: C18_22  and  C19_23 
REMARK       I    between atoms: C20_24  and  C21_25 
REMARK       I    between atoms: C22_26  and  C23_27 
REMARK       I    between atoms: C24_28  and  C25_29 
ROOT
HETATM    1  C1  BCR B 617     -50.128 148.660   9.161  1.00 41.49    -0.020 C 
HETATM    2  C2  BCR B 617     -51.295 149.339   9.861  1.00 45.09     0.014 C 
HETATM    3  C3  BCR B 617     -52.600 148.627   9.647  1.00 46.22     0.005 C 
HETATM    4  C4  BCR B 617     -52.476 147.187  10.052  1.00 43.15     0.034 C 
HETATM    5  C5  BCR B 617     -51.406 146.563   9.263  1.00 45.30    -0.077 C 
HETATM    6  C6  BCR B 617     -50.321 147.214   8.838  1.00 38.15    -0.048 C 
HETATM    7  C7  BCR B 617     -49.278 146.566   8.028  1.00 41.50     0.009 C 
HETATM    8  C8  BCR B 617     -48.220 145.929   8.561  1.00 33.63     0.007 C 
HETATM    9  C9  BCR B 617     -47.480 144.889   7.849  1.00 35.19    -0.062 C 
HETATM   10  C10 BCR B 617     -46.629 144.090   8.503  1.00 33.22     0.007 C 
HETATM   11  C11 BCR B 617     -45.453 143.474   7.908  1.00 24.33     0.001 C 
HETATM   12  C33 BCR B 617     -51.673 145.144   8.965  1.00 50.16     0.044 C 
HETATM   13  C31 BCR B 617     -48.906 148.848  10.039  1.00 49.85     0.020 C 
HETATM   14  C32 BCR B 617     -49.869 149.458   7.910  1.00 44.59     0.020 C 
HETATM   15  C34 BCR B 617     -47.435 144.978   6.371  1.00 35.95     0.048 C 
HETATM   16  C12 BCR B 617     -44.658 142.673   8.638  1.00 33.21     0.007 C 
HETATM   17  C13 BCR B 617     -43.675 141.743   8.103  1.00 33.12    -0.062 C 
HETATM   18  C14 BCR B 617     -42.804 141.176   8.959  1.00 31.10     0.007 C 
HETATM   19  C15 BCR B 617     -42.198 139.870   8.784  1.00 35.99     0.001 C 
HETATM   20  C16 BCR B 617     -41.184 139.446   9.567  1.00 30.49     0.001 C 
HETATM   21  C17 BCR B 617     -40.533 138.197   9.263  1.00 28.48     0.007 C 
HETATM   22  C18 BCR B 617     -39.767 137.432  10.076  1.00 29.63    -0.062 C 
HETATM   23  C19 BCR B 617     -39.119 136.267   9.507  1.00 31.91     0.007 C 
HETATM   24  C20 BCR B 617     -38.243 135.512  10.170  1.00 29.87     0.001 C 
HETATM   25  C21 BCR B 617     -37.591 134.429   9.468  1.00 34.48     0.007 C 
HETATM   26  C22 BCR B 617     -37.007 133.357  10.021  1.00 29.89    -0.062 C 
HETATM   27  C23 BCR B 617     -36.224 132.517   9.133  1.00 31.70     0.007 C 
HETATM   28  C24 BCR B 617     -35.658 131.377   9.507  1.00 26.71     0.009 C 
HETATM   29  C25 BCR B 617     -34.806 130.539   8.688  1.00 32.74    -0.048 C 
HETATM   30  C26 BCR B 617     -35.166 130.073   7.487  1.00 34.19    -0.077 C 
HETATM   31  C27 BCR B 617     -34.347 129.188   6.631  1.00 36.44     0.034 C 
HETATM   32  C28 BCR B 617     -32.886 129.222   7.011  1.00 33.65     0.005 C 
HETATM   33  C29 BCR B 617     -32.785 129.089   8.487  1.00 31.35     0.014 C 
HETATM   34  C30 BCR B 617     -33.495 130.163   9.285  1.00 33.77    -0.020 C 
HETATM   35  C35 BCR B 617     -43.491 141.610   6.628  1.00 35.31     0.048 C 
HETATM   36  C36 BCR B 617     -39.705 137.580  11.541  1.00 27.23     0.048 C 
HETATM   37  C37 BCR B 617     -37.205 132.992  11.455  1.00 28.60     0.048 C 
HETATM   38  C38 BCR B 617     -36.448 130.416   6.830  1.00 33.66     0.044 C 
HETATM   39  C39 BCR B 617     -32.643 131.394   9.516  1.00 31.39     0.020 C 
HETATM   40  C40 BCR B 617     -33.638 129.523  10.651  1.00 32.27     0.020 C 
ENDROOT
TORSDOF 10
