REMARK VINA RESULT:    -6.236      3.396      4.830
REMARK INTER + INTRA:         -10.589
REMARK INTER:                  -4.437
REMARK INTRA:                  -6.151
REMARK UNBOUND:                -4.353
REMARK  0 active torsions:
REMARK  status: ('A' for Active; 'I' for Inactive)
REMARK       I    between atoms: C6_6  and  C7_7 
REMARK       I    between atoms: C8_8  and  C9_9 
REMARK       I    between atoms: C10_10  and  C11_11 
REMARK       I    between atoms: C12_16  and  C13_17 
REMARK       I    between atoms: C14_18  and  C15_19 
REMARK       I    between atoms: C16_20  and  C17_21 
REMARK       I    between atoms: C18_22  and  C19_23 
REMARK       I    between atoms: C20_24  and  C21_25 
REMARK       I    between atoms: C22_26  and  C23_27 
REMARK       I    between atoms: C24_28  and  C25_29 
ROOT
HETATM    1  C1  BCR T 102     -34.559 127.249   4.551  1.00 34.19    -0.020 C 
HETATM    2  C2  BCR T 102     -33.854 126.146   3.753  1.00 31.05     0.014 C 
HETATM    3  C3  BCR T 102     -32.401 126.468   3.444  1.00 29.41     0.005 C 
HETATM    4  C4  BCR T 102     -31.622 126.703   4.719  1.00 30.85     0.034 C 
HETATM    5  C5  BCR T 102     -32.308 127.746   5.569  1.00 27.12    -0.077 C 
HETATM    6  C6  BCR T 102     -33.628 128.003   5.506  1.00 27.96    -0.048 C 
HETATM    7  C7  BCR T 102     -34.111 129.077   6.428  1.00 26.87     0.009 C 
HETATM    8  C8  BCR T 102     -35.351 129.581   6.498  1.00 27.18     0.007 C 
HETATM    9  C9  BCR T 102     -35.733 130.662   7.433  1.00 30.62    -0.062 C 
HETATM   10  C10 BCR T 102     -37.006 131.116   7.425  1.00 30.16     0.007 C 
HETATM   11  C11 BCR T 102     -37.484 132.216   8.265  1.00 28.29     0.001 C 
HETATM   12  C33 BCR T 102     -31.437 128.512   6.520  1.00 35.59     0.044 C 
HETATM   13  C31 BCR T 102     -35.696 126.593   5.330  1.00 18.19     0.020 C 
HETATM   14  C32 BCR T 102     -35.147 128.220   3.523  1.00 42.41     0.020 C 
HETATM   15  C34 BCR T 102     -34.704 131.244   8.361  1.00 37.30     0.048 C 
HETATM   16  C12 BCR T 102     -38.732 132.655   8.077  1.00 32.33     0.007 C 
HETATM   17  C13 BCR T 102     -39.309 133.822   8.784  1.00 37.30    -0.062 C 
HETATM   18  C14 BCR T 102     -40.528 134.225   8.367  1.00 30.82     0.007 C 
HETATM   19  C15 BCR T 102     -41.293 135.404   8.787  1.00 19.09     0.001 C 
HETATM   20  C16 BCR T 102     -42.633 135.516   8.692  1.00 25.22     0.001 C 
HETATM   21  C17 BCR T 102     -43.270 136.801   9.025  1.00 26.84     0.007 C 
HETATM   22  C18 BCR T 102     -44.606 137.073   9.012  1.00 21.71    -0.062 C 
HETATM   23  C19 BCR T 102     -45.026 138.473   9.247  1.00 29.36     0.007 C 
HETATM   24  C20 BCR T 102     -46.278 138.954   9.255  1.00 22.88     0.001 C 
HETATM   25  C21 BCR T 102     -46.382 140.414   9.397  1.00 23.49     0.007 C 
HETATM   26  C22 BCR T 102     -47.525 141.119   9.272  1.00 22.88    -0.062 C 
HETATM   27  C23 BCR T 102     -47.463 142.474   9.343  1.00 19.61     0.007 C 
HETATM   28  C24 BCR T 102     -48.501 143.321   9.215  1.00 16.86     0.009 C 
HETATM   29  C25 BCR T 102     -48.350 144.816   9.258  1.00 24.91    -0.048 C 
HETATM   30  C26 BCR T 102     -47.692 145.475  10.241  1.00 26.40    -0.077 C 
HETATM   31  C27 BCR T 102     -47.547 146.985  10.248  1.00 13.58     0.034 C 
HETATM   32  C28 BCR T 102     -47.649 147.563   8.853  1.00 15.86     0.005 C 
HETATM   33  C29 BCR T 102     -48.969 147.084   8.283  1.00 17.31     0.014 C 
HETATM   34  C30 BCR T 102     -49.017 145.570   8.101  1.00 34.25    -0.020 C 
HETATM   35  C35 BCR T 102     -38.538 134.532   9.867  1.00 22.35     0.048 C 
HETATM   36  C36 BCR T 102     -45.640 136.034   8.684  1.00 20.74     0.048 C 
HETATM   37  C37 BCR T 102     -48.821 140.403   9.024  1.00 18.69     0.048 C 
HETATM   38  C38 BCR T 102     -47.051 144.778  11.422  1.00 17.22     0.044 C 
HETATM   39  C39 BCR T 102     -48.388 145.159   6.769  1.00 23.16     0.020 C 
HETATM   40  C40 BCR T 102     -50.501 145.206   8.055  1.00 17.04     0.020 C 
ENDROOT
TORSDOF 10
