REMARK VINA RESULT:    -8.888      0.000      0.000
REMARK INTER + INTRA:         -13.917
REMARK INTER:                  -8.888
REMARK INTRA:                  -5.028
REMARK UNBOUND:                -5.028
REMARK  0 active torsions:
REMARK  status: ('A' for Active; 'I' for Inactive)
REMARK       I    between atoms: C6_6  and  C7_7 
REMARK       I    between atoms: C8_8  and  C9_9 
REMARK       I    between atoms: C10_10  and  C11_11 
REMARK       I    between atoms: C12_16  and  C13_17 
REMARK       I    between atoms: C14_18  and  C15_19 
REMARK       I    between atoms: C16_20  and  C17_21 
REMARK       I    between atoms: C18_22  and  C19_23 
REMARK       I    between atoms: C20_24  and  C21_25 
REMARK       I    between atoms: C22_26  and  C23_27 
REMARK       I    between atoms: C24_28  and  C25_29 
ROOT
HETATM    1  C1  BCR K 101     -34.672 127.044   4.930  1.00 40.94    -0.020 C 
HETATM    2  C2  BCR K 101     -34.025 125.854   4.198  1.00 37.77     0.014 C 
HETATM    3  C3  BCR K 101     -32.881 126.299   3.312  1.00 38.82     0.005 C 
HETATM    4  C4  BCR K 101     -31.803 127.027   4.084  1.00 37.64     0.034 C 
HETATM    5  C5  BCR K 101     -32.304 127.758   5.325  1.00 40.78    -0.077 C 
HETATM    6  C6  BCR K 101     -33.593 127.797   5.711  1.00 38.56    -0.048 C 
HETATM    7  C7  BCR K 101     -33.991 128.641   6.857  1.00 34.80     0.009 C 
HETATM    8  C8  BCR K 101     -35.157 129.316   6.941  1.00 30.57     0.007 C 
HETATM    9  C9  BCR K 101     -35.482 130.257   8.051  1.00 32.13    -0.062 C 
HETATM   10  C10 BCR K 101     -36.630 130.960   7.893  1.00 32.81     0.007 C 
HETATM   11  C11 BCR K 101     -37.138 132.016   8.777  1.00 29.90     0.001 C 
HETATM   12  C33 BCR K 101     -31.196 128.433   6.056  1.00 40.24     0.044 C 
HETATM   13  C31 BCR K 101     -35.685 126.410   5.933  1.00 39.98     0.020 C 
HETATM   14  C32 BCR K 101     -35.354 127.950   3.886  1.00 47.94     0.020 C 
HETATM   15  C34 BCR K 101     -34.567 130.316   9.255  1.00 34.60     0.048 C 
HETATM   16  C12 BCR K 101     -38.129 132.756   8.308  1.00 27.83     0.007 C 
HETATM   17  C13 BCR K 101     -38.711 133.884   9.053  1.00 32.22    -0.062 C 
HETATM   18  C14 BCR K 101     -39.675 134.623   8.420  1.00 33.89     0.007 C 
HETATM   19  C15 BCR K 101     -40.348 135.810   8.953  1.00 31.94     0.001 C 
HETATM   20  C16 BCR K 101     -41.184 136.560   8.190  1.00 39.08     0.001 C 
HETATM   21  C17 BCR K 101     -41.789 137.756   8.779  1.00 33.76     0.007 C 
HETATM   22  C18 BCR K 101     -42.510 138.674   8.102  1.00 31.16    -0.062 C 
HETATM   23  C19 BCR K 101     -43.051 139.874   8.793  1.00 38.37     0.007 C 
HETATM   24  C20 BCR K 101     -43.567 140.984   8.207  1.00 30.97     0.001 C 
HETATM   25  C21 BCR K 101     -44.081 142.002   9.109  1.00 34.12     0.007 C 
HETATM   26  C22 BCR K 101     -44.816 143.089   8.735  1.00 31.09    -0.062 C 
HETATM   27  C23 BCR K 101     -45.378 143.931   9.835  1.00 35.26     0.007 C 
HETATM   28  C24 BCR K 101     -46.305 144.923   9.653  1.00 36.95     0.009 C 
HETATM   29  C25 BCR K 101     -46.840 145.686  10.807  1.00 37.34    -0.048 C 
HETATM   30  C26 BCR K 101     -47.247 145.081  11.954  1.00 39.16    -0.077 C 
HETATM   31  C27 BCR K 101     -47.575 145.836  13.213  1.00 44.81     0.034 C 
HETATM   32  C28 BCR K 101     -47.388 147.321  13.126  1.00 41.82     0.005 C 
HETATM   33  C29 BCR K 101     -47.720 147.848  11.747  1.00 38.72     0.014 C 
HETATM   34  C30 BCR K 101     -46.848 147.182  10.703  1.00 39.55    -0.020 C 
HETATM   35  C35 BCR K 101     -38.127 134.205  10.387  1.00 33.34     0.048 C 
HETATM   36  C36 BCR K 101     -42.877 138.430   6.691  1.00 38.68     0.048 C 
HETATM   37  C37 BCR K 101     -45.119 143.282   7.266  1.00 36.05     0.048 C 
HETATM   38  C38 BCR K 101     -47.580 143.604  11.992  1.00 35.63     0.044 C 
HETATM   39  C39 BCR K 101     -45.368 147.606  10.864  1.00 47.34     0.020 C 
HETATM   40  C40 BCR K 101     -47.384 147.573   9.346  1.00 45.01     0.020 C 
ENDROOT
TORSDOF 10
