REMARK VINA RESULT:    -7.368      2.556     16.815
REMARK INTER + INTRA:         -13.412
REMARK INTER:                 -10.230
REMARK INTRA:                  -3.183
REMARK UNBOUND:                -6.044
REMARK  0 active torsions:
REMARK  status: ('A' for Active; 'I' for Inactive)
REMARK       I    between atoms: C6_6  and  C7_7 
REMARK       I    between atoms: C8_8  and  C9_9 
REMARK       I    between atoms: C10_10  and  C11_11 
REMARK       I    between atoms: C12_16  and  C13_17 
REMARK       I    between atoms: C14_18  and  C15_19 
REMARK       I    between atoms: C16_20  and  C17_21 
REMARK       I    between atoms: C18_22  and  C19_23 
REMARK       I    between atoms: C20_24  and  C21_25 
REMARK       I    between atoms: C22_26  and  C23_27 
REMARK       I    between atoms: C24_28  and  C25_29 
ROOT
HETATM    1  C1  BCR B 619     -47.117 147.951  12.270  1.00 28.89    -0.020 C 
HETATM    2  C2  BCR B 619     -47.875 148.785  13.320  1.00 28.87     0.014 C 
HETATM    3  C3  BCR B 619     -47.729 148.215  14.726  1.00 24.82     0.005 C 
HETATM    4  C4  BCR B 619     -46.250 148.090  15.146  1.00 26.55     0.034 C 
HETATM    5  C5  BCR B 619     -45.364 147.505  14.047  1.00 25.55    -0.077 C 
HETATM    6  C6  BCR B 619     -45.753 147.430  12.752  1.00 25.71    -0.048 C 
HETATM    7  C7  BCR B 619     -44.878 146.784  11.717  1.00 26.15     0.009 C 
HETATM    8  C8  BCR B 619     -44.389 145.531  11.902  1.00 24.62     0.007 C 
HETATM    9  C9  BCR B 619     -43.563 144.785  10.920  1.00 23.75    -0.062 C 
HETATM   10  C10 BCR B 619     -43.098 143.586  11.313  1.00 23.51     0.007 C 
HETATM   11  C11 BCR B 619     -42.285 142.696  10.447  1.00 22.91     0.001 C 
HETATM   12  C33 BCR B 619     -44.029 146.987  14.516  1.00 26.88     0.044 C 
HETATM   13  C31 BCR B 619     -46.937 148.897  11.076  1.00 28.47     0.020 C 
HETATM   14  C32 BCR B 619     -47.999 146.762  11.859  1.00 29.15     0.020 C 
HETATM   15  C34 BCR B 619     -43.333 145.353   9.505  1.00 23.47     0.048 C 
HETATM   16  C12 BCR B 619     -42.043 141.417  10.776  1.00 20.45     0.007 C 
HETATM   17  C13 BCR B 619     -41.281 140.466   9.946  1.00 21.99    -0.062 C 
HETATM   18  C14 BCR B 619     -40.955 139.238  10.443  1.00 22.06     0.007 C 
HETATM   19  C15 BCR B 619     -40.191 138.162   9.780  1.00 21.97     0.001 C 
HETATM   20  C16 BCR B 619     -39.718 137.054  10.419  1.00 20.65     0.001 C 
HETATM   21  C17 BCR B 619     -38.936 136.042   9.703  1.00 23.36     0.007 C 
HETATM   22  C18 BCR B 619     -38.472 134.864  10.163  1.00 22.90    -0.062 C 
HETATM   23  C19 BCR B 619     -37.727 133.979   9.223  1.00 24.93     0.007 C 
HETATM   24  C20 BCR B 619     -37.055 132.886   9.638  1.00 23.33     0.001 C 
HETATM   25  C21 BCR B 619     -36.308 132.040   8.716  1.00 25.92     0.007 C 
HETATM   26  C22 BCR B 619     -35.651 130.873   8.989  1.00 29.58    -0.062 C 
HETATM   27  C23 BCR B 619     -35.004 130.183   7.831  1.00 30.44     0.007 C 
HETATM   28  C24 BCR B 619     -34.133 129.141   7.923  1.00 37.61     0.009 C 
HETATM   29  C25 BCR B 619     -33.472 128.384   6.781  1.00 35.86    -0.048 C 
HETATM   30  C26 BCR B 619     -32.500 128.920   6.007  1.00 38.98    -0.077 C 
HETATM   31  C27 BCR B 619     -31.849 128.141   4.891  1.00 37.08     0.034 C 
HETATM   32  C28 BCR B 619     -32.858 127.211   4.233  1.00 38.77     0.005 C 
HETATM   33  C29 BCR B 619     -33.289 126.225   5.306  1.00 41.75     0.014 C 
HETATM   34  C30 BCR B 619     -33.885 126.920   6.556  1.00 42.71    -0.020 C 
HETATM   35  C35 BCR B 619     -40.952 140.891   8.514  1.00 20.47     0.048 C 
HETATM   36  C36 BCR B 619     -38.624 134.403  11.625  1.00 21.73     0.048 C 
HETATM   37  C37 BCR B 619     -35.571 130.239  10.393  1.00 28.12     0.048 C 
HETATM   38  C38 BCR B 619     -32.009 130.338   6.156  1.00 37.79     0.044 C 
HETATM   39  C39 BCR B 619     -33.425 126.124   7.810  1.00 45.59     0.020 C 
HETATM   40  C40 BCR B 619     -35.389 126.827   6.419  1.00 39.52     0.020 C 
ENDROOT
TORSDOF 10
