REMARK VINA RESULT:    -9.870      0.000      0.000
REMARK INTER + INTRA:         -15.752
REMARK INTER:                  -9.870
REMARK INTRA:                  -5.883
REMARK UNBOUND:                -5.883
REMARK  0 active torsions:
REMARK  status: ('A' for Active; 'I' for Inactive)
REMARK       I    between atoms: C6_6  and  C7_7 
REMARK       I    between atoms: C8_8  and  C9_9 
REMARK       I    between atoms: C10_10  and  C11_11 
REMARK       I    between atoms: C12_16  and  C13_17 
REMARK       I    between atoms: C14_18  and  C15_19 
REMARK       I    between atoms: C16_20  and  C17_21 
REMARK       I    between atoms: C18_22  and  C19_23 
REMARK       I    between atoms: C20_24  and  C21_25 
REMARK       I    between atoms: C22_26  and  C23_27 
REMARK       I    between atoms: C24_28  and  C25_29 
ROOT
HETATM    1  C1  BCR B 619     -34.697 130.256   7.950  1.00 29.78    -0.020 C 
HETATM    2  C2  BCR B 619     -33.582 129.458   8.613  1.00 32.88     0.014 C 
HETATM    3  C3  BCR B 619     -33.008 130.182   9.800  1.00 32.12     0.005 C 
HETATM    4  C4  BCR B 619     -34.031 130.448  10.870  1.00 29.37     0.034 C 
HETATM    5  C5  BCR B 619     -35.374 130.883  10.294  1.00 26.51    -0.077 C 
HETATM    6  C6  BCR B 619     -35.674 130.860   8.965  1.00 26.75    -0.048 C 
HETATM    7  C7  BCR B 619     -36.904 131.487   8.425  1.00 27.16     0.009 C 
HETATM    8  C8  BCR B 619     -37.465 132.603   8.884  1.00 26.20     0.007 C 
HETATM    9  C9  BCR B 619     -38.617 133.233   8.278  1.00 20.49    -0.062 C 
HETATM   10  C10 BCR B 619     -38.978 134.440   8.753  1.00 22.41     0.007 C 
HETATM   11  C11 BCR B 619     -40.046 135.272   8.216  1.00 20.79     0.001 C 
HETATM   12  C33 BCR B 619     -36.398 131.261  11.351  1.00 26.02     0.044 C 
HETATM   13  C31 BCR B 619     -35.416 129.334   7.010  1.00 32.38     0.020 C 
HETATM   14  C32 BCR B 619     -34.095 131.434   7.175  1.00 28.82     0.020 C 
HETATM   15  C34 BCR B 619     -39.324 132.485   7.179  1.00 20.53     0.048 C 
HETATM   16  C12 BCR B 619     -40.243 136.534   8.672  1.00 22.97     0.007 C 
HETATM   17  C13 BCR B 619     -41.333 137.428   8.166  1.00 24.26    -0.062 C 
HETATM   18  C14 BCR B 619     -41.491 138.675   8.714  1.00 21.19     0.007 C 
HETATM   19  C15 BCR B 619     -42.551 139.651   8.370  1.00 24.01     0.001 C 
HETATM   20  C16 BCR B 619     -42.676 140.843   9.030  1.00 22.73     0.001 C 
HETATM   21  C17 BCR B 619     -43.780 141.731   8.679  1.00 24.34     0.007 C 
HETATM   22  C18 BCR B 619     -44.059 142.952   9.290  1.00 23.72    -0.062 C 
HETATM   23  C19 BCR B 619     -45.226 143.754   8.798  1.00 24.63     0.007 C 
HETATM   24  C20 BCR B 619     -45.628 144.925   9.346  1.00 25.42     0.001 C 
HETATM   25  C21 BCR B 619     -46.810 145.623   8.852  1.00 24.42     0.007 C 
HETATM   26  C22 BCR B 619     -47.407 146.718   9.358  1.00 28.11    -0.062 C 
HETATM   27  C23 BCR B 619     -48.625 147.191   8.662  1.00 27.88     0.007 C 
HETATM   28  C24 BCR B 619     -49.233 148.369   8.945  1.00 48.58     0.009 C 
HETATM   29  C25 BCR B 619     -50.421 148.998   8.195  1.00 40.96    -0.048 C 
HETATM   30  C26 BCR B 619     -51.516 148.346   7.786  1.00 43.15    -0.077 C 
HETATM   31  C27 BCR B 619     -52.600 148.962   6.908  1.00 40.16     0.034 C 
HETATM   32  C28 BCR B 619     -52.163 150.241   6.254  1.00 50.45     0.005 C 
HETATM   33  C29 BCR B 619     -51.635 151.052   7.391  1.00 52.86     0.014 C 
HETATM   34  C30 BCR B 619     -50.330 150.496   7.949  1.00 49.52    -0.020 C 
HETATM   35  C35 BCR B 619     -42.290 136.841   7.092  1.00 23.42     0.048 C 
HETATM   36  C36 BCR B 619     -43.255 143.527  10.451  1.00 23.31     0.048 C 
HETATM   37  C37 BCR B 619     -46.846 147.426  10.601  1.00 31.17     0.048 C 
HETATM   38  C38 BCR B 619     -51.840 146.967   8.274  1.00 48.43     0.044 C 
HETATM   39  C39 BCR B 619     -49.986 151.350   9.196  1.00 62.11     0.020 C 
HETATM   40  C40 BCR B 619     -49.266 150.588   6.882  1.00 46.92     0.020 C 
ENDROOT
TORSDOF 10
