REMARK VINA RESULT:    -9.886      2.598     16.719
REMARK INTER + INTRA:         -12.459
REMARK INTER:                  -7.215
REMARK INTRA:                  -5.244
REMARK UNBOUND:                -2.573
REMARK  0 active torsions:
REMARK  status: ('A' for Active; 'I' for Inactive)
REMARK       I    between atoms: C6_6  and  C7_7 
REMARK       I    between atoms: C8_8  and  C9_9 
REMARK       I    between atoms: C10_10  and  C11_11 
REMARK       I    between atoms: C12_16  and  C13_17 
REMARK       I    between atoms: C14_18  and  C15_19 
REMARK       I    between atoms: C16_20  and  C17_21 
REMARK       I    between atoms: C18_22  and  C19_23 
REMARK       I    between atoms: C20_24  and  C21_25 
REMARK       I    between atoms: C22_26  and  C23_27 
REMARK       I    between atoms: C24_28  and  C25_29 
ROOT
HETATM    1  C1  BCR B 619     -49.541 150.522   8.470  1.00 43.68    -0.020 C 
HETATM    2  C2  BCR B 619     -50.768 151.340   8.051  1.00 34.01     0.014 C 
HETATM    3  C3  BCR B 619     -51.760 150.463   7.297  1.00 39.82     0.005 C 
HETATM    4  C4  BCR B 619     -52.195 149.251   8.129  1.00 35.97     0.034 C 
HETATM    5  C5  BCR B 619     -51.044 148.534   8.811  1.00 51.08    -0.077 C 
HETATM    6  C6  BCR B 619     -49.834 149.110   8.967  1.00 43.37    -0.048 C 
HETATM    7  C7  BCR B 619     -48.694 148.413   9.637  1.00 41.21     0.009 C 
HETATM    8  C8  BCR B 619     -48.091 147.340   9.115  1.00 35.08     0.007 C 
HETATM    9  C9  BCR B 619     -46.935 146.649   9.720  1.00 45.29    -0.062 C 
HETATM   10  C10 BCR B 619     -46.628 145.411   9.253  1.00 31.51     0.007 C 
HETATM   11  C11 BCR B 619     -45.495 144.557   9.661  1.00 35.87     0.001 C 
HETATM   12  C33 BCR B 619     -51.323 147.140   9.313  1.00 49.04     0.044 C 
HETATM   13  C31 BCR B 619     -48.822 151.233   9.601  1.00 38.43     0.020 C 
HETATM   14  C32 BCR B 619     -48.628 150.413   7.256  1.00 45.87     0.020 C 
HETATM   15  C34 BCR B 619     -46.127 147.377  10.768  1.00 32.59     0.048 C 
HETATM   16  C12 BCR B 619     -45.142 143.495   8.892  1.00 32.79     0.007 C 
HETATM   17  C13 BCR B 619     -43.995 142.597   9.232  1.00 41.33    -0.062 C 
HETATM   18  C14 BCR B 619     -43.839 141.408   8.583  1.00 31.13     0.007 C 
HETATM   19  C15 BCR B 619     -42.774 140.396   8.780  1.00 39.90     0.001 C 
HETATM   20  C16 BCR B 619     -42.727 139.194   8.146  1.00 29.90     0.001 C 
HETATM   21  C17 BCR B 619     -41.606 138.263   8.412  1.00 33.57     0.007 C 
HETATM   22  C18 BCR B 619     -41.444 137.005   7.914  1.00 38.90    -0.062 C 
HETATM   23  C19 BCR B 619     -40.234 136.235   8.303  1.00 36.01     0.007 C 
HETATM   24  C20 BCR B 619     -40.025 134.926   8.059  1.00 41.69     0.001 C 
HETATM   25  C21 BCR B 619     -38.761 134.320   8.516  1.00 46.52     0.007 C 
HETATM   26  C22 BCR B 619     -38.368 133.052   8.255  1.00 47.59    -0.062 C 
HETATM   27  C23 BCR B 619     -37.175 132.590   8.717  1.00 54.77     0.007 C 
HETATM   28  C24 BCR B 619     -36.770 131.311   8.585  1.00 45.04     0.009 C 
HETATM   29  C25 BCR B 619     -35.473 130.704   9.055  1.00 40.91    -0.048 C 
HETATM   30  C26 BCR B 619     -35.160 130.516  10.349  1.00 51.20    -0.077 C 
HETATM   31  C27 BCR B 619     -33.854 129.887  10.739  1.00 53.77     0.034 C 
HETATM   32  C28 BCR B 619     -32.778 130.459   9.848  1.00 56.12     0.005 C 
HETATM   33  C29 BCR B 619     -33.075 130.004   8.436  1.00 60.15     0.014 C 
HETATM   34  C30 BCR B 619     -34.512 130.263   7.974  1.00 51.25    -0.020 C 
HETATM   35  C35 BCR B 619     -43.030 143.057  10.304  1.00 33.87     0.048 C 
HETATM   36  C36 BCR B 619     -42.459 136.381   6.981  1.00 33.91     0.048 C 
HETATM   37  C37 BCR B 619     -39.262 132.174   7.433  1.00 55.50     0.048 C 
HETATM   38  C38 BCR B 619     -36.063 130.923  11.472  1.00 45.25     0.044 C 
HETATM   39  C39 BCR B 619     -35.093 128.995   7.339  1.00 56.99     0.020 C 
HETATM   40  C40 BCR B 619     -34.467 131.355   6.922  1.00 53.04     0.020 C 
ENDROOT
TORSDOF 10
