REMARK VINA RESULT:    -8.920      0.000      0.000
REMARK INTER + INTRA:         -15.627
REMARK INTER:                  -8.920
REMARK INTRA:                  -6.708
REMARK UNBOUND:                -6.708
REMARK  0 active torsions:
REMARK  status: ('A' for Active; 'I' for Inactive)
REMARK       I    between atoms: C6_6  and  C7_7 
REMARK       I    between atoms: C8_8  and  C9_9 
REMARK       I    between atoms: C10_10  and  C11_11 
REMARK       I    between atoms: C12_16  and  C13_17 
REMARK       I    between atoms: C14_18  and  C15_19 
REMARK       I    between atoms: C16_20  and  C17_21 
REMARK       I    between atoms: C18_22  and  C19_23 
REMARK       I    between atoms: C20_24  and  C21_25 
REMARK       I    between atoms: C22_26  and  C23_27 
REMARK       I    between atoms: C24_28  and  C25_29 
ROOT
HETATM    1  C1  BCR H 102     -50.920 148.783  10.993  1.00 25.36    -0.020 C 
HETATM    2  C2  BCR H 102     -52.162 149.628  10.802  1.00 22.06     0.014 C 
HETATM    3  C3  BCR H 102     -52.592 149.601   9.357  1.00 25.43     0.005 C 
HETATM    4  C4  BCR H 102     -51.503 150.264   8.536  1.00 27.47     0.034 C 
HETATM    5  C5  BCR H 102     -50.190 149.550   8.728  1.00 26.86    -0.077 C 
HETATM    6  C6  BCR H 102     -49.875 148.959   9.898  1.00 28.94    -0.048 C 
HETATM    7  C7  BCR H 102     -48.557 148.336  10.209  1.00 27.41     0.009 C 
HETATM    8  C8  BCR H 102     -47.325 148.625   9.790  1.00 28.65     0.007 C 
HETATM    9  C9  BCR H 102     -46.218 147.799  10.303  1.00 28.29    -0.062 C 
HETATM   10  C10 BCR H 102     -45.509 146.994   9.510  1.00 25.92     0.007 C 
HETATM   11  C11 BCR H 102     -44.437 146.190  10.079  1.00 28.10     0.001 C 
HETATM   12  C33 BCR H 102     -49.314 149.528   7.514  1.00 26.00     0.044 C 
HETATM   13  C31 BCR H 102     -51.295 147.314  10.987  1.00 26.13     0.020 C 
HETATM   14  C32 BCR H 102     -50.347 149.121  12.353  1.00 26.25     0.020 C 
HETATM   15  C34 BCR H 102     -45.875 147.882  11.756  1.00 31.23     0.048 C 
HETATM   16  C12 BCR H 102     -44.025 145.127   9.406  1.00 28.27     0.007 C 
HETATM   17  C13 BCR H 102     -42.979 144.231   9.909  1.00 27.17    -0.062 C 
HETATM   18  C14 BCR H 102     -42.732 143.101   9.239  1.00 27.77     0.007 C 
HETATM   19  C15 BCR H 102     -41.732 142.119   9.637  1.00 27.77     0.001 C 
HETATM   20  C16 BCR H 102     -41.779 140.911   9.084  1.00 27.54     0.001 C 
HETATM   21  C17 BCR H 102     -40.807 139.884   9.421  1.00 29.95     0.007 C 
HETATM   22  C18 BCR H 102     -40.876 138.643   8.931  1.00 32.47    -0.062 C 
HETATM   23  C19 BCR H 102     -39.826 137.680   9.298  1.00 38.93     0.007 C 
HETATM   24  C20 BCR H 102     -39.760 136.449   8.808  1.00 35.02     0.001 C 
HETATM   25  C21 BCR H 102     -38.646 135.606   9.235  1.00 36.49     0.007 C 
HETATM   26  C22 BCR H 102     -38.492 134.326   8.868  1.00 41.54    -0.062 C 
HETATM   27  C23 BCR H 102     -37.310 133.589   9.344  1.00 41.98     0.007 C 
HETATM   28  C24 BCR H 102     -37.137 132.308   9.033  1.00 40.47     0.009 C 
HETATM   29  C25 BCR H 102     -35.966 131.504   9.450  1.00 41.05    -0.048 C 
HETATM   30  C26 BCR H 102     -35.755 131.150  10.722  1.00 39.79    -0.077 C 
HETATM   31  C27 BCR H 102     -34.752 130.080  11.052  1.00 42.14     0.034 C 
HETATM   32  C28 BCR H 102     -33.501 130.336  10.246  1.00 43.18     0.005 C 
HETATM   33  C29 BCR H 102     -33.836 130.236   8.771  1.00 42.37     0.014 C 
HETATM   34  C30 BCR H 102     -35.046 131.052   8.334  1.00 38.21    -0.020 C 
HETATM   35  C35 BCR H 102     -42.244 144.569  11.162  1.00 25.69     0.048 C 
HETATM   36  C36 BCR H 102     -41.978 138.241   8.006  1.00 32.21     0.048 C 
HETATM   37  C37 BCR H 102     -39.477 133.640   7.972  1.00 34.38     0.048 C 
HETATM   38  C38 BCR H 102     -36.482 131.773  11.877  1.00 36.04     0.044 C 
HETATM   39  C39 BCR H 102     -35.852 130.181   7.392  1.00 40.10     0.020 C 
HETATM   40  C40 BCR H 102     -34.581 132.260   7.539  1.00 38.80     0.020 C 
ENDROOT
TORSDOF 10
