REMARK VINA RESULT:    -9.144      2.325      4.641
REMARK INTER + INTRA:          -9.425
REMARK INTER:                  -2.124
REMARK INTRA:                  -7.301
REMARK UNBOUND:                -0.281
REMARK  0 active torsions:
REMARK  status: ('A' for Active; 'I' for Inactive)
REMARK       I    between atoms: C6_6  and  C7_7 
REMARK       I    between atoms: C8_8  and  C9_9 
REMARK       I    between atoms: C10_10  and  C11_11 
REMARK       I    between atoms: C12_16  and  C13_17 
REMARK       I    between atoms: C14_18  and  C15_19 
REMARK       I    between atoms: C16_20  and  C17_21 
REMARK       I    between atoms: C18_22  and  C19_23 
REMARK       I    between atoms: C20_24  and  C21_25 
REMARK       I    between atoms: C22_26  and  C23_27 
REMARK       I    between atoms: C24_28  and  C25_29 
ROOT
HETATM    1  C1  BCR F 101     -51.690 150.249   7.426  1.00 41.36    -0.020 C 
HETATM    2  C2  BCR F 101     -52.600 150.897   6.397  1.00 46.22     0.014 C 
HETATM    3  C3  BCR F 101     -51.876 151.240   5.133  1.00 40.40     0.005 C 
HETATM    4  C4  BCR F 101     -51.249 150.008   4.547  1.00 37.04     0.034 C 
HETATM    5  C5  BCR F 101     -50.377 149.339   5.543  1.00 43.37    -0.077 C 
HETATM    6  C6  BCR F 101     -50.585 149.435   6.856  1.00 36.67    -0.048 C 
HETATM    7  C7  BCR F 101     -49.727 148.793   7.832  1.00 37.51     0.009 C 
HETATM    8  C8  BCR F 101     -49.657 147.472   7.899  1.00 40.99     0.007 C 
HETATM    9  C9  BCR F 101     -48.714 146.804   8.766  1.00 37.99    -0.062 C 
HETATM   10  C10 BCR F 101     -48.455 145.511   8.532  1.00 32.67     0.007 C 
HETATM   11  C11 BCR F 101     -47.557 144.670   9.301  1.00 30.31     0.001 C 
HETATM   12  C33 BCR F 101     -49.237 148.568   4.949  1.00 36.33     0.044 C 
HETATM   13  C31 BCR F 101     -52.561 149.406   8.315  1.00 51.06     0.020 C 
HETATM   14  C32 BCR F 101     -51.139 151.350   8.314  1.00 43.35     0.020 C 
HETATM   15  C34 BCR F 101     -47.927 147.666   9.675  1.00 39.55     0.048 C 
HETATM   16  C12 BCR F 101     -47.334 143.412   8.881  1.00 29.21     0.007 C 
HETATM   17  C13 BCR F 101     -46.364 142.535   9.496  1.00 31.53    -0.062 C 
HETATM   18  C14 BCR F 101     -45.955 141.458   8.816  1.00 36.47     0.007 C 
HETATM   19  C15 BCR F 101     -45.122 140.397   9.342  1.00 33.10     0.001 C 
HETATM   20  C16 BCR F 101     -44.945 139.269   8.616  1.00 33.82     0.001 C 
HETATM   21  C17 BCR F 101     -43.858 138.365   8.955  1.00 36.91     0.007 C 
HETATM   22  C18 BCR F 101     -43.441 137.267   8.295  1.00 32.34    -0.062 C 
HETATM   23  C19 BCR F 101     -42.275 136.572   8.807  1.00 30.12     0.007 C 
HETATM   24  C20 BCR F 101     -41.754 135.490   8.216  1.00 37.50     0.001 C 
HETATM   25  C21 BCR F 101     -40.416 135.036   8.546  1.00 38.83     0.007 C 
HETATM   26  C22 BCR F 101     -39.889 133.839   8.219  1.00 38.49    -0.062 C 
HETATM   27  C23 BCR F 101     -38.637 133.428   8.815  1.00 39.36     0.007 C 
HETATM   28  C24 BCR F 101     -38.195 132.167   8.729  1.00 56.86     0.009 C 
HETATM   29  C25 BCR F 101     -36.818 131.745   8.965  1.00 57.44    -0.048 C 
HETATM   30  C26 BCR F 101     -36.060 131.298   7.968  1.00 61.92    -0.077 C 
HETATM   31  C27 BCR F 101     -34.666 130.876   8.115  1.00 63.69     0.034 C 
HETATM   32  C28 BCR F 101     -34.056 131.669   9.234  1.00 63.72     0.005 C 
HETATM   33  C29 BCR F 101     -34.845 131.375  10.475  1.00 59.25     0.014 C 
HETATM   34  C30 BCR F 101     -36.297 131.796  10.369  1.00 65.60    -0.020 C 
HETATM   35  C35 BCR F 101     -45.557 143.062  10.622  1.00 33.23     0.048 C 
HETATM   36  C36 BCR F 101     -43.959 136.838   6.986  1.00 21.57     0.048 C 
HETATM   37  C37 BCR F 101     -40.379 133.036   7.091  1.00 27.86     0.048 C 
HETATM   38  C38 BCR F 101     -36.530 131.203   6.572  1.00 68.49     0.044 C 
HETATM   39  C39 BCR F 101     -36.484 133.172  10.981  1.00 75.29     0.020 C 
HETATM   40  C40 BCR F 101     -37.052 130.811  11.256  1.00 67.84     0.020 C 
ENDROOT
TORSDOF 10
