REMARK VINA RESULT:    -8.124      0.000      0.000
REMARK INTER + INTRA:         -11.463
REMARK INTER:                  -8.124
REMARK INTRA:                  -3.339
REMARK UNBOUND:                -3.339
REMARK  0 active torsions:
REMARK  status: ('A' for Active; 'I' for Inactive)
REMARK       I    between atoms: C6_6  and  C7_7 
REMARK       I    between atoms: C8_8  and  C9_9 
REMARK       I    between atoms: C10_10  and  C11_11 
REMARK       I    between atoms: C12_16  and  C13_17 
REMARK       I    between atoms: C14_18  and  C15_19 
REMARK       I    between atoms: C16_20  and  C17_21 
REMARK       I    between atoms: C18_22  and  C19_23 
REMARK       I    between atoms: C20_24  and  C21_25 
REMARK       I    between atoms: C22_26  and  C23_27 
REMARK       I    between atoms: C24_28  and  C25_29 
ROOT
HETATM    1  C1  BCR K 101     -34.381 126.967   6.052  1.00 61.74    -0.020 C 
HETATM    2  C2  BCR K 101     -33.757 126.151   4.922  1.00 63.47     0.014 C 
HETATM    3  C3  BCR K 101     -32.720 126.943   4.151  1.00 57.51     0.005 C 
HETATM    4  C4  BCR K 101     -31.607 127.343   5.099  1.00 60.11     0.034 C 
HETATM    5  C5  BCR K 101     -32.174 128.143   6.248  1.00 59.07    -0.077 C 
HETATM    6  C6  BCR K 101     -33.431 127.971   6.681  1.00 62.21    -0.048 C 
HETATM    7  C7  BCR K 101     -33.987 128.754   7.813  1.00 58.73     0.009 C 
HETATM    8  C8  BCR K 101     -34.289 130.047   7.718  1.00 55.67     0.007 C 
HETATM    9  C9  BCR K 101     -34.887 130.771   8.852  1.00 52.89    -0.062 C 
HETATM   10  C10 BCR K 101     -35.562 131.903   8.573  1.00 55.14     0.007 C 
HETATM   11  C11 BCR K 101     -36.267 132.729   9.553  1.00 61.50     0.001 C 
HETATM   12  C33 BCR K 101     -31.262 129.143   6.893  1.00 62.66     0.044 C 
HETATM   13  C31 BCR K 101     -34.871 125.991   7.113  1.00 50.75     0.020 C 
HETATM   14  C32 BCR K 101     -35.572 127.755   5.513  1.00 48.41     0.020 C 
HETATM   15  C34 BCR K 101     -34.752 130.253  10.250  1.00 53.75     0.048 C 
HETATM   16  C12 BCR K 101     -37.000 133.735   9.067  1.00 59.30     0.007 C 
HETATM   17  C13 BCR K 101     -37.844 134.638   9.879  1.00 63.72    -0.062 C 
HETATM   18  C14 BCR K 101     -38.527 135.628   9.259  1.00 56.40     0.007 C 
HETATM   19  C15 BCR K 101     -39.445 136.537   9.950  1.00 52.49     0.001 C 
HETATM   20  C16 BCR K 101     -40.094 137.517   9.309  1.00 54.34     0.001 C 
HETATM   21  C17 BCR K 101     -41.047 138.365  10.036  1.00 49.34     0.007 C 
HETATM   22  C18 BCR K 101     -41.761 139.357   9.463  1.00 62.88    -0.062 C 
HETATM   23  C19 BCR K 101     -42.744 140.106  10.294  1.00 60.90     0.007 C 
HETATM   24  C20 BCR K 101     -43.756 140.808   9.770  1.00 51.07     0.001 C 
HETATM   25  C21 BCR K 101     -44.706 141.474  10.667  1.00 47.75     0.007 C 
HETATM   26  C22 BCR K 101     -45.842 142.086  10.284  1.00 48.45    -0.062 C 
HETATM   27  C23 BCR K 101     -46.644 142.636  11.226  1.00 53.56     0.007 C 
HETATM   28  C24 BCR K 101     -47.843 143.173  10.921  1.00 50.64     0.009 C 
HETATM   29  C25 BCR K 101     -48.780 143.801  11.907  1.00 69.21    -0.048 C 
HETATM   30  C26 BCR K 101     -48.427 144.900  12.614  1.00 58.66    -0.077 C 
HETATM   31  C27 BCR K 101     -49.355 145.555  13.613  1.00 58.99     0.034 C 
HETATM   32  C28 BCR K 101     -50.326 144.545  14.183  1.00 47.83     0.005 C 
HETATM   33  C29 BCR K 101     -51.079 143.884  13.038  1.00 60.06     0.014 C 
HETATM   34  C30 BCR K 101     -50.154 143.160  12.063  1.00 65.44    -0.020 C 
HETATM   35  C35 BCR K 101     -37.977 134.403  11.354  1.00 53.57     0.048 C 
HETATM   36  C36 BCR K 101     -41.571 139.676   8.005  1.00 46.50     0.048 C 
HETATM   37  C37 BCR K 101     -46.230 142.174   8.826  1.00 47.91     0.048 C 
HETATM   38  C38 BCR K 101     -47.085 145.560  12.462  1.00 59.26     0.044 C 
HETATM   39  C39 BCR K 101     -50.841 143.162  10.699  1.00 43.58     0.020 C 
HETATM   40  C40 BCR K 101     -49.994 141.718  12.519  1.00 44.74     0.020 C 
ENDROOT
TORSDOF 10
