REMARK VINA RESULT:    -9.672      0.000      0.000
REMARK INTER + INTRA:         -16.453
REMARK INTER:                  -9.672
REMARK INTRA:                  -6.781
REMARK UNBOUND:                -6.781
REMARK  0 active torsions:
REMARK  status: ('A' for Active; 'I' for Inactive)
REMARK       I    between atoms: C6_6  and  C7_7 
REMARK       I    between atoms: C8_8  and  C9_9 
REMARK       I    between atoms: C10_10  and  C11_11 
REMARK       I    between atoms: C12_16  and  C13_17 
REMARK       I    between atoms: C14_18  and  C15_19 
REMARK       I    between atoms: C16_20  and  C17_21 
REMARK       I    between atoms: C18_22  and  C19_23 
REMARK       I    between atoms: C20_24  and  C21_25 
REMARK       I    between atoms: C22_26  and  C23_27 
REMARK       I    between atoms: C24_28  and  C25_29 
ROOT
HETATM    1  C1  BCR H 101     -51.089 149.484  10.448  1.00 46.06    -0.020 C 
HETATM    2  C2  BCR H 101     -52.231 150.395   9.994  1.00 47.54     0.014 C 
HETATM    3  C3  BCR H 101     -52.541 150.129   8.535  1.00 47.88     0.005 C 
HETATM    4  C4  BCR H 101     -51.357 150.583   7.703  1.00 39.95     0.034 C 
HETATM    5  C5  BCR H 101     -50.032 150.094   8.251  1.00 52.72    -0.077 C 
HETATM    6  C6  BCR H 101     -49.890 149.592   9.513  1.00 44.05    -0.048 C 
HETATM    7  C7  BCR H 101     -48.602 149.097  10.089  1.00 41.77     0.009 C 
HETATM    8  C8  BCR H 101     -47.716 148.300   9.474  1.00 39.73     0.007 C 
HETATM    9  C9  BCR H 101     -46.468 147.826  10.118  1.00 51.82    -0.062 C 
HETATM   10  C10 BCR H 101     -45.781 146.848   9.503  1.00 44.04     0.007 C 
HETATM   11  C11 BCR H 101     -44.551 146.214   9.980  1.00 50.55     0.001 C 
HETATM   12  C33 BCR H 101     -48.909 150.240   7.259  1.00 45.83     0.044 C 
HETATM   13  C31 BCR H 101     -51.580 148.047  10.457  1.00 36.85     0.020 C 
HETATM   14  C32 BCR H 101     -50.693 149.857  11.879  1.00 40.14     0.020 C 
HETATM   15  C34 BCR H 101     -46.001 148.411  11.423  1.00 48.50     0.048 C 
HETATM   16  C12 BCR H 101     -44.287 145.000   9.478  1.00 64.73     0.007 C 
HETATM   17  C13 BCR H 101     -43.119 144.159   9.837  1.00 72.39    -0.062 C 
HETATM   18  C14 BCR H 101     -42.928 142.981   9.201  1.00 61.01     0.007 C 
HETATM   19  C15 BCR H 101     -41.809 142.071   9.495  1.00 53.62     0.001 C 
HETATM   20  C16 BCR H 101     -41.817 140.825   9.002  1.00 51.67     0.001 C 
HETATM   21  C17 BCR H 101     -40.734 139.861   9.234  1.00 53.95     0.007 C 
HETATM   22  C18 BCR H 101     -40.824 138.583   8.795  1.00 56.08    -0.062 C 
HETATM   23  C19 BCR H 101     -39.727 137.618   9.053  1.00 64.56     0.007 C 
HETATM   24  C20 BCR H 101     -39.754 136.331   8.685  1.00 42.37     0.001 C 
HETATM   25  C21 BCR H 101     -38.602 135.496   9.040  1.00 57.40     0.007 C 
HETATM   26  C22 BCR H 101     -38.462 134.199   8.701  1.00 67.24    -0.062 C 
HETATM   27  C23 BCR H 101     -37.362 133.529   9.096  1.00 62.55     0.007 C 
HETATM   28  C24 BCR H 101     -37.207 132.209   8.891  1.00 52.65     0.009 C 
HETATM   29  C25 BCR H 101     -36.004 131.442   9.333  1.00 59.76    -0.048 C 
HETATM   30  C26 BCR H 101     -35.807 131.132  10.626  1.00 55.29    -0.077 C 
HETATM   31  C27 BCR H 101     -34.606 130.348  11.116  1.00 50.09     0.034 C 
HETATM   32  C28 BCR H 101     -33.448 130.363  10.132  1.00 47.48     0.005 C 
HETATM   33  C29 BCR H 101     -33.971 130.024   8.751  1.00 49.30     0.014 C 
HETATM   34  C30 BCR H 101     -35.026 131.016   8.265  1.00 65.35    -0.020 C 
HETATM   35  C35 BCR H 101     -42.184 144.599  10.924  1.00 73.87     0.048 C 
HETATM   36  C36 BCR H 101     -42.054 138.125   8.078  1.00 50.16     0.048 C 
HETATM   37  C37 BCR H 101     -39.517 133.501   7.893  1.00 67.94     0.048 C 
HETATM   38  C38 BCR H 101     -36.805 131.557  11.664  1.00 48.54     0.044 C 
HETATM   39  C39 BCR H 101     -35.841 130.355   7.153  1.00 52.27     0.020 C 
HETATM   40  C40 BCR H 101     -34.330 132.274   7.749  1.00 64.09     0.020 C 
ENDROOT
TORSDOF 10
