REMARK VINA RESULT:    -9.043      0.000      0.000
REMARK INTER + INTRA:         -15.088
REMARK INTER:                  -9.043
REMARK INTRA:                  -6.044
REMARK UNBOUND:                -6.044
REMARK  0 active torsions:
REMARK  status: ('A' for Active; 'I' for Inactive)
REMARK       I    between atoms: C6_6  and  C7_7 
REMARK       I    between atoms: C8_8  and  C9_9 
REMARK       I    between atoms: C10_10  and  C11_11 
REMARK       I    between atoms: C12_16  and  C13_17 
REMARK       I    between atoms: C14_18  and  C15_19 
REMARK       I    between atoms: C16_20  and  C17_21 
REMARK       I    between atoms: C18_22  and  C19_23 
REMARK       I    between atoms: C20_24  and  C21_25 
REMARK       I    between atoms: C22_26  and  C23_27 
REMARK       I    between atoms: C24_28  and  C25_29 
ROOT
HETATM    1  C1  BCR B 619     -34.572 130.204   7.827  1.00 28.89    -0.020 C 
HETATM    2  C2  BCR B 619     -33.332 129.483   8.389  1.00 28.87     0.014 C 
HETATM    3  C3  BCR B 619     -32.763 130.184   9.616  1.00 24.82     0.005 C 
HETATM    4  C4  BCR B 619     -33.815 130.332  10.734  1.00 26.55     0.034 C 
HETATM    5  C5  BCR B 619     -35.175 130.799  10.217  1.00 25.55    -0.077 C 
HETATM    6  C6  BCR B 619     -35.518 130.755   8.907  1.00 25.71    -0.048 C 
HETATM    7  C7  BCR B 619     -36.839 131.289   8.433  1.00 26.15     0.009 C 
HETATM    8  C8  BCR B 619     -37.235 132.548   8.750  1.00 24.62     0.007 C 
HETATM    9  C9  BCR B 619     -38.492 133.187   8.289  1.00 23.75    -0.062 C 
HETATM   10  C10 BCR B 619     -38.757 134.413   8.774  1.00 23.51     0.007 C 
HETATM   11  C11 BCR B 619     -39.952 135.206   8.393  1.00 22.91     0.001 C 
HETATM   12  C33 BCR B 619     -36.102 131.345  11.271  1.00 26.88     0.044 C 
HETATM   13  C31 BCR B 619     -35.287 129.147   6.977  1.00 28.47     0.020 C 
HETATM   14  C32 BCR B 619     -34.102 131.358   6.928  1.00 29.15     0.020 C 
HETATM   15  C34 BCR B 619     -39.387 132.483   7.248  1.00 23.47     0.048 C 
HETATM   16  C12 BCR B 619     -40.064 136.508   8.702  1.00 20.45     0.007 C 
HETATM   17  C13 BCR B 619     -41.200 137.367   8.321  1.00 21.99    -0.062 C 
HETATM   18  C14 BCR B 619     -41.294 138.633   8.819  1.00 22.06     0.007 C 
HETATM   19  C15 BCR B 619     -42.354 139.633   8.572  1.00 21.97     0.001 C 
HETATM   20  C16 BCR B 619     -42.492 140.791   9.277  1.00 20.65     0.001 C 
HETATM   21  C17 BCR B 619     -43.591 141.721   8.998  1.00 23.36     0.007 C 
HETATM   22  C18 BCR B 619     -43.819 142.933   9.541  1.00 22.90    -0.062 C 
HETATM   23  C19 BCR B 619     -44.993 143.715   9.062  1.00 24.93     0.007 C 
HETATM   24  C20 BCR B 619     -45.417 144.835   9.682  1.00 23.33     0.001 C 
HETATM   25  C21 BCR B 619     -46.582 145.580   9.223  1.00 25.92     0.007 C 
HETATM   26  C22 BCR B 619     -47.071 146.761   9.708  1.00 29.58    -0.062 C 
HETATM   27  C23 BCR B 619     -48.264 147.330   9.009  1.00 30.44     0.007 C 
HETATM   28  C24 BCR B 619     -49.022 148.365   9.461  1.00 37.61     0.009 C 
HETATM   29  C25 BCR B 619     -50.221 149.002   8.776  1.00 35.86    -0.048 C 
HETATM   30  C26 BCR B 619     -51.420 148.384   8.665  1.00 38.98    -0.077 C 
HETATM   31  C27 BCR B 619     -52.600 149.045   7.996  1.00 37.08     0.034 C 
HETATM   32  C28 BCR B 619     -52.134 149.919   6.840  1.00 38.77     0.005 C 
HETATM   33  C29 BCR B 619     -51.269 151.008   7.454  1.00 41.75     0.014 C 
HETATM   34  C30 BCR B 619     -50.072 150.443   8.259  1.00 42.71    -0.020 C 
HETATM   35  C35 BCR B 619     -42.197 136.803   7.306  1.00 20.47     0.048 C 
HETATM   36  C36 BCR B 619     -42.960 143.534  10.670  1.00 21.73     0.048 C 
HETATM   37  C37 BCR B 619     -46.450 147.526  10.895  1.00 28.12     0.048 C 
HETATM   38  C38 BCR B 619     -51.678 146.982   9.155  1.00 37.79     0.044 C 
HETATM   39  C39 BCR B 619     -49.863 151.350   9.503  1.00 45.59     0.020 C 
HETATM   40  C40 BCR B 619     -48.865 150.539   7.351  1.00 39.52     0.020 C 
ENDROOT
TORSDOF 10
