REMARK VINA RESULT:    -7.051      1.817     16.466
REMARK INTER + INTRA:          -9.479
REMARK INTER:                  -6.421
REMARK INTRA:                  -3.058
REMARK UNBOUND:                -2.428
REMARK  0 active torsions:
REMARK  status: ('A' for Active; 'I' for Inactive)
REMARK       I    between atoms: C6_6  and  C7_7 
REMARK       I    between atoms: C8_8  and  C9_9 
REMARK       I    between atoms: C10_10  and  C11_11 
REMARK       I    between atoms: C12_16  and  C13_17 
REMARK       I    between atoms: C14_18  and  C15_19 
REMARK       I    between atoms: C16_20  and  C17_21 
REMARK       I    between atoms: C18_22  and  C19_23 
REMARK       I    between atoms: C20_24  and  C21_25 
REMARK       I    between atoms: C22_26  and  C23_27 
REMARK       I    between atoms: C24_28  and  C25_29 
ROOT
HETATM    1  C1  BCR C 515     -33.600 127.394   7.288  1.00 38.64    -0.020 C 
HETATM    2  C2  BCR C 515     -32.725 126.405   6.513  1.00 35.63     0.014 C 
HETATM    3  C3  BCR C 515     -32.329 126.902   5.133  1.00 36.63     0.005 C 
HETATM    4  C4  BCR C 515     -33.507 127.312   4.301  1.00 37.53     0.034 C 
HETATM    5  C5  BCR C 515     -34.647 127.925   5.086  1.00 37.33    -0.077 C 
HETATM    6  C6  BCR C 515     -34.702 127.964   6.431  1.00 36.93    -0.048 C 
HETATM    7  C7  BCR C 515     -35.869 128.564   7.150  1.00 39.97     0.009 C 
HETATM    8  C8  BCR C 515     -36.149 129.865   7.060  1.00 43.71     0.007 C 
HETATM    9  C9  BCR C 515     -37.282 130.517   7.744  1.00 46.26    -0.062 C 
HETATM   10  C10 BCR C 515     -37.342 131.862   7.652  1.00 44.64     0.007 C 
HETATM   11  C11 BCR C 515     -38.400 132.668   8.284  1.00 42.43     0.001 C 
HETATM   12  C33 BCR C 515     -35.754 128.478   4.240  1.00 39.04     0.044 C 
HETATM   13  C31 BCR C 515     -32.726 128.544   7.831  1.00 36.17     0.020 C 
HETATM   14  C32 BCR C 515     -34.316 126.615   8.407  1.00 37.04     0.020 C 
HETATM   15  C34 BCR C 515     -38.335 129.709   8.477  1.00 45.26     0.048 C 
HETATM   16  C12 BCR C 515     -38.645 133.897   7.827  1.00 41.87     0.007 C 
HETATM   17  C13 BCR C 515     -39.683 134.762   8.411  1.00 44.10    -0.062 C 
HETATM   18  C14 BCR C 515     -39.648 136.098   8.162  1.00 43.10     0.007 C 
HETATM   19  C15 BCR C 515     -40.640 137.041   8.713  1.00 44.95     0.001 C 
HETATM   20  C16 BCR C 515     -40.538 138.366   8.549  1.00 42.57     0.001 C 
HETATM   21  C17 BCR C 515     -41.528 139.270   9.145  1.00 44.11     0.007 C 
HETATM   22  C18 BCR C 515     -41.584 140.606   8.901  1.00 45.12    -0.062 C 
HETATM   23  C19 BCR C 515     -42.630 141.392   9.618  1.00 42.40     0.007 C 
HETATM   24  C20 BCR C 515     -42.777 142.714   9.510  1.00 44.25     0.001 C 
HETATM   25  C21 BCR C 515     -43.820 143.408  10.277  1.00 44.77     0.007 C 
HETATM   26  C22 BCR C 515     -43.920 144.752  10.441  1.00 45.45    -0.062 C 
HETATM   27  C23 BCR C 515     -45.057 145.265  11.252  1.00 43.97     0.007 C 
HETATM   28  C24 BCR C 515     -45.511 146.524  11.147  1.00 46.37     0.009 C 
HETATM   29  C25 BCR C 515     -46.675 147.007  11.953  1.00 44.97    -0.048 C 
HETATM   30  C26 BCR C 515     -47.893 146.904  11.385  1.00 43.46    -0.077 C 
HETATM   31  C27 BCR C 515     -49.186 147.343  12.059  1.00 42.55     0.034 C 
HETATM   32  C28 BCR C 515     -49.034 147.667  13.548  1.00 44.37     0.005 C 
HETATM   33  C29 BCR C 515     -47.699 148.344  13.857  1.00 46.88     0.014 C 
HETATM   34  C30 BCR C 515     -46.471 147.580  13.341  1.00 44.50    -0.020 C 
HETATM   35  C35 BCR C 515     -40.770 134.114   9.245  1.00 43.98     0.048 C 
HETATM   36  C36 BCR C 515     -40.591 141.286   7.973  1.00 37.46     0.048 C 
HETATM   37  C37 BCR C 515     -42.930 145.721   9.837  1.00 40.96     0.048 C 
HETATM   38  C38 BCR C 515     -48.001 146.338   9.994  1.00 36.94     0.044 C 
HETATM   39  C39 BCR C 515     -46.080 146.470  14.326  1.00 44.31     0.020 C 
HETATM   40  C40 BCR C 515     -45.339 148.599  13.266  1.00 48.67     0.020 C 
ENDROOT
TORSDOF 10
