REMARK VINA RESULT:    -8.729      2.097     16.429
REMARK INTER + INTRA:         -12.271
REMARK INTER:                  -8.632
REMARK INTRA:                  -3.638
REMARK UNBOUND:                -3.542
REMARK  0 active torsions:
REMARK  status: ('A' for Active; 'I' for Inactive)
REMARK       I    between atoms: C6_6  and  C7_7 
REMARK       I    between atoms: C8_8  and  C9_9 
REMARK       I    between atoms: C10_10  and  C11_11 
REMARK       I    between atoms: C12_16  and  C13_17 
REMARK       I    between atoms: C14_18  and  C15_19 
REMARK       I    between atoms: C16_20  and  C17_21 
REMARK       I    between atoms: C18_22  and  C19_23 
REMARK       I    between atoms: C20_24  and  C21_25 
REMARK       I    between atoms: C22_26  and  C23_27 
REMARK       I    between atoms: C24_28  and  C25_29 
ROOT
HETATM    1  C1  BCR C 515     -44.903 147.419  12.789  1.00 39.71    -0.020 C 
HETATM    2  C2  BCR C 515     -45.735 148.397  13.593  1.00 40.37     0.014 C 
HETATM    3  C3  BCR C 515     -46.486 147.667  14.681  1.00 43.17     0.005 C 
HETATM    4  C4  BCR C 515     -47.472 146.729  14.023  1.00 48.98     0.034 C 
HETATM    5  C5  BCR C 515     -46.740 145.765  13.126  1.00 42.59    -0.077 C 
HETATM    6  C6  BCR C 515     -45.599 146.102  12.525  1.00 38.03    -0.048 C 
HETATM    7  C7  BCR C 515     -44.983 145.186  11.544  1.00 39.13     0.009 C 
HETATM    8  C8  BCR C 515     -44.335 144.060  11.833  1.00 40.01     0.007 C 
HETATM    9  C9  BCR C 515     -43.771 143.234  10.747  1.00 48.45    -0.062 C 
HETATM   10  C10 BCR C 515     -43.161 142.081  11.034  1.00 46.14     0.007 C 
HETATM   11  C11 BCR C 515     -42.587 141.223  10.001  1.00 42.52     0.001 C 
HETATM   12  C33 BCR C 515     -47.355 144.414  12.927  1.00 41.43     0.044 C 
HETATM   13  C31 BCR C 515     -43.614 147.152  13.539  1.00 36.91     0.020 C 
HETATM   14  C32 BCR C 515     -44.566 148.061  11.457  1.00 47.25     0.020 C 
HETATM   15  C34 BCR C 515     -43.859 143.690   9.320  1.00 41.23     0.048 C 
HETATM   16  C12 BCR C 515     -41.720 140.285  10.363  1.00 42.82     0.007 C 
HETATM   17  C13 BCR C 515     -41.095 139.337   9.421  1.00 44.74    -0.062 C 
HETATM   18  C14 BCR C 515     -40.563 138.224   9.935  1.00 43.56     0.007 C 
HETATM   19  C15 BCR C 515     -39.942 137.192   9.122  1.00 39.26     0.001 C 
HETATM   20  C16 BCR C 515     -39.446 136.118   9.722  1.00 40.16     0.001 C 
HETATM   21  C17 BCR C 515     -38.850 135.063   8.920  1.00 42.34     0.007 C 
HETATM   22  C18 BCR C 515     -38.157 134.048   9.443  1.00 44.22    -0.062 C 
HETATM   23  C19 BCR C 515     -37.628 133.038   8.514  1.00 48.96     0.007 C 
HETATM   24  C20 BCR C 515     -36.822 132.052   8.876  1.00 51.51     0.001 C 
HETATM   25  C21 BCR C 515     -36.417 131.148   7.813  1.00 48.83     0.007 C 
HETATM   26  C22 BCR C 515     -35.461 130.234   7.966  1.00 46.78    -0.062 C 
HETATM   27  C23 BCR C 515     -35.149 129.377   6.819  1.00 46.17     0.007 C 
HETATM   28  C24 BCR C 515     -34.453 128.255   6.952  1.00 45.08     0.009 C 
HETATM   29  C25 BCR C 515     -34.155 127.390   5.797  1.00 45.02    -0.048 C 
HETATM   30  C26 BCR C 515     -35.123 126.667   5.234  1.00 46.86    -0.077 C 
HETATM   31  C27 BCR C 515     -34.900 125.850   3.985  1.00 50.72     0.034 C 
HETATM   32  C28 BCR C 515     -33.686 126.354   3.240  1.00 55.86     0.005 C 
HETATM   33  C29 BCR C 515     -32.524 126.320   4.206  1.00 52.85     0.014 C 
HETATM   34  C30 BCR C 515     -32.731 127.343   5.311  1.00 52.22    -0.020 C 
HETATM   35  C35 BCR C 515     -41.057 139.591   7.944  1.00 45.43     0.048 C 
HETATM   36  C36 BCR C 515     -37.937 133.932  10.919  1.00 42.28     0.048 C 
HETATM   37  C37 BCR C 515     -34.734 130.098   9.264  1.00 46.03     0.048 C 
HETATM   38  C38 BCR C 515     -36.497 126.626   5.836  1.00 45.04     0.044 C 
HETATM   39  C39 BCR C 515     -32.356 128.722   4.795  1.00 52.25     0.020 C 
HETATM   40  C40 BCR C 515     -31.861 126.977   6.497  1.00 47.46     0.020 C 
ENDROOT
TORSDOF 10
