REMARK VINA RESULT:    -8.186      0.000      0.000
REMARK INTER + INTRA:         -11.612
REMARK INTER:                  -8.186
REMARK INTRA:                  -3.425
REMARK UNBOUND:                -3.425
REMARK  0 active torsions:
REMARK  status: ('A' for Active; 'I' for Inactive)
REMARK       I    between atoms: C6_6  and  C7_7 
REMARK       I    between atoms: C8_8  and  C9_9 
REMARK       I    between atoms: C10_10  and  C11_11 
REMARK       I    between atoms: C12_16  and  C13_17 
REMARK       I    between atoms: C14_18  and  C15_19 
REMARK       I    between atoms: C16_20  and  C17_21 
REMARK       I    between atoms: C18_22  and  C19_23 
REMARK       I    between atoms: C20_24  and  C21_25 
REMARK       I    between atoms: C22_26  and  C23_27 
REMARK       I    between atoms: C24_28  and  C25_29 
ROOT
HETATM    1  C1  BCR B 618     -46.168 150.088  12.013  1.00 32.17    -0.020 C 
HETATM    2  C2  BCR B 618     -47.001 151.350  11.811  1.00 31.21     0.014 C 
HETATM    3  C3  BCR B 618     -47.741 151.312  10.485  1.00 25.40     0.005 C 
HETATM    4  C4  BCR B 618     -46.759 151.280   9.322  1.00 32.46     0.034 C 
HETATM    5  C5  BCR B 618     -45.613 150.317   9.575  1.00 24.06    -0.077 C 
HETATM    6  C6  BCR B 618     -45.329 149.779  10.785  1.00 29.25    -0.048 C 
HETATM    7  C7  BCR B 618     -44.170 148.856  10.945  1.00 12.74     0.009 C 
HETATM    8  C8  BCR B 618     -44.258 147.520  10.791  1.00 19.92     0.007 C 
HETATM    9  C9  BCR B 618     -43.081 146.613  10.941  1.00 18.47    -0.062 C 
HETATM   10  C10 BCR B 618     -43.209 145.281  10.744  1.00 19.37     0.007 C 
HETATM   11  C11 BCR B 618     -42.104 144.307  10.839  1.00 24.83     0.001 C 
HETATM   12  C33 BCR B 618     -44.764 149.996   8.385  1.00 28.03     0.044 C 
HETATM   13  C31 BCR B 618     -47.080 148.896  12.298  1.00 29.30     0.020 C 
HETATM   14  C32 BCR B 618     -45.257 150.307  13.212  1.00 21.79     0.020 C 
HETATM   15  C34 BCR B 618     -41.736 147.182  11.288  1.00 26.35     0.048 C 
HETATM   16  C12 BCR B 618     -42.318 143.006  10.521  1.00 21.16     0.007 C 
HETATM   17  C13 BCR B 618     -41.258 141.955  10.547  1.00 24.62    -0.062 C 
HETATM   18  C14 BCR B 618     -41.565 140.661  10.242  1.00 15.54     0.007 C 
HETATM   19  C15 BCR B 618     -40.600 139.530  10.192  1.00 12.82     0.001 C 
HETATM   20  C16 BCR B 618     -40.979 138.280   9.821  1.00 24.30     0.001 C 
HETATM   21  C17 BCR B 618     -40.015 137.156   9.716  1.00 16.13     0.007 C 
HETATM   22  C18 BCR B 618     -40.305 135.942   9.173  1.00 18.31    -0.062 C 
HETATM   23  C19 BCR B 618     -39.255 134.890   9.075  1.00 25.80     0.007 C 
HETATM   24  C20 BCR B 618     -39.390 133.720   8.420  1.00 23.93     0.001 C 
HETATM   25  C21 BCR B 618     -38.230 132.822   8.433  1.00 21.34     0.007 C 
HETATM   26  C22 BCR B 618     -38.073 131.687   7.731  1.00 23.72    -0.062 C 
HETATM   27  C23 BCR B 618     -36.913 130.975   7.873  1.00 17.58     0.007 C 
HETATM   28  C24 BCR B 618     -36.652 129.821   7.217  1.00 13.80     0.009 C 
HETATM   29  C25 BCR B 618     -35.408 128.999   7.356  1.00 25.70    -0.048 C 
HETATM   30  C26 BCR B 618     -34.162 129.502   7.149  1.00 16.18    -0.077 C 
HETATM   31  C27 BCR B 618     -32.901 128.667   7.299  1.00 28.93     0.034 C 
HETATM   32  C28 BCR B 618     -33.179 127.174   7.284  1.00 35.11     0.005 C 
HETATM   33  C29 BCR B 618     -34.341 126.826   8.194  1.00 27.97     0.014 C 
HETATM   34  C30 BCR B 618     -35.613 127.532   7.736  1.00 27.33    -0.020 C 
HETATM   35  C35 BCR B 618     -39.845 142.377  10.867  1.00 11.92     0.048 C 
HETATM   36  C36 BCR B 618     -41.685 135.617   8.682  1.00 19.38     0.048 C 
HETATM   37  C37 BCR B 618     -39.186 131.211   6.840  1.00 13.28     0.048 C 
HETATM   38  C38 BCR B 618     -33.914 130.936   6.775  1.00 17.46     0.044 C 
HETATM   39  C39 BCR B 618     -36.598 127.451   8.890  1.00 25.99     0.020 C 
HETATM   40  C40 BCR B 618     -36.205 126.765   6.560  1.00 23.14     0.020 C 
ENDROOT
TORSDOF 10
