REMARK VINA RESULT:    -8.942      2.192     16.314
REMARK INTER + INTRA:         -11.525
REMARK INTER:                  -8.154
REMARK INTRA:                  -3.371
REMARK UNBOUND:                -2.583
REMARK  0 active torsions:
REMARK  status: ('A' for Active; 'I' for Inactive)
REMARK       I    between atoms: C6_6  and  C7_7 
REMARK       I    between atoms: C8_8  and  C9_9 
REMARK       I    between atoms: C10_10  and  C11_11 
REMARK       I    between atoms: C12_16  and  C13_17 
REMARK       I    between atoms: C14_18  and  C15_19 
REMARK       I    between atoms: C16_20  and  C17_21 
REMARK       I    between atoms: C18_22  and  C19_23 
REMARK       I    between atoms: C20_24  and  C21_25 
REMARK       I    between atoms: C22_26  and  C23_27 
REMARK       I    between atoms: C24_28  and  C25_29 
ROOT
HETATM    1  C1  BCR C 515     -36.676 127.503   8.636  1.00 64.45    -0.020 C 
HETATM    2  C2  BCR C 515     -35.598 126.432   8.627  1.00 66.34     0.014 C 
HETATM    3  C3  BCR C 515     -34.235 127.056   8.857  1.00 64.94     0.005 C 
HETATM    4  C4  BCR C 515     -33.898 127.940   7.672  1.00 69.15     0.034 C 
HETATM    5  C5  BCR C 515     -35.015 128.927   7.400  1.00 67.88    -0.077 C 
HETATM    6  C6  BCR C 515     -36.278 128.731   7.833  1.00 62.48    -0.048 C 
HETATM    7  C7  BCR C 515     -37.327 129.738   7.519  1.00 58.32     0.009 C 
HETATM    8  C8  BCR C 515     -37.497 130.871   8.211  1.00 62.07     0.007 C 
HETATM    9  C9  BCR C 515     -38.555 131.834   7.828  1.00 70.38    -0.062 C 
HETATM   10  C10 BCR C 515     -38.551 133.064   8.377  1.00 58.20     0.007 C 
HETATM   11  C11 BCR C 515     -39.531 134.116   8.081  1.00 74.05     0.001 C 
HETATM   12  C33 BCR C 515     -34.653 130.153   6.607  1.00 58.01     0.044 C 
HETATM   13  C31 BCR C 515     -36.916 127.903  10.085  1.00 56.77     0.020 C 
HETATM   14  C32 BCR C 515     -37.955 126.934   8.035  1.00 77.72     0.020 C 
HETATM   15  C34 BCR C 515     -39.601 131.427   6.827  1.00 64.61     0.048 C 
HETATM   16  C12 BCR C 515     -39.433 135.283   8.735  1.00 68.22     0.007 C 
HETATM   17  C13 BCR C 515     -40.357 136.418   8.511  1.00 69.92    -0.062 C 
HETATM   18  C14 BCR C 515     -40.179 137.560   9.205  1.00 61.13     0.007 C 
HETATM   19  C15 BCR C 515     -41.059 138.721   9.021  1.00 67.07     0.001 C 
HETATM   20  C16 BCR C 515     -40.786 139.900   9.584  1.00 65.97     0.001 C 
HETATM   21  C17 BCR C 515     -41.687 141.038   9.384  1.00 63.92     0.007 C 
HETATM   22  C18 BCR C 515     -41.565 142.176  10.099  1.00 72.24    -0.062 C 
HETATM   23  C19 BCR C 515     -42.512 143.294   9.880  1.00 72.11     0.007 C 
HETATM   24  C20 BCR C 515     -42.506 144.395  10.637  1.00 62.37     0.001 C 
HETATM   25  C21 BCR C 515     -43.510 145.421  10.355  1.00 64.97     0.007 C 
HETATM   26  C22 BCR C 515     -43.806 146.432  11.199  1.00 64.05    -0.062 C 
HETATM   27  C23 BCR C 515     -44.766 147.291  10.810  1.00 66.35     0.007 C 
HETATM   28  C24 BCR C 515     -45.058 148.469  11.376  1.00 62.33     0.009 C 
HETATM   29  C25 BCR C 515     -46.136 149.355  10.838  1.00 72.77    -0.048 C 
HETATM   30  C26 BCR C 515     -46.026 149.943   9.626  1.00 78.06    -0.077 C 
HETATM   31  C27 BCR C 515     -47.093 150.849   9.046  1.00 80.00     0.034 C 
HETATM   32  C28 BCR C 515     -48.423 150.686   9.756  1.00 71.02     0.005 C 
HETATM   33  C29 BCR C 515     -48.169 150.782  11.245  1.00 72.75     0.014 C 
HETATM   34  C30 BCR C 515     -47.363 149.580  11.701  1.00 66.18    -0.020 C 
HETATM   35  C35 BCR C 515     -41.476 136.308   7.513  1.00 51.91     0.048 C 
HETATM   36  C36 BCR C 515     -40.498 142.301  11.148  1.00 60.56     0.048 C 
HETATM   37  C37 BCR C 515     -43.077 146.594  12.503  1.00 49.66     0.048 C 
HETATM   38  C38 BCR C 515     -44.820 149.741   8.753  1.00 83.49     0.044 C 
HETATM   39  C39 BCR C 515     -48.243 148.339  11.631  1.00 61.85     0.020 C 
HETATM   40  C40 BCR C 515     -46.904 149.836  13.128  1.00 69.80     0.020 C 
ENDROOT
TORSDOF 10
