REMARK VINA RESULT:    -7.744      2.888      4.902
REMARK INTER + INTRA:         -13.627
REMARK INTER:                 -11.540
REMARK INTRA:                  -2.087
REMARK UNBOUND:                -5.883
REMARK  0 active torsions:
REMARK  status: ('A' for Active; 'I' for Inactive)
REMARK       I    between atoms: C6_6  and  C7_7 
REMARK       I    between atoms: C8_8  and  C9_9 
REMARK       I    between atoms: C10_10  and  C11_11 
REMARK       I    between atoms: C12_16  and  C13_17 
REMARK       I    between atoms: C14_18  and  C15_19 
REMARK       I    between atoms: C16_20  and  C17_21 
REMARK       I    between atoms: C18_22  and  C19_23 
REMARK       I    between atoms: C20_24  and  C21_25 
REMARK       I    between atoms: C22_26  and  C23_27 
REMARK       I    between atoms: C24_28  and  C25_29 
ROOT
HETATM    1  C1  BCR B 619     -33.975 126.775   7.022  1.00 29.78    -0.020 C 
HETATM    2  C2  BCR B 619     -33.058 126.028   6.062  1.00 32.88     0.014 C 
HETATM    3  C3  BCR B 619     -32.860 126.786   4.777  1.00 32.12     0.005 C 
HETATM    4  C4  BCR B 619     -32.239 128.139   4.990  1.00 29.37     0.034 C 
HETATM    5  C5  BCR B 619     -32.807 128.854   6.211  1.00 26.51    -0.077 C 
HETATM    6  C6  BCR B 619     -33.645 128.269   7.112  1.00 26.75    -0.048 C 
HETATM    7  C7  BCR B 619     -34.343 129.050   8.161  1.00 27.16     0.009 C 
HETATM    8  C8  BCR B 619     -34.804 130.291   8.019  1.00 26.20     0.007 C 
HETATM    9  C9  BCR B 619     -35.556 130.992   9.036  1.00 20.49    -0.062 C 
HETATM   10  C10 BCR B 619     -36.094 132.178   8.695  1.00 22.41     0.007 C 
HETATM   11  C11 BCR B 619     -36.957 132.987   9.543  1.00 20.79     0.001 C 
HETATM   12  C33 BCR B 619     -32.278 130.266   6.394  1.00 26.02     0.044 C 
HETATM   13  C31 BCR B 619     -33.848 126.124   8.368  1.00 32.38     0.020 C 
HETATM   14  C32 BCR B 619     -35.424 126.681   6.527  1.00 28.82     0.020 C 
HETATM   15  C34 BCR B 619     -35.663 130.347  10.392  1.00 20.53     0.048 C 
HETATM   16  C12 BCR B 619     -37.565 134.100   9.061  1.00 22.97     0.007 C 
HETATM   17  C13 BCR B 619     -38.451 134.976   9.892  1.00 24.26    -0.062 C 
HETATM   18  C14 BCR B 619     -38.991 136.108   9.338  1.00 21.19     0.007 C 
HETATM   19  C15 BCR B 619     -39.833 137.106  10.038  1.00 24.01     0.001 C 
HETATM   20  C16 BCR B 619     -40.261 138.249   9.420  1.00 22.73     0.001 C 
HETATM   21  C17 BCR B 619     -41.037 139.217  10.189  1.00 24.34     0.007 C 
HETATM   22  C18 BCR B 619     -41.504 140.439   9.710  1.00 23.72    -0.062 C 
HETATM   23  C19 BCR B 619     -42.304 141.315  10.626  1.00 24.63     0.007 C 
HETATM   24  C20 BCR B 619     -42.763 142.545  10.294  1.00 25.42     0.001 C 
HETATM   25  C21 BCR B 619     -43.487 143.365  11.259  1.00 24.42     0.007 C 
HETATM   26  C22 BCR B 619     -43.898 144.641  11.129  1.00 28.11    -0.062 C 
HETATM   27  C23 BCR B 619     -44.587 145.238  12.295  1.00 27.88     0.007 C 
HETATM   28  C24 BCR B 619     -45.206 146.443  12.258  1.00 48.58     0.009 C 
HETATM   29  C25 BCR B 619     -46.049 147.084  13.375  1.00 40.96    -0.048 C 
HETATM   30  C26 BCR B 619     -45.729 147.108  14.674  1.00 43.15    -0.077 C 
HETATM   31  C27 BCR B 619     -46.658 147.609  15.774  1.00 40.16     0.034 C 
HETATM   32  C28 BCR B 619     -48.083 147.738  15.320  1.00 50.45     0.005 C 
HETATM   33  C29 BCR B 619     -47.978 148.546  14.067  1.00 52.86     0.014 C 
HETATM   34  C30 BCR B 619     -47.329 147.771  12.926  1.00 49.52    -0.020 C 
HETATM   35  C35 BCR B 619     -38.636 134.586  11.384  1.00 23.42     0.048 C 
HETATM   36  C36 BCR B 619     -41.237 140.961   8.302  1.00 23.31     0.048 C 
HETATM   37  C37 BCR B 619     -43.650 145.428   9.833  1.00 31.17     0.048 C 
HETATM   38  C38 BCR B 619     -44.352 146.762  15.152  1.00 48.43     0.044 C 
HETATM   39  C39 BCR B 619     -47.164 148.773  11.754  1.00 62.11     0.020 C 
HETATM   40  C40 BCR B 619     -48.217 146.607  12.560  1.00 46.92     0.020 C 
ENDROOT
TORSDOF 10
