REMARK VINA RESULT:    -6.411      2.324     16.256
REMARK INTER + INTRA:         -11.375
REMARK INTER:                  -7.788
REMARK INTRA:                  -3.587
REMARK UNBOUND:                -4.964
REMARK  0 active torsions:
REMARK  status: ('A' for Active; 'I' for Inactive)
REMARK       I    between atoms: C6_6  and  C7_7 
REMARK       I    between atoms: C8_8  and  C9_9 
REMARK       I    between atoms: C10_10  and  C11_11 
REMARK       I    between atoms: C12_16  and  C13_17 
REMARK       I    between atoms: C14_18  and  C15_19 
REMARK       I    between atoms: C16_20  and  C17_21 
REMARK       I    between atoms: C18_22  and  C19_23 
REMARK       I    between atoms: C20_24  and  C21_25 
REMARK       I    between atoms: C22_26  and  C23_27 
REMARK       I    between atoms: C24_28  and  C25_29 
ROOT
HETATM    1  C1  BCR C 515     -46.660 149.498  12.341  1.00 33.76    -0.020 C 
HETATM    2  C2  BCR C 515     -47.385 150.823  12.456  1.00 33.74     0.014 C 
HETATM    3  C3  BCR C 515     -48.047 151.202  11.161  1.00 33.67     0.005 C 
HETATM    4  C4  BCR C 515     -47.103 151.202   9.987  1.00 33.69     0.034 C 
HETATM    5  C5  BCR C 515     -45.978 150.249  10.111  1.00 33.72    -0.077 C 
HETATM    6  C6  BCR C 515     -45.766 149.445  11.153  1.00 33.76    -0.048 C 
HETATM    7  C7  BCR C 515     -44.614 148.550  11.207  1.00 33.87     0.009 C 
HETATM    8  C8  BCR C 515     -44.653 147.261  10.871  1.00 34.01     0.007 C 
HETATM    9  C9  BCR C 515     -43.553 146.361  11.164  1.00 34.09    -0.062 C 
HETATM   10  C10 BCR C 515     -43.419 145.244  10.445  1.00 34.13     0.007 C 
HETATM   11  C11 BCR C 515     -42.582 144.126  10.806  1.00 34.14     0.001 C 
HETATM   12  C33 BCR C 515     -45.102 150.241   8.929  1.00 33.67     0.044 C 
HETATM   13  C31 BCR C 515     -47.722 148.413  12.296  1.00 33.78     0.020 C 
HETATM   14  C32 BCR C 515     -45.849 149.351  13.610  1.00 33.75     0.020 C 
HETATM   15  C34 BCR C 515     -42.475 146.866  12.039  1.00 34.15     0.048 C 
HETATM   16  C12 BCR C 515     -42.476 143.113   9.945  1.00 34.13     0.007 C 
HETATM   17  C13 BCR C 515     -41.648 141.940  10.106  1.00 34.08    -0.062 C 
HETATM   18  C14 BCR C 515     -41.745 140.959   9.201  1.00 33.92     0.007 C 
HETATM   19  C15 BCR C 515     -41.105 139.682   9.354  1.00 33.87     0.001 C 
HETATM   20  C16 BCR C 515     -41.274 138.727   8.439  1.00 33.76     0.001 C 
HETATM   21  C17 BCR C 515     -40.358 137.626   8.436  1.00 33.69     0.007 C 
HETATM   22  C18 BCR C 515     -40.640 136.377   8.059  1.00 33.60    -0.062 C 
HETATM   23  C19 BCR C 515     -39.612 135.365   8.191  1.00 33.52     0.007 C 
HETATM   24  C20 BCR C 515     -39.741 134.124   7.727  1.00 33.41     0.001 C 
HETATM   25  C21 BCR C 515     -38.731 133.143   8.038  1.00 33.33     0.007 C 
HETATM   26  C22 BCR C 515     -38.752 131.871   7.633  1.00 33.23    -0.062 C 
HETATM   27  C23 BCR C 515     -37.690 130.974   8.060  1.00 33.14     0.007 C 
HETATM   28  C24 BCR C 515     -37.415 129.806   7.472  1.00 33.02     0.009 C 
HETATM   29  C25 BCR C 515     -36.377 128.858   7.895  1.00 32.98    -0.048 C 
HETATM   30  C26 BCR C 515     -35.086 129.015   7.575  1.00 32.96    -0.077 C 
HETATM   31  C27 BCR C 515     -33.971 128.114   7.951  1.00 32.93     0.034 C 
HETATM   32  C28 BCR C 515     -34.360 127.165   9.055  1.00 32.96     0.005 C 
HETATM   33  C29 BCR C 515     -35.718 126.597   8.768  1.00 32.98     0.014 C 
HETATM   34  C30 BCR C 515     -36.802 127.662   8.699  1.00 33.02    -0.020 C 
HETATM   35  C35 BCR C 515     -40.535 141.944  11.073  1.00 34.12     0.048 C 
HETATM   36  C36 BCR C 515     -41.909 136.035   7.397  1.00 33.59     0.048 C 
HETATM   37  C37 BCR C 515     -39.859 131.365   6.804  1.00 33.23     0.048 C 
HETATM   38  C38 BCR C 515     -34.566 130.137   6.775  1.00 32.96     0.044 C 
HETATM   39  C39 BCR C 515     -37.236 128.055  10.099  1.00 33.04     0.020 C 
HETATM   40  C40 BCR C 515     -37.987 126.947   8.061  1.00 33.02     0.020 C 
ENDROOT
TORSDOF 10
