REMARK VINA RESULT:    -7.553      2.455      4.645
REMARK INTER + INTRA:         -14.168
REMARK INTER:                 -11.040
REMARK INTRA:                  -3.129
REMARK UNBOUND:                -6.616
REMARK  0 active torsions:
REMARK  status: ('A' for Active; 'I' for Inactive)
REMARK       I    between atoms: C6_6  and  C7_7 
REMARK       I    between atoms: C8_8  and  C9_9 
REMARK       I    between atoms: C10_10  and  C11_11 
REMARK       I    between atoms: C12_16  and  C13_17 
REMARK       I    between atoms: C14_18  and  C15_19 
REMARK       I    between atoms: C16_20  and  C17_21 
REMARK       I    between atoms: C18_22  and  C19_23 
REMARK       I    between atoms: C20_24  and  C21_25 
REMARK       I    between atoms: C22_26  and  C23_27 
REMARK       I    between atoms: C24_28  and  C25_29 
ROOT
HETATM    1  C1  BCR B 620     -43.539 149.049  12.165  1.00 37.79    -0.020 C 
HETATM    2  C2  BCR B 620     -43.807 150.067  13.267  1.00 35.37     0.014 C 
HETATM    3  C3  BCR B 620     -43.799 149.454  14.650  1.00 36.48     0.005 C 
HETATM    4  C4  BCR B 620     -44.950 148.472  14.708  1.00 39.27     0.034 C 
HETATM    5  C5  BCR B 620     -44.799 147.431  13.622  1.00 42.60    -0.077 C 
HETATM    6  C6  BCR B 620     -44.153 147.679  12.452  1.00 28.70    -0.048 C 
HETATM    7  C7  BCR B 620     -44.009 146.649  11.378  1.00 32.59     0.009 C 
HETATM    8  C8  BCR B 620     -43.519 145.412  11.577  1.00 37.02     0.007 C 
HETATM    9  C9  BCR B 620     -43.376 144.390  10.516  1.00 36.25    -0.062 C 
HETATM   10  C10 BCR B 620     -42.769 143.219  10.832  1.00 26.68     0.007 C 
HETATM   11  C11 BCR B 620     -42.479 142.106   9.910  1.00 28.95     0.001 C 
HETATM   12  C33 BCR B 620     -45.432 146.109  13.951  1.00 49.87     0.044 C 
HETATM   13  C31 BCR B 620     -42.031 148.934  11.938  1.00 22.29     0.020 C 
HETATM   14  C32 BCR B 620     -44.170 149.590  10.893  1.00 31.04     0.020 C 
HETATM   15  C34 BCR B 620     -43.908 144.686   9.140  1.00 35.26     0.048 C 
HETATM   16  C12 BCR B 620     -41.762 141.074  10.394  1.00 26.61     0.007 C 
HETATM   17  C13 BCR B 620     -41.308 139.888   9.618  1.00 16.97    -0.062 C 
HETATM   18  C14 BCR B 620     -40.631 138.896  10.259  1.00 21.22     0.007 C 
HETATM   19  C15 BCR B 620     -40.059 137.711   9.598  1.00 28.31     0.001 C 
HETATM   20  C16 BCR B 620     -39.382 136.764  10.283  1.00 26.43     0.001 C 
HETATM   21  C17 BCR B 620     -38.760 135.627   9.579  1.00 21.75     0.007 C 
HETATM   22  C18 BCR B 620     -38.111 134.582  10.162  1.00 17.08    -0.062 C 
HETATM   23  C19 BCR B 620     -37.504 133.542   9.286  1.00 22.22     0.007 C 
HETATM   24  C20 BCR B 620     -36.729 132.524   9.694  1.00 26.39     0.001 C 
HETATM   25  C21 BCR B 620     -36.184 131.633   8.665  1.00 28.06     0.007 C 
HETATM   26  C22 BCR B 620     -35.460 130.510   8.874  1.00 31.03    -0.062 C 
HETATM   27  C23 BCR B 620     -35.006 129.820   7.809  1.00 32.45     0.007 C 
HETATM   28  C24 BCR B 620     -34.005 128.926   7.917  1.00 22.88     0.009 C 
HETATM   29  C25 BCR B 620     -33.482 128.174   6.748  1.00 23.62    -0.048 C 
HETATM   30  C26 BCR B 620     -32.619 128.774   5.899  1.00 23.31    -0.077 C 
HETATM   31  C27 BCR B 620     -32.026 128.092   4.679  1.00 21.45     0.034 C 
HETATM   32  C28 BCR B 620     -32.784 126.828   4.281  1.00 16.09     0.005 C 
HETATM   33  C29 BCR B 620     -33.090 125.996   5.506  1.00 25.48     0.014 C 
HETATM   34  C30 BCR B 620     -33.908 126.731   6.565  1.00 37.58    -0.020 C 
HETATM   35  C35 BCR B 620     -41.550 139.834   8.130  1.00 20.61     0.048 C 
HETATM   36  C36 BCR B 620     -37.998 134.480  11.667  1.00 18.89     0.048 C 
HETATM   37  C37 BCR B 620     -35.147 130.015  10.260  1.00 23.40     0.048 C 
HETATM   38  C38 BCR B 620     -32.194 130.193   6.134  1.00 23.13     0.044 C 
HETATM   39  C39 BCR B 620     -33.662 126.035   7.905  1.00 25.03     0.020 C 
HETATM   40  C40 BCR B 620     -35.391 126.623   6.212  1.00 32.22     0.020 C 
ENDROOT
TORSDOF 10
