REMARK VINA RESULT:    -9.716      0.000      0.000
REMARK INTER + INTRA:         -16.512
REMARK INTER:                  -9.716
REMARK INTRA:                  -6.796
REMARK UNBOUND:                -6.796
REMARK  0 active torsions:
REMARK  status: ('A' for Active; 'I' for Inactive)
REMARK       I    between atoms: C6_6  and  C7_7 
REMARK       I    between atoms: C8_8  and  C9_9 
REMARK       I    between atoms: C10_10  and  C11_11 
REMARK       I    between atoms: C12_16  and  C13_17 
REMARK       I    between atoms: C14_18  and  C15_19 
REMARK       I    between atoms: C16_20  and  C17_21 
REMARK       I    between atoms: C18_22  and  C19_23 
REMARK       I    between atoms: C20_24  and  C21_25 
REMARK       I    between atoms: C22_26  and  C23_27 
REMARK       I    between atoms: C24_28  and  C25_29 
ROOT
HETATM    1  C1  BCR B 619     -50.862 150.046  10.632  1.00 42.12    -0.020 C 
HETATM    2  C2  BCR B 619     -52.332 150.334  10.454  1.00 44.03     0.014 C 
HETATM    3  C3  BCR B 619     -52.598 150.892   9.093  1.00 50.07     0.005 C 
HETATM    4  C4  BCR B 619     -52.165 149.883   8.068  1.00 50.24     0.034 C 
HETATM    5  C5  BCR B 619     -50.740 149.523   8.261  1.00 48.46    -0.077 C 
HETATM    6  C6  BCR B 619     -50.131 149.573   9.428  1.00 42.37    -0.048 C 
HETATM    7  C7  BCR B 619     -48.708 149.217   9.590  1.00 45.45     0.009 C 
HETATM    8  C8  BCR B 619     -48.241 147.995   9.301  1.00 42.13     0.007 C 
HETATM    9  C9  BCR B 619     -46.877 147.538   9.545  1.00 40.32    -0.062 C 
HETATM   10  C10 BCR B 619     -46.562 146.293   9.178  1.00 42.22     0.007 C 
HETATM   11  C11 BCR B 619     -45.309 145.655   9.479  1.00 37.87     0.001 C 
HETATM   12  C33 BCR B 619     -50.053 149.080   7.028  1.00 60.09     0.044 C 
HETATM   13  C31 BCR B 619     -50.764 149.022  11.727  1.00 42.93     0.020 C 
HETATM   14  C32 BCR B 619     -50.253 151.341  11.123  1.00 43.16     0.020 C 
HETATM   15  C34 BCR B 619     -45.816 148.524   9.801  1.00 35.96     0.048 C 
HETATM   16  C12 BCR B 619     -45.181 144.367   9.178  1.00 36.26     0.007 C 
HETATM   17  C13 BCR B 619     -43.910 143.699   9.073  1.00 36.16    -0.062 C 
HETATM   18  C14 BCR B 619     -43.924 142.418   8.677  1.00 32.11     0.007 C 
HETATM   19  C15 BCR B 619     -42.860 141.472   8.920  1.00 30.20     0.001 C 
HETATM   20  C16 BCR B 619     -42.969 140.217   8.471  1.00 25.50     0.001 C 
HETATM   21  C17 BCR B 619     -41.837 139.343   8.608  1.00 29.93     0.007 C 
HETATM   22  C18 BCR B 619     -41.710 138.128   8.056  1.00 33.52    -0.062 C 
HETATM   23  C19 BCR B 619     -40.701 137.210   8.592  1.00 31.39     0.007 C 
HETATM   24  C20 BCR B 619     -40.529 135.948   8.169  1.00 33.08     0.001 C 
HETATM   25  C21 BCR B 619     -39.432 135.172   8.691  1.00 29.74     0.007 C 
HETATM   26  C22 BCR B 619     -38.977 134.002   8.219  1.00 34.33    -0.062 C 
HETATM   27  C23 BCR B 619     -37.813 133.400   8.874  1.00 29.24     0.007 C 
HETATM   28  C24 BCR B 619     -37.406 132.138   8.697  1.00 34.82     0.009 C 
HETATM   29  C25 BCR B 619     -36.191 131.599   9.308  1.00 36.91    -0.048 C 
HETATM   30  C26 BCR B 619     -36.083 131.564  10.633  1.00 42.58    -0.077 C 
HETATM   31  C27 BCR B 619     -34.911 131.049  11.371  1.00 34.32     0.034 C 
HETATM   32  C28 BCR B 619     -34.241 129.959  10.577  1.00 33.19     0.005 C 
HETATM   33  C29 BCR B 619     -33.914 130.449   9.201  1.00 42.41     0.014 C 
HETATM   34  C30 BCR B 619     -35.060 131.109   8.440  1.00 41.48    -0.020 C 
HETATM   35  C35 BCR B 619     -42.760 144.293   9.778  1.00 29.99     0.048 C 
HETATM   36  C36 BCR B 619     -42.842 137.585   7.270  1.00 37.35     0.048 C 
HETATM   37  C37 BCR B 619     -39.863 133.156   7.396  1.00 37.12     0.048 C 
HETATM   38  C38 BCR B 619     -37.157 132.063  11.510  1.00 40.40     0.044 C 
HETATM   39  C39 BCR B 619     -35.592 130.221   7.322  1.00 51.26     0.020 C 
HETATM   40  C40 BCR B 619     -34.311 132.266   7.787  1.00 40.72     0.020 C 
ENDROOT
TORSDOF 10
