REMARK VINA RESULT:    -8.579      2.255     16.384
REMARK INTER + INTRA:         -11.032
REMARK INTER:                  -7.649
REMARK INTRA:                  -3.384
REMARK UNBOUND:                -2.454
REMARK  0 active torsions:
REMARK  status: ('A' for Active; 'I' for Inactive)
REMARK       I    between atoms: C6_6  and  C7_7 
REMARK       I    between atoms: C8_8  and  C9_9 
REMARK       I    between atoms: C10_10  and  C11_11 
REMARK       I    between atoms: C12_16  and  C13_17 
REMARK       I    between atoms: C14_18  and  C15_19 
REMARK       I    between atoms: C16_20  and  C17_21 
REMARK       I    between atoms: C18_22  and  C19_23 
REMARK       I    between atoms: C20_24  and  C21_25 
REMARK       I    between atoms: C22_26  and  C23_27 
REMARK       I    between atoms: C24_28  and  C25_29 
ROOT
HETATM    1  C1  BCR C 514     -37.023 127.667   8.772  1.00 38.04    -0.020 C 
HETATM    2  C2  BCR C 514     -36.017 126.530   8.745  1.00 38.20     0.014 C 
HETATM    3  C3  BCR C 514     -34.591 127.017   8.919  1.00 33.25     0.005 C 
HETATM    4  C4  BCR C 514     -34.218 128.127   7.974  1.00 36.16     0.034 C 
HETATM    5  C5  BCR C 514     -35.308 129.104   7.631  1.00 38.48    -0.077 C 
HETATM    6  C6  BCR C 514     -36.592 128.890   7.985  1.00 37.46    -0.048 C 
HETATM    7  C7  BCR C 514     -37.671 129.850   7.633  1.00 42.89     0.009 C 
HETATM    8  C8  BCR C 514     -37.640 131.126   8.014  1.00 44.19     0.007 C 
HETATM    9  C9  BCR C 514     -38.743 132.053   7.685  1.00 46.71    -0.062 C 
HETATM   10  C10 BCR C 514     -38.720 133.253   8.278  1.00 41.97     0.007 C 
HETATM   11  C11 BCR C 514     -39.760 134.267   8.070  1.00 40.92     0.001 C 
HETATM   12  C33 BCR C 514     -34.872 130.302   6.840  1.00 41.56     0.044 C 
HETATM   13  C31 BCR C 514     -37.243 128.068  10.247  1.00 35.33     0.020 C 
HETATM   14  C32 BCR C 514     -38.290 127.072   8.127  1.00 38.77     0.020 C 
HETATM   15  C34 BCR C 514     -39.837 131.658   6.707  1.00 44.98     0.048 C 
HETATM   16  C12 BCR C 514     -39.498 135.542   8.380  1.00 44.53     0.007 C 
HETATM   17  C13 BCR C 514     -40.488 136.617   8.197  1.00 45.51    -0.062 C 
HETATM   18  C14 BCR C 514     -40.310 137.770   8.893  1.00 43.91     0.007 C 
HETATM   19  C15 BCR C 514     -41.201 138.945   8.821  1.00 44.35     0.001 C 
HETATM   20  C16 BCR C 514     -40.820 140.119   9.327  1.00 42.58     0.001 C 
HETATM   21  C17 BCR C 514     -41.665 141.315   9.276  1.00 41.40     0.007 C 
HETATM   22  C18 BCR C 514     -41.621 142.408  10.087  1.00 40.94    -0.062 C 
HETATM   23  C19 BCR C 514     -42.624 143.481   9.826  1.00 41.16     0.007 C 
HETATM   24  C20 BCR C 514     -42.559 144.722  10.316  1.00 41.17     0.001 C 
HETATM   25  C21 BCR C 514     -43.621 145.693  10.022  1.00 43.08     0.007 C 
HETATM   26  C22 BCR C 514     -43.927 146.768  10.807  1.00 46.47    -0.062 C 
HETATM   27  C23 BCR C 514     -45.037 147.628  10.304  1.00 43.42     0.007 C 
HETATM   28  C24 BCR C 514     -45.338 148.856  10.765  1.00 46.58     0.009 C 
HETATM   29  C25 BCR C 514     -46.447 149.707  10.212  1.00 45.04    -0.048 C 
HETATM   30  C26 BCR C 514     -46.278 150.398   9.048  1.00 43.97    -0.077 C 
HETATM   31  C27 BCR C 514     -47.341 151.311   8.415  1.00 42.37     0.034 C 
HETATM   32  C28 BCR C 514     -48.725 151.100   9.034  1.00 45.24     0.005 C 
HETATM   33  C29 BCR C 514     -48.683 150.902  10.548  1.00 45.27     0.014 C 
HETATM   34  C30 BCR C 514     -47.730 149.806  11.029  1.00 46.36    -0.020 C 
HETATM   35  C35 BCR C 514     -41.621 136.396   7.223  1.00 43.98     0.048 C 
HETATM   36  C36 BCR C 514     -40.675 142.569  11.262  1.00 37.85     0.048 C 
HETATM   37  C37 BCR C 514     -43.176 147.095  12.105  1.00 36.78     0.048 C 
HETATM   38  C38 BCR C 514     -45.011 150.328   8.257  1.00 35.37     0.044 C 
HETATM   39  C39 BCR C 514     -48.458 148.457  11.059  1.00 44.38     0.020 C 
HETATM   40  C40 BCR C 514     -47.314 150.186  12.450  1.00 45.05     0.020 C 
ENDROOT
TORSDOF 10
