REMARK VINA RESULT:   -11.684      0.000      0.000
REMARK INTER + INTRA:         -14.054
REMARK INTER:                 -11.684
REMARK INTRA:                  -2.370
REMARK UNBOUND:                -2.370
REMARK  0 active torsions:
REMARK  status: ('A' for Active; 'I' for Inactive)
REMARK       I    between atoms: C6_6  and  C7_7 
REMARK       I    between atoms: C8_8  and  C9_9 
REMARK       I    between atoms: C10_10  and  C11_11 
REMARK       I    between atoms: C12_16  and  C13_17 
REMARK       I    between atoms: C14_18  and  C15_19 
REMARK       I    between atoms: C16_20  and  C17_21 
REMARK       I    between atoms: C18_22  and  C19_23 
REMARK       I    between atoms: C20_24  and  C21_25 
REMARK       I    between atoms: C22_26  and  C23_27 
REMARK       I    between atoms: C24_28  and  C25_29 
ROOT
HETATM    1  C1  BCR B 620     -44.054 148.344  14.669  1.00 39.28    -0.020 C 
HETATM    2  C2  BCR B 620     -44.934 148.924  15.802  1.00 40.89     0.014 C 
HETATM    3  C3  BCR B 620     -46.031 147.997  16.311  1.00 44.35     0.005 C 
HETATM    4  C4  BCR B 620     -46.878 147.530  15.135  1.00 42.84     0.034 C 
HETATM    5  C5  BCR B 620     -46.065 146.997  13.967  1.00 41.10    -0.077 C 
HETATM    6  C6  BCR B 620     -44.775 147.357  13.746  1.00 36.33    -0.048 C 
HETATM    7  C7  BCR B 620     -44.006 146.808  12.585  1.00 36.01     0.009 C 
HETATM    8  C8  BCR B 620     -43.765 145.477  12.444  1.00 32.86     0.007 C 
HETATM    9  C9  BCR B 620     -42.934 144.939  11.327  1.00 29.92    -0.062 C 
HETATM   10  C10 BCR B 620     -42.705 143.600  11.287  1.00 29.24     0.007 C 
HETATM   11  C11 BCR B 620     -41.846 142.869  10.319  1.00 31.72     0.001 C 
HETATM   12  C33 BCR B 620     -46.804 146.032  13.079  1.00 37.40     0.044 C 
HETATM   13  C31 BCR B 620     -42.776 147.738  15.281  1.00 36.18     0.020 C 
HETATM   14  C32 BCR B 620     -43.719 149.534  13.812  1.00 36.19     0.020 C 
HETATM   15  C34 BCR B 620     -42.337 145.922  10.358  1.00 28.93     0.048 C 
HETATM   16  C12 BCR B 620     -41.751 141.540  10.495  1.00 27.46     0.007 C 
HETATM   17  C13 BCR B 620     -40.893 140.656   9.690  1.00 29.36    -0.062 C 
HETATM   18  C14 BCR B 620     -41.012 139.297   9.839  1.00 27.29     0.007 C 
HETATM   19  C15 BCR B 620     -40.120 138.340   9.135  1.00 28.74     0.001 C 
HETATM   20  C16 BCR B 620     -40.196 137.031   9.442  1.00 28.84     0.001 C 
HETATM   21  C17 BCR B 620     -39.335 136.023   8.858  1.00 29.32     0.007 C 
HETATM   22  C18 BCR B 620     -39.440 134.691   9.097  1.00 29.55    -0.062 C 
HETATM   23  C19 BCR B 620     -38.430 133.816   8.439  1.00 22.58     0.007 C 
HETATM   24  C20 BCR B 620     -38.370 132.490   8.628  1.00 23.28     0.001 C 
HETATM   25  C21 BCR B 620     -37.308 131.744   7.922  1.00 23.94     0.007 C 
HETATM   26  C22 BCR B 620     -37.104 130.409   7.884  1.00 25.90    -0.062 C 
HETATM   27  C23 BCR B 620     -35.910 129.920   7.104  1.00 28.72     0.007 C 
HETATM   28  C24 BCR B 620     -35.435 128.674   7.336  1.00 28.32     0.009 C 
HETATM   29  C25 BCR B 620     -34.256 128.174   6.584  1.00 33.05    -0.048 C 
HETATM   30  C26 BCR B 620     -33.036 128.623   6.985  1.00 37.74    -0.077 C 
HETATM   31  C27 BCR B 620     -31.742 128.212   6.306  1.00 37.67     0.034 C 
HETATM   32  C28 BCR B 620     -31.992 127.623   4.893  1.00 35.24     0.005 C 
HETATM   33  C29 BCR B 620     -33.116 126.607   4.957  1.00 34.85     0.014 C 
HETATM   34  C30 BCR B 620     -34.472 127.185   5.440  1.00 34.25    -0.020 C 
HETATM   35  C35 BCR B 620     -39.853 141.297   8.772  1.00 27.99     0.048 C 
HETATM   36  C36 BCR B 620     -40.551 134.101   9.966  1.00 31.23     0.048 C 
HETATM   37  C37 BCR B 620     -37.997 129.359   8.533  1.00 27.96     0.048 C 
HETATM   38  C38 BCR B 620     -32.965 129.590   8.157  1.00 37.19     0.044 C 
HETATM   39  C39 BCR B 620     -35.364 126.022   5.941  1.00 34.55     0.020 C 
HETATM   40  C40 BCR B 620     -35.246 127.869   4.285  1.00 30.35     0.020 C 
ENDROOT
TORSDOF 10
