REMARK VINA RESULT:    -7.243      1.608     16.427
REMARK INTER + INTRA:          -9.959
REMARK INTER:                  -6.892
REMARK INTRA:                  -3.068
REMARK UNBOUND:                -2.716
REMARK  0 active torsions:
REMARK  status: ('A' for Active; 'I' for Inactive)
REMARK       I    between atoms: C6_6  and  C7_7 
REMARK       I    between atoms: C8_8  and  C9_9 
REMARK       I    between atoms: C10_10  and  C11_11 
REMARK       I    between atoms: C12_16  and  C13_17 
REMARK       I    between atoms: C14_18  and  C15_19 
REMARK       I    between atoms: C16_20  and  C17_21 
REMARK       I    between atoms: C18_22  and  C19_23 
REMARK       I    between atoms: C20_24  and  C21_25 
REMARK       I    between atoms: C22_26  and  C23_27 
REMARK       I    between atoms: C24_28  and  C25_29 
ROOT
HETATM    1  C1  BCR B 617     -48.740 146.700   9.879  1.00 16.64    -0.020 C 
HETATM    2  C2  BCR B 617     -49.979 147.438  10.341  1.00 16.66     0.014 C 
HETATM    3  C3  BCR B 617     -51.053 146.482  10.752  1.00 16.67     0.005 C 
HETATM    4  C4  BCR B 617     -51.446 145.608   9.595  1.00 16.65     0.034 C 
HETATM    5  C5  BCR B 617     -50.271 145.060   8.880  1.00 16.64    -0.077 C 
HETATM    6  C6  BCR B 617     -49.022 145.522   9.003  1.00 16.61    -0.048 C 
HETATM    7  C7  BCR B 617     -47.887 144.953   8.254  1.00 16.52     0.009 C 
HETATM    8  C8  BCR B 617     -47.161 143.921   8.688  1.00 16.42     0.007 C 
HETATM    9  C9  BCR B 617     -45.971 143.429   8.019  1.00 16.35    -0.062 C 
HETATM   10  C10 BCR B 617     -45.363 142.325   8.468  1.00 16.25     0.007 C 
HETATM   11  C11 BCR B 617     -44.405 141.539   7.726  1.00 16.13     0.001 C 
HETATM   12  C33 BCR B 617     -50.620 143.918   8.018  1.00 16.67     0.044 C 
HETATM   13  C31 BCR B 617     -47.991 146.317  11.140  1.00 16.64     0.020 C 
HETATM   14  C32 BCR B 617     -47.906 147.701   9.112  1.00 16.66     0.020 C 
HETATM   15  C34 BCR B 617     -45.439 144.212   6.894  1.00 16.38     0.048 C 
HETATM   16  C12 BCR B 617     -43.584 140.696   8.372  1.00 15.96     0.007 C 
HETATM   17  C13 BCR B 617     -42.696 139.752   7.732  1.00 15.83    -0.062 C 
HETATM   18  C14 BCR B 617     -42.121 138.790   8.472  1.00 15.70     0.007 C 
HETATM   19  C15 BCR B 617     -41.495 137.598   7.957  1.00 15.54     0.001 C 
HETATM   20  C16 BCR B 617     -40.977 136.674   8.781  1.00 15.40     0.001 C 
HETATM   21  C17 BCR B 617     -40.152 135.619   8.243  1.00 15.27     0.007 C 
HETATM   22  C18 BCR B 617     -39.700 134.514   8.855  1.00 15.19    -0.062 C 
HETATM   23  C19 BCR B 617     -38.831 133.614   8.113  1.00 15.12     0.007 C 
HETATM   24  C20 BCR B 617     -38.394 132.445   8.585  1.00 15.10     0.001 C 
HETATM   25  C21 BCR B 617     -37.658 131.569   7.709  1.00 15.07     0.007 C 
HETATM   26  C22 BCR B 617     -37.183 130.346   7.976  1.00 15.07    -0.062 C 
HETATM   27  C23 BCR B 617     -36.156 129.833   7.092  1.00 15.08     0.007 C 
HETATM   28  C24 BCR B 617     -35.884 128.543   6.862  1.00 15.19     0.009 C 
HETATM   29  C25 BCR B 617     -34.755 128.006   6.091  1.00 15.27    -0.048 C 
HETATM   30  C26 BCR B 617     -34.683 128.063   4.750  1.00 15.33    -0.077 C 
HETATM   31  C27 BCR B 617     -33.579 127.535   3.923  1.00 15.37     0.034 C 
HETATM   32  C28 BCR B 617     -32.289 127.474   4.696  1.00 15.36     0.005 C 
HETATM   33  C29 BCR B 617     -32.504 126.822   6.034  1.00 15.31     0.014 C 
HETATM   34  C30 BCR B 617     -33.642 127.357   6.882  1.00 15.29    -0.020 C 
HETATM   35  C35 BCR B 617     -42.319 139.961   6.324  1.00 15.82     0.048 C 
HETATM   36  C36 BCR B 617     -40.121 134.108  10.213  1.00 15.16     0.048 C 
HETATM   37  C37 BCR B 617     -37.822 129.439   8.948  1.00 15.01     0.048 C 
HETATM   38  C38 BCR B 617     -35.706 128.664   3.860  1.00 15.36     0.044 C 
HETATM   39  C39 BCR B 617     -33.093 128.280   7.962  1.00 15.27     0.020 C 
HETATM   40  C40 BCR B 617     -34.135 126.114   7.606  1.00 15.28     0.020 C 
ENDROOT
TORSDOF 10
