REMARK VINA RESULT:    -6.420      2.349      4.569
REMARK INTER + INTRA:         -13.381
REMARK INTER:                 -11.526
REMARK INTRA:                  -1.855
REMARK UNBOUND:                -6.961
REMARK  0 active torsions:
REMARK  status: ('A' for Active; 'I' for Inactive)
REMARK       I    between atoms: C6_6  and  C7_7 
REMARK       I    between atoms: C8_8  and  C9_9 
REMARK       I    between atoms: C10_10  and  C11_11 
REMARK       I    between atoms: C12_16  and  C13_17 
REMARK       I    between atoms: C14_18  and  C15_19 
REMARK       I    between atoms: C16_20  and  C17_21 
REMARK       I    between atoms: C18_22  and  C19_23 
REMARK       I    between atoms: C20_24  and  C21_25 
REMARK       I    between atoms: C22_26  and  C23_27 
REMARK       I    between atoms: C24_28  and  C25_29 
ROOT
HETATM    1  C1  BCR A 411     -34.039 126.982   6.979  1.00 29.84    -0.020 C 
HETATM    2  C2  BCR A 411     -33.065 126.134   6.170  1.00 20.54     0.014 C 
HETATM    3  C3  BCR A 411     -32.595 126.870   4.926  1.00 26.03     0.005 C 
HETATM    4  C4  BCR A 411     -31.852 128.141   5.304  1.00 20.46     0.034 C 
HETATM    5  C5  BCR A 411     -32.576 128.932   6.368  1.00 19.96    -0.077 C 
HETATM    6  C6  BCR A 411     -33.569 128.423   7.127  1.00 20.82    -0.048 C 
HETATM    7  C7  BCR A 411     -34.265 129.249   8.162  1.00 29.43     0.009 C 
HETATM    8  C8  BCR A 411     -35.094 130.249   7.810  1.00 22.26     0.007 C 
HETATM    9  C9  BCR A 411     -35.841 131.073   8.789  1.00 27.77    -0.062 C 
HETATM   10  C10 BCR A 411     -36.638 132.058   8.337  1.00 20.59     0.007 C 
HETATM   11  C11 BCR A 411     -37.457 132.926   9.200  1.00 19.27     0.001 C 
HETATM   12  C33 BCR A 411     -32.112 130.343   6.531  1.00 23.62     0.044 C 
HETATM   13  C31 BCR A 411     -34.192 126.379   8.366  1.00 28.92     0.020 C 
HETATM   14  C32 BCR A 411     -35.409 126.929   6.315  1.00 24.51     0.020 C 
HETATM   15  C34 BCR A 411     -35.727 130.798  10.266  1.00 30.91     0.048 C 
HETATM   16  C12 BCR A 411     -38.173 133.916   8.634  1.00 28.37     0.007 C 
HETATM   17  C13 BCR A 411     -39.086 134.852   9.354  1.00 25.83    -0.062 C 
HETATM   18  C14 BCR A 411     -39.920 135.646   8.636  1.00 18.99     0.007 C 
HETATM   19  C15 BCR A 411     -40.902 136.578   9.202  1.00 23.50     0.001 C 
HETATM   20  C16 BCR A 411     -41.645 137.396   8.439  1.00 25.25     0.001 C 
HETATM   21  C17 BCR A 411     -42.642 138.270   9.074  1.00 31.30     0.007 C 
HETATM   22  C18 BCR A 411     -43.492 139.073   8.395  1.00 27.73    -0.062 C 
HETATM   23  C19 BCR A 411     -44.475 139.898   9.144  1.00 16.85     0.007 C 
HETATM   24  C20 BCR A 411     -45.070 140.998   8.648  1.00 16.39     0.001 C 
HETATM   25  C21 BCR A 411     -46.005 141.711   9.530  1.00 22.31     0.007 C 
HETATM   26  C22 BCR A 411     -46.557 142.915   9.272  1.00 26.64    -0.062 C 
HETATM   27  C23 BCR A 411     -47.392 143.471  10.187  1.00 23.69     0.007 C 
HETATM   28  C24 BCR A 411     -47.913 144.705  10.064  1.00 24.10     0.009 C 
HETATM   29  C25 BCR A 411     -48.827 145.346  11.053  1.00 19.96    -0.048 C 
HETATM   30  C26 BCR A 411     -50.007 144.791  11.403  1.00 22.82    -0.077 C 
HETATM   31  C27 BCR A 411     -50.948 145.424  12.404  1.00 17.59     0.034 C 
HETATM   32  C28 BCR A 411     -50.278 146.481  13.274  1.00 18.54     0.005 C 
HETATM   33  C29 BCR A 411     -49.434 147.408  12.418  1.00 23.49     0.014 C 
HETATM   34  C30 BCR A 411     -48.349 146.672  11.641  1.00 20.77    -0.020 C 
HETATM   35  C35 BCR A 411     -39.098 134.897  10.852  1.00 25.20     0.048 C 
HETATM   36  C36 BCR A 411     -43.429 139.144   6.897  1.00 17.87     0.048 C 
HETATM   37  C37 BCR A 411     -46.226 143.623   7.995  1.00 22.45     0.048 C 
HETATM   38  C38 BCR A 411     -50.505 143.492  10.824  1.00 18.48     0.044 C 
HETATM   39  C39 BCR A 411     -47.174 146.448  12.579  1.00 15.84     0.020 C 
HETATM   40  C40 BCR A 411     -47.894 147.549  10.477  1.00 18.97     0.020 C 
ENDROOT
TORSDOF 10
