REMARK VINA RESULT:    -6.990      1.724     16.123
REMARK INTER + INTRA:         -11.270
REMARK INTER:                  -7.128
REMARK INTRA:                  -4.143
REMARK UNBOUND:                -4.280
REMARK  0 active torsions:
REMARK  status: ('A' for Active; 'I' for Inactive)
REMARK       I    between atoms: C6_6  and  C7_7 
REMARK       I    between atoms: C8_8  and  C9_9 
REMARK       I    between atoms: C10_10  and  C11_11 
REMARK       I    between atoms: C12_16  and  C13_17 
REMARK       I    between atoms: C14_18  and  C15_19 
REMARK       I    between atoms: C16_20  and  C17_21 
REMARK       I    between atoms: C18_22  and  C19_23 
REMARK       I    between atoms: C20_24  and  C21_25 
REMARK       I    between atoms: C22_26  and  C23_27 
REMARK       I    between atoms: C24_28  and  C25_29 
ROOT
HETATM    1  C1  BCR T 101     -43.134 148.472  11.760  1.00 41.70    -0.020 C 
HETATM    2  C2  BCR T 101     -43.426 149.886  12.249  1.00 42.78     0.014 C 
HETATM    3  C3  BCR T 101     -43.706 150.832  11.125  1.00 41.03     0.005 C 
HETATM    4  C4  BCR T 101     -44.894 150.369  10.339  1.00 43.70     0.034 C 
HETATM    5  C5  BCR T 101     -44.880 148.910  10.092  1.00 45.79    -0.077 C 
HETATM    6  C6  BCR T 101     -44.078 148.022  10.717  1.00 40.49    -0.048 C 
HETATM    7  C7  BCR T 101     -44.183 146.580  10.436  1.00 44.14     0.009 C 
HETATM    8  C8  BCR T 101     -43.169 145.717  10.321  1.00 36.42     0.007 C 
HETATM    9  C9  BCR T 101     -43.423 144.343   9.875  1.00 37.41    -0.062 C 
HETATM   10  C10 BCR T 101     -42.629 143.361  10.326  1.00 30.62     0.007 C 
HETATM   11  C11 BCR T 101     -42.826 141.952  10.140  1.00 28.97     0.001 C 
HETATM   12  C33 BCR T 101     -45.871 148.508   9.059  1.00 43.90     0.044 C 
HETATM   13  C31 BCR T 101     -43.234 147.622  13.010  1.00 32.30     0.020 C 
HETATM   14  C32 BCR T 101     -41.719 148.392  11.208  1.00 43.93     0.020 C 
HETATM   15  C34 BCR T 101     -44.693 144.044   9.164  1.00 35.44     0.048 C 
HETATM   16  C12 BCR T 101     -41.758 141.143  10.187  1.00 28.42     0.007 C 
HETATM   17  C13 BCR T 101     -41.756 139.725   9.830  1.00 29.67    -0.062 C 
HETATM   18  C14 BCR T 101     -40.793 138.905  10.326  1.00 27.65     0.007 C 
HETATM   19  C15 BCR T 101     -40.143 137.833   9.598  1.00 28.48     0.001 C 
HETATM   20  C16 BCR T 101     -39.716 136.723  10.225  1.00 25.66     0.001 C 
HETATM   21  C17 BCR T 101     -38.809 135.789   9.594  1.00 31.53     0.007 C 
HETATM   22  C18 BCR T 101     -38.103 134.819  10.205  1.00 35.11    -0.062 C 
HETATM   23  C19 BCR T 101     -37.818 133.593   9.463  1.00 31.55     0.007 C 
HETATM   24  C20 BCR T 101     -36.717 132.852   9.639  1.00 33.30     0.001 C 
HETATM   25  C21 BCR T 101     -36.422 131.729   8.766  1.00 34.76     0.007 C 
HETATM   26  C22 BCR T 101     -35.355 130.896   8.816  1.00 38.40    -0.062 C 
HETATM   27  C23 BCR T 101     -35.079 130.092   7.624  1.00 37.30     0.007 C 
HETATM   28  C24 BCR T 101     -34.196 129.094   7.559  1.00 34.14     0.009 C 
HETATM   29  C25 BCR T 101     -33.897 128.383   6.317  1.00 34.41    -0.048 C 
HETATM   30  C26 BCR T 101     -34.852 127.780   5.611  1.00 30.82    -0.077 C 
HETATM   31  C27 BCR T 101     -34.698 127.083   4.335  1.00 38.31     0.034 C 
HETATM   32  C28 BCR T 101     -33.407 127.451   3.661  1.00 33.34     0.005 C 
HETATM   33  C29 BCR T 101     -32.308 127.364   4.656  1.00 23.88     0.014 C 
HETATM   34  C30 BCR T 101     -32.481 128.327   5.843  1.00 29.76    -0.020 C 
HETATM   35  C35 BCR T 101     -42.681 139.269   8.772  1.00 34.50     0.048 C 
HETATM   36  C36 BCR T 101     -37.521 134.993  11.555  1.00 32.52     0.048 C 
HETATM   37  C37 BCR T 101     -34.709 130.510  10.093  1.00 33.52     0.048 C 
HETATM   38  C38 BCR T 101     -36.263 127.762   5.986  1.00 36.86     0.044 C 
HETATM   39  C39 BCR T 101     -31.934 129.710   5.541  1.00 35.69     0.020 C 
HETATM   40  C40 BCR T 101     -31.584 127.766   6.930  1.00 29.24     0.020 C 
ENDROOT
TORSDOF 10
