REMARK VINA RESULT:    -6.508      1.888      3.125
REMARK INTER + INTRA:          -9.112
REMARK INTER:                  -7.066
REMARK INTRA:                  -2.046
REMARK UNBOUND:                -2.604
REMARK  0 active torsions:
REMARK  status: ('A' for Active; 'I' for Inactive)
REMARK       I    between atoms: C6_6  and  C7_7 
REMARK       I    between atoms: C8_8  and  C9_9 
REMARK       I    between atoms: C10_10  and  C11_11 
REMARK       I    between atoms: C12_16  and  C13_17 
REMARK       I    between atoms: C14_18  and  C15_19 
REMARK       I    between atoms: C16_20  and  C17_21 
REMARK       I    between atoms: C18_22  and  C19_23 
REMARK       I    between atoms: C20_24  and  C21_25 
REMARK       I    between atoms: C22_26  and  C23_27 
REMARK       I    between atoms: C24_28  and  C25_29 
ROOT
HETATM    1  C1  BCR B 618     -33.811 127.549   7.498  1.00 27.36    -0.020 C 
HETATM    2  C2  BCR B 618     -32.810 126.576   6.857  1.00 29.24     0.014 C 
HETATM    3  C3  BCR B 618     -32.148 127.175   5.614  1.00 30.20     0.005 C 
HETATM    4  C4  BCR B 618     -33.120 127.624   4.545  1.00 26.75     0.034 C 
HETATM    5  C5  BCR B 618     -34.355 128.254   5.105  1.00 26.89    -0.077 C 
HETATM    6  C6  BCR B 618     -34.694 128.203   6.437  1.00 26.00    -0.048 C 
HETATM    7  C7  BCR B 618     -35.980 128.818   6.857  1.00 23.65     0.009 C 
HETATM    8  C8  BCR B 618     -36.046 130.100   7.317  1.00 23.63     0.007 C 
HETATM    9  C9  BCR B 618     -37.330 130.693   7.746  1.00 27.01    -0.062 C 
HETATM   10  C10 BCR B 618     -37.426 132.005   8.007  1.00 25.20     0.007 C 
HETATM   11  C11 BCR B 618     -38.645 132.688   8.425  1.00 28.58     0.001 C 
HETATM   12  C33 BCR B 618     -35.304 128.866   4.104  1.00 28.44     0.044 C 
HETATM   13  C31 BCR B 618     -33.086 128.606   8.331  1.00 28.24     0.020 C 
HETATM   14  C32 BCR B 618     -34.660 126.662   8.479  1.00 26.34     0.020 C 
HETATM   15  C34 BCR B 618     -38.535 129.787   7.962  1.00 27.67     0.048 C 
HETATM   16  C12 BCR B 618     -38.450 133.989   8.777  1.00 27.69     0.007 C 
HETATM   17  C13 BCR B 618     -39.579 134.887   9.084  1.00 26.09    -0.062 C 
HETATM   18  C14 BCR B 618     -39.366 136.230   9.301  1.00 26.27     0.007 C 
HETATM   19  C15 BCR B 618     -40.495 137.187   9.495  1.00 24.53     0.001 C 
HETATM   20  C16 BCR B 618     -40.178 138.482   9.656  1.00 25.46     0.001 C 
HETATM   21  C17 BCR B 618     -41.252 139.458   9.798  1.00 26.22     0.007 C 
HETATM   22  C18 BCR B 618     -41.106 140.807   9.814  1.00 26.11    -0.062 C 
HETATM   23  C19 BCR B 618     -42.328 141.644   9.971  1.00 24.69     0.007 C 
HETATM   24  C20 BCR B 618     -42.348 143.019   9.974  1.00 23.86     0.001 C 
HETATM   25  C21 BCR B 618     -43.641 143.682  10.139  1.00 20.93     0.007 C 
HETATM   26  C22 BCR B 618     -43.868 145.013   9.930  1.00 20.93    -0.062 C 
HETATM   27  C23 BCR B 618     -45.228 145.478  10.206  1.00 23.42     0.007 C 
HETATM   28  C24 BCR B 618     -45.548 146.782  10.143  1.00 24.63     0.009 C 
HETATM   29  C25 BCR B 618     -46.916 147.281  10.498  1.00 27.79    -0.048 C 
HETATM   30  C26 BCR B 618     -48.108 146.759  10.088  1.00 29.36    -0.077 C 
HETATM   31  C27 BCR B 618     -49.472 147.351  10.510  1.00 30.45     0.034 C 
HETATM   32  C28 BCR B 618     -49.424 148.753  11.158  1.00 28.93     0.005 C 
HETATM   33  C29 BCR B 618     -48.225 148.833  12.116  1.00 28.29     0.014 C 
HETATM   34  C30 BCR B 618     -46.866 148.533  11.434  1.00 29.32    -0.020 C 
HETATM   35  C35 BCR B 618     -40.933 134.318   8.964  1.00 23.34     0.048 C 
HETATM   36  C36 BCR B 618     -39.786 141.498   9.711  1.00 27.04     0.048 C 
HETATM   37  C37 BCR B 618     -42.816 146.008   9.408  1.00 22.71     0.048 C 
HETATM   38  C38 BCR B 618     -48.254 145.538   9.234  1.00 27.49     0.044 C 
HETATM   39  C39 BCR B 618     -45.902 148.265  12.606  1.00 24.52     0.020 C 
HETATM   40  C40 BCR B 618     -46.319 149.706  10.598  1.00 27.42     0.020 C 
ENDROOT
TORSDOF 10
