REMARK VINA RESULT:    -7.006      1.365      1.683
REMARK INTER + INTRA:         -10.252
REMARK INTER:                  -7.277
REMARK INTRA:                  -2.975
REMARK UNBOUND:                -3.247
REMARK  0 active torsions:
REMARK  status: ('A' for Active; 'I' for Inactive)
REMARK       I    between atoms: C6_6  and  C7_7 
REMARK       I    between atoms: C8_8  and  C9_9 
REMARK       I    between atoms: C10_10  and  C11_11 
REMARK       I    between atoms: C12_16  and  C13_17 
REMARK       I    between atoms: C14_18  and  C15_19 
REMARK       I    between atoms: C16_20  and  C17_21 
REMARK       I    between atoms: C18_22  and  C19_23 
REMARK       I    between atoms: C20_24  and  C21_25 
REMARK       I    between atoms: C22_26  and  C23_27 
REMARK       I    between atoms: C24_28  and  C25_29 
ROOT
HETATM    1  C1  BCR K 102     -34.454 128.008   6.323  1.00 44.36    -0.020 C 
HETATM    2  C2  BCR K 102     -33.588 127.318   5.282  1.00 45.66     0.014 C 
HETATM    3  C3  BCR K 102     -32.399 128.164   4.889  1.00 45.76     0.005 C 
HETATM    4  C4  BCR K 102     -31.539 128.490   6.093  1.00 46.84     0.034 C 
HETATM    5  C5  BCR K 102     -32.359 128.968   7.262  1.00 45.49    -0.077 C 
HETATM    6  C6  BCR K 102     -33.687 128.910   7.260  1.00 44.85    -0.048 C 
HETATM    7  C7  BCR K 102     -34.512 129.677   8.208  1.00 41.42     0.009 C 
HETATM    8  C8  BCR K 102     -34.630 130.996   8.202  1.00 39.50     0.007 C 
HETATM    9  C9  BCR K 102     -35.542 131.603   9.184  1.00 44.88    -0.062 C 
HETATM   10  C10 BCR K 102     -36.190 132.719   8.832  1.00 44.81     0.007 C 
HETATM   11  C11 BCR K 102     -37.174 133.422   9.649  1.00 45.72     0.001 C 
HETATM   12  C33 BCR K 102     -31.620 129.494   8.455  1.00 46.47     0.044 C 
HETATM   13  C31 BCR K 102     -35.153 126.953   7.163  1.00 48.64     0.020 C 
HETATM   14  C32 BCR K 102     -35.494 128.856   5.616  1.00 40.14     0.020 C 
HETATM   15  C34 BCR K 102     -35.757 130.974  10.520  1.00 47.98     0.048 C 
HETATM   16  C12 BCR K 102     -37.745 134.452   9.036  1.00 46.57     0.007 C 
HETATM   17  C13 BCR K 102     -38.811 135.305   9.581  1.00 43.65    -0.062 C 
HETATM   18  C14 BCR K 102     -39.088 136.481   9.000  1.00 41.27     0.007 C 
HETATM   19  C15 BCR K 102     -40.178 137.307   9.497  1.00 46.01     0.001 C 
HETATM   20  C16 BCR K 102     -40.477 138.476   8.937  1.00 47.96     0.001 C 
HETATM   21  C17 BCR K 102     -41.619 139.222   9.459  1.00 48.87     0.007 C 
HETATM   22  C18 BCR K 102     -42.014 140.404   8.963  1.00 44.87    -0.062 C 
HETATM   23  C19 BCR K 102     -43.202 141.055   9.532  1.00 44.84     0.007 C 
HETATM   24  C20 BCR K 102     -43.720 142.144   8.977  1.00 40.19     0.001 C 
HETATM   25  C21 BCR K 102     -44.918 142.680   9.595  1.00 40.61     0.007 C 
HETATM   26  C22 BCR K 102     -45.772 143.461   8.930  1.00 41.40    -0.062 C 
HETATM   27  C23 BCR K 102     -46.990 143.928   9.609  1.00 40.78     0.007 C 
HETATM   28  C24 BCR K 102     -47.839 144.735   8.991  1.00 40.34     0.009 C 
HETATM   29  C25 BCR K 102     -49.091 145.200   9.612  1.00 39.31    -0.048 C 
HETATM   30  C26 BCR K 102     -49.125 146.108  10.585  1.00 41.98    -0.077 C 
HETATM   31  C27 BCR K 102     -50.393 146.490  11.302  1.00 42.86     0.034 C 
HETATM   32  C28 BCR K 102     -51.473 145.460  11.056  1.00 43.57     0.005 C 
HETATM   33  C29 BCR K 102     -51.600 145.228   9.565  1.00 41.79     0.014 C 
HETATM   34  C30 BCR K 102     -50.332 144.599   9.030  1.00 41.39    -0.020 C 
HETATM   35  C35 BCR K 102     -39.623 134.827  10.738  1.00 47.44     0.048 C 
HETATM   36  C36 BCR K 102     -41.288 141.061   7.835  1.00 40.18     0.048 C 
HETATM   37  C37 BCR K 102     -45.510 143.838   7.505  1.00 41.35     0.048 C 
HETATM   38  C38 BCR K 102     -47.876 146.816  10.996  1.00 46.90     0.044 C 
HETATM   39  C39 BCR K 102     -50.223 144.812   7.531  1.00 44.18     0.020 C 
HETATM   40  C40 BCR K 102     -50.341 143.112   9.315  1.00 41.68     0.020 C 
ENDROOT
TORSDOF 10
