REMARK VINA RESULT:    -5.706      2.700     16.627
REMARK INTER + INTRA:          -9.132
REMARK INTER:                  -6.339
REMARK INTRA:                  -2.793
REMARK UNBOUND:                -3.425
REMARK  0 active torsions:
REMARK  status: ('A' for Active; 'I' for Inactive)
REMARK       I    between atoms: C6_6  and  C7_7 
REMARK       I    between atoms: C8_8  and  C9_9 
REMARK       I    between atoms: C10_10  and  C11_11 
REMARK       I    between atoms: C12_16  and  C13_17 
REMARK       I    between atoms: C14_18  and  C15_19 
REMARK       I    between atoms: C16_20  and  C17_21 
REMARK       I    between atoms: C18_22  and  C19_23 
REMARK       I    between atoms: C20_24  and  C21_25 
REMARK       I    between atoms: C22_26  and  C23_27 
REMARK       I    between atoms: C24_28  and  C25_29 
ROOT
HETATM    1  C1  BCR B 618     -33.326 128.159   7.388  1.00 32.17    -0.020 C 
HETATM    2  C2  BCR B 618     -32.301 127.204   6.784  1.00 31.21     0.014 C 
HETATM    3  C3  BCR B 618     -31.933 127.620   5.370  1.00 25.40     0.005 C 
HETATM    4  C4  BCR B 618     -33.148 127.548   4.454  1.00 32.46     0.034 C 
HETATM    5  C5  BCR B 618     -34.387 128.127   5.113  1.00 24.06    -0.077 C 
HETATM    6  C6  BCR B 618     -34.485 128.400   6.436  1.00 29.25    -0.048 C 
HETATM    7  C7  BCR B 618     -35.750 128.950   6.999  1.00 12.74     0.009 C 
HETATM    8  C8  BCR B 618     -36.008 130.269   7.092  1.00 19.92     0.007 C 
HETATM    9  C9  BCR B 618     -37.289 130.801   7.648  1.00 18.47    -0.062 C 
HETATM   10  C10 BCR B 618     -37.520 132.133   7.690  1.00 19.37     0.007 C 
HETATM   11  C11 BCR B 618     -38.762 132.756   8.190  1.00 24.83     0.001 C 
HETATM   12  C33 BCR B 618     -35.549 128.370   4.201  1.00 28.03     0.044 C 
HETATM   13  C31 BCR B 618     -32.669 129.500   7.711  1.00 29.30     0.020 C 
HETATM   14  C32 BCR B 618     -33.845 127.544   8.679  1.00 21.79     0.020 C 
HETATM   15  C34 BCR B 618     -38.344 129.852   8.139  1.00 26.35     0.048 C 
HETATM   16  C12 BCR B 618     -38.934 134.097   8.094  1.00 21.16     0.007 C 
HETATM   17  C13 BCR B 618     -40.167 134.815   8.534  1.00 24.62    -0.062 C 
HETATM   18  C14 BCR B 618     -40.246 136.172   8.431  1.00 15.54     0.007 C 
HETATM   19  C15 BCR B 618     -41.426 137.002   8.795  1.00 12.82     0.001 C 
HETATM   20  C16 BCR B 618     -41.444 138.346   8.604  1.00 24.30     0.001 C 
HETATM   21  C17 BCR B 618     -42.635 139.176   8.914  1.00 16.13     0.007 C 
HETATM   22  C18 BCR B 618     -42.769 140.487   8.569  1.00 18.31    -0.062 C 
HETATM   23  C19 BCR B 618     -44.023 141.225   8.888  1.00 25.80     0.007 C 
HETATM   24  C20 BCR B 618     -44.322 142.467   8.459  1.00 23.93     0.001 C 
HETATM   25  C21 BCR B 618     -45.617 143.014   8.877  1.00 21.34     0.007 C 
HETATM   26  C22 BCR B 618     -46.194 144.151   8.453  1.00 23.72    -0.062 C 
HETATM   27  C23 BCR B 618     -47.416 144.502   8.959  1.00 17.58     0.007 C 
HETATM   28  C24 BCR B 618     -48.084 145.624   8.605  1.00 13.80     0.009 C 
HETATM   29  C25 BCR B 618     -49.411 146.058   9.146  1.00 25.70    -0.048 C 
HETATM   30  C26 BCR B 618     -50.521 145.276   9.097  1.00 16.18    -0.077 C 
HETATM   31  C27 BCR B 618     -51.865 145.716   9.655  1.00 28.93     0.034 C 
HETATM   32  C28 BCR B 618     -51.947 147.217   9.874  1.00 35.11     0.005 C 
HETATM   33  C29 BCR B 618     -50.710 147.733  10.585  1.00 27.97     0.014 C 
HETATM   34  C30 BCR B 618     -49.461 147.461   9.754  1.00 27.33    -0.020 C 
HETATM   35  C35 BCR B 618     -41.326 133.992   9.042  1.00 11.92     0.048 C 
HETATM   36  C36 BCR B 618     -41.661 141.231   7.885  1.00 19.38     0.048 C 
HETATM   37  C37 BCR B 618     -45.468 145.024   7.467  1.00 13.28     0.048 C 
HETATM   38  C38 BCR B 618     -50.519 143.892   8.511  1.00 17.46     0.044 C 
HETATM   39  C39 BCR B 618     -48.271 147.641  10.681  1.00 25.99     0.020 C 
HETATM   40  C40 BCR B 618     -49.362 148.511   8.654  1.00 23.14     0.020 C 
ENDROOT
TORSDOF 10
