REMARK VINA RESULT:    -5.075      1.553      2.022
REMARK INTER + INTRA:          -8.489
REMARK INTER:                  -4.975
REMARK INTRA:                  -3.515
REMARK UNBOUND:                -3.414
REMARK  0 active torsions:
REMARK  status: ('A' for Active; 'I' for Inactive)
REMARK       I    between atoms: C6_6  and  C7_7 
REMARK       I    between atoms: C8_8  and  C9_9 
REMARK       I    between atoms: C10_10  and  C11_11 
REMARK       I    between atoms: C12_16  and  C13_17 
REMARK       I    between atoms: C14_18  and  C15_19 
REMARK       I    between atoms: C16_20  and  C17_21 
REMARK       I    between atoms: C18_22  and  C19_23 
REMARK       I    between atoms: C20_24  and  C21_25 
REMARK       I    between atoms: C22_26  and  C23_27 
REMARK       I    between atoms: C24_28  and  C25_29 
ROOT
HETATM    1  C1  BCR D 403     -49.904 145.111  12.107  1.00 31.64    -0.020 C 
HETATM    2  C2  BCR D 403     -51.267 145.280  12.766  1.00 36.91     0.014 C 
HETATM    3  C3  BCR D 403     -51.398 144.414  14.007  1.00 34.30     0.005 C 
HETATM    4  C4  BCR D 403     -51.321 142.956  13.608  1.00 20.39     0.034 C 
HETATM    5  C5  BCR D 403     -50.144 142.677  12.708  1.00 30.73    -0.077 C 
HETATM    6  C6  BCR D 403     -49.489 143.647  12.024  1.00 34.13    -0.048 C 
HETATM    7  C7  BCR D 403     -48.340 143.299  11.136  1.00 22.47     0.009 C 
HETATM    8  C8  BCR D 403     -47.108 142.949  11.533  1.00 27.46     0.007 C 
HETATM    9  C9  BCR D 403     -46.091 142.607  10.510  1.00 32.57    -0.062 C 
HETATM   10  C10 BCR D 403     -45.057 141.809  10.828  1.00 21.68     0.007 C 
HETATM   11  C11 BCR D 403     -44.025 141.369   9.879  1.00 23.10     0.001 C 
HETATM   12  C33 BCR D 403     -49.744 141.229  12.603  1.00 25.91     0.044 C 
HETATM   13  C31 BCR D 403     -48.833 145.905  12.856  1.00 40.32     0.020 C 
HETATM   14  C32 BCR D 403     -50.036 145.657  10.690  1.00 29.64     0.020 C 
HETATM   15  C34 BCR D 403     -46.220 143.164   9.122  1.00 31.14     0.048 C 
HETATM   16  C12 BCR D 403     -43.145 140.480  10.352  1.00 20.09     0.007 C 
HETATM   17  C13 BCR D 403     -42.080 139.810   9.585  1.00 19.95    -0.062 C 
HETATM   18  C14 BCR D 403     -41.250 138.941  10.221  1.00 30.05     0.007 C 
HETATM   19  C15 BCR D 403     -40.223 138.158   9.513  1.00 30.83     0.001 C 
HETATM   20  C16 BCR D 403     -39.624 137.117  10.123  1.00 27.80     0.001 C 
HETATM   21  C17 BCR D 403     -38.670 136.246   9.414  1.00 19.50     0.007 C 
HETATM   22  C18 BCR D 403     -38.082 135.152   9.971  1.00 20.25    -0.062 C 
HETATM   23  C19 BCR D 403     -37.217 134.287   9.124  1.00 20.98     0.007 C 
HETATM   24  C20 BCR D 403     -36.570 133.191   9.542  1.00 19.16     0.001 C 
HETATM   25  C21 BCR D 403     -35.842 132.404   8.538  1.00 32.99     0.007 C 
HETATM   26  C22 BCR D 403     -35.158 131.266   8.777  1.00 28.53    -0.062 C 
HETATM   27  C23 BCR D 403     -34.603 130.618   7.729  1.00 31.07     0.007 C 
HETATM   28  C24 BCR D 403     -34.625 129.268   7.686  1.00 50.55     0.009 C 
HETATM   29  C25 BCR D 403     -34.110 128.435   6.556  1.00 52.69    -0.048 C 
HETATM   30  C26 BCR D 403     -34.927 128.232   5.515  1.00 59.17    -0.077 C 
HETATM   31  C27 BCR D 403     -34.504 127.411   4.326  1.00 58.46     0.034 C 
HETATM   32  C28 BCR D 403     -33.043 127.716   4.073  1.00 49.26     0.005 C 
HETATM   33  C29 BCR D 403     -32.296 127.171   5.270  1.00 44.20     0.014 C 
HETATM   34  C30 BCR D 403     -32.727 127.812   6.582  1.00 46.31    -0.020 C 
HETATM   35  C35 BCR D 403     -41.983 140.022   8.094  1.00 22.68     0.048 C 
HETATM   36  C36 BCR D 403     -38.350 134.761  11.397  1.00 19.40     0.048 C 
HETATM   37  C37 BCR D 403     -35.063 130.724  10.174  1.00 20.07     0.048 C 
HETATM   38  C38 BCR D 403     -36.301 128.835   5.496  1.00 70.87     0.044 C 
HETATM   39  C39 BCR D 403     -31.717 128.897   6.917  1.00 46.29     0.020 C 
HETATM   40  C40 BCR D 403     -32.725 126.725   7.645  1.00 32.90     0.020 C 
ENDROOT
TORSDOF 10
