REMARK VINA RESULT:    -7.632      2.770      4.638
REMARK INTER + INTRA:         -14.151
REMARK INTER:                 -11.838
REMARK INTRA:                  -2.313
REMARK UNBOUND:                -6.519
REMARK  0 active torsions:
REMARK  status: ('A' for Active; 'I' for Inactive)
REMARK       I    between atoms: C6_6  and  C7_7 
REMARK       I    between atoms: C8_8  and  C9_9 
REMARK       I    between atoms: C10_10  and  C11_11 
REMARK       I    between atoms: C12_16  and  C13_17 
REMARK       I    between atoms: C14_18  and  C15_19 
REMARK       I    between atoms: C16_20  and  C17_21 
REMARK       I    between atoms: C18_22  and  C19_23 
REMARK       I    between atoms: C20_24  and  C21_25 
REMARK       I    between atoms: C22_26  and  C23_27 
REMARK       I    between atoms: C24_28  and  C25_29 
ROOT
HETATM    1  C1  BCR B 620     -44.120 148.336  14.685  1.00 36.91    -0.020 C 
HETATM    2  C2  BCR B 620     -45.052 148.927  15.751  1.00 39.67     0.014 C 
HETATM    3  C3  BCR B 620     -46.136 147.998  16.255  1.00 41.86     0.005 C 
HETATM    4  C4  BCR B 620     -46.918 147.442  15.069  1.00 42.68     0.034 C 
HETATM    5  C5  BCR B 620     -46.048 146.931  13.925  1.00 42.22    -0.077 C 
HETATM    6  C6  BCR B 620     -44.767 147.324  13.743  1.00 36.96    -0.048 C 
HETATM    7  C7  BCR B 620     -43.950 146.798  12.597  1.00 35.00     0.009 C 
HETATM    8  C8  BCR B 620     -43.784 145.472  12.414  1.00 29.58     0.007 C 
HETATM    9  C9  BCR B 620     -42.955 144.920  11.340  1.00 30.24    -0.062 C 
HETATM   10  C10 BCR B 620     -42.742 143.581  11.336  1.00 30.65     0.007 C 
HETATM   11  C11 BCR B 620     -41.870 142.879  10.393  1.00 27.17     0.001 C 
HETATM   12  C33 BCR B 620     -46.698 145.960  12.980  1.00 41.60     0.044 C 
HETATM   13  C31 BCR B 620     -42.909 147.736  15.406  1.00 38.82     0.020 C 
HETATM   14  C32 BCR B 620     -43.708 149.506  13.824  1.00 34.87     0.020 C 
HETATM   15  C34 BCR B 620     -42.316 145.872  10.369  1.00 28.50     0.048 C 
HETATM   16  C12 BCR B 620     -41.799 141.550  10.526  1.00 26.65     0.007 C 
HETATM   17  C13 BCR B 620     -40.888 140.692   9.727  1.00 25.82    -0.062 C 
HETATM   18  C14 BCR B 620     -40.990 139.333   9.852  1.00 25.50     0.007 C 
HETATM   19  C15 BCR B 620     -40.099 138.366   9.196  1.00 29.12     0.001 C 
HETATM   20  C16 BCR B 620     -40.235 137.053   9.468  1.00 29.64     0.001 C 
HETATM   21  C17 BCR B 620     -39.303 136.071   8.909  1.00 26.95     0.007 C 
HETATM   22  C18 BCR B 620     -39.429 134.729   9.058  1.00 26.10    -0.062 C 
HETATM   23  C19 BCR B 620     -38.366 133.853   8.469  1.00 22.51     0.007 C 
HETATM   24  C20 BCR B 620     -38.385 132.506   8.589  1.00 23.80     0.001 C 
HETATM   25  C21 BCR B 620     -37.275 131.728   7.950  1.00 21.77     0.007 C 
HETATM   26  C22 BCR B 620     -37.119 130.385   7.921  1.00 22.57    -0.062 C 
HETATM   27  C23 BCR B 620     -35.907 129.867   7.216  1.00 24.96     0.007 C 
HETATM   28  C24 BCR B 620     -35.485 128.596   7.357  1.00 25.87     0.009 C 
HETATM   29  C25 BCR B 620     -34.272 128.183   6.625  1.00 29.04    -0.048 C 
HETATM   30  C26 BCR B 620     -33.075 128.687   7.046  1.00 31.10    -0.077 C 
HETATM   31  C27 BCR B 620     -31.741 128.353   6.364  1.00 33.58     0.034 C 
HETATM   32  C28 BCR B 620     -31.943 127.735   4.965  1.00 31.33     0.005 C 
HETATM   33  C29 BCR B 620     -33.058 126.681   4.993  1.00 32.97     0.014 C 
HETATM   34  C30 BCR B 620     -34.426 127.220   5.466  1.00 32.21    -0.020 C 
HETATM   35  C35 BCR B 620     -39.832 141.362   8.856  1.00 27.05     0.048 C 
HETATM   36  C36 BCR B 620     -40.606 134.104   9.806  1.00 25.62     0.048 C 
HETATM   37  C37 BCR B 620     -38.061 129.349   8.535  1.00 24.21     0.048 C 
HETATM   38  C38 BCR B 620     -33.040 129.637   8.232  1.00 29.41     0.044 C 
HETATM   39  C39 BCR B 620     -35.296 126.021   5.937  1.00 35.26     0.020 C 
HETATM   40  C40 BCR B 620     -35.153 127.957   4.323  1.00 30.43     0.020 C 
ENDROOT
TORSDOF 10
