REMARK VINA RESULT:    -7.499      1.966     16.515
REMARK INTER + INTRA:         -14.280
REMARK INTER:                 -11.367
REMARK INTRA:                  -2.912
REMARK UNBOUND:                -6.781
REMARK  0 active torsions:
REMARK  status: ('A' for Active; 'I' for Inactive)
REMARK       I    between atoms: C6_6  and  C7_7 
REMARK       I    between atoms: C8_8  and  C9_9 
REMARK       I    between atoms: C10_10  and  C11_11 
REMARK       I    between atoms: C12_16  and  C13_17 
REMARK       I    between atoms: C14_18  and  C15_19 
REMARK       I    between atoms: C16_20  and  C17_21 
REMARK       I    between atoms: C18_22  and  C19_23 
REMARK       I    between atoms: C20_24  and  C21_25 
REMARK       I    between atoms: C22_26  and  C23_27 
REMARK       I    between atoms: C24_28  and  C25_29 
ROOT
HETATM    1  C1  BCR H 101     -31.964 130.008   7.070  1.00 46.06    -0.020 C 
HETATM    2  C2  BCR H 101     -31.119 128.919   6.406  1.00 47.54     0.014 C 
HETATM    3  C3  BCR H 101     -31.771 128.497   5.105  1.00 47.88     0.005 C 
HETATM    4  C4  BCR H 101     -33.079 127.802   5.427  1.00 39.95     0.034 C 
HETATM    5  C5  BCR H 101     -33.919 128.566   6.429  1.00 52.72    -0.077 C 
HETATM    6  C6  BCR H 101     -33.421 129.579   7.198  1.00 44.05    -0.048 C 
HETATM    7  C7  BCR H 101     -34.217 130.358   8.194  1.00 41.77     0.009 C 
HETATM    8  C8  BCR H 101     -35.446 130.859   8.006  1.00 39.73     0.007 C 
HETATM    9  C9  BCR H 101     -36.167 131.647   9.034  1.00 51.82    -0.062 C 
HETATM   10  C10 BCR H 101     -37.280 132.299   8.653  1.00 44.04     0.007 C 
HETATM   11  C11 BCR H 101     -38.119 133.155   9.493  1.00 50.55     0.001 C 
HETATM   12  C33 BCR H 101     -35.341 128.072   6.486  1.00 45.83     0.044 C 
HETATM   13  C31 BCR H 101     -31.893 131.268   6.226  1.00 36.85     0.020 C 
HETATM   14  C32 BCR H 101     -31.372 130.327   8.446  1.00 40.14     0.020 C 
HETATM   15  C34 BCR H 101     -35.657 131.726  10.446  1.00 48.50     0.048 C 
HETATM   16  C12 BCR H 101     -38.886 134.041   8.843  1.00 64.73     0.007 C 
HETATM   17  C13 BCR H 101     -39.790 135.027   9.483  1.00 72.39    -0.062 C 
HETATM   18  C14 BCR H 101     -40.568 135.817   8.709  1.00 61.01     0.007 C 
HETATM   19  C15 BCR H 101     -41.485 136.833   9.248  1.00 53.62     0.001 C 
HETATM   20  C16 BCR H 101     -42.040 137.733   8.424  1.00 51.67     0.001 C 
HETATM   21  C17 BCR H 101     -42.977 138.769   8.879  1.00 53.95     0.007 C 
HETATM   22  C18 BCR H 101     -43.443 139.715   8.030  1.00 56.08    -0.062 C 
HETATM   23  C19 BCR H 101     -44.376 140.764   8.510  1.00 64.56     0.007 C 
HETATM   24  C20 BCR H 101     -44.854 141.755   7.746  1.00 42.37     0.001 C 
HETATM   25  C21 BCR H 101     -45.745 142.733   8.377  1.00 57.40     0.007 C 
HETATM   26  C22 BCR H 101     -46.340 143.756   7.731  1.00 67.24    -0.062 C 
HETATM   27  C23 BCR H 101     -47.131 144.601   8.421  1.00 62.55     0.007 C 
HETATM   28  C24 BCR H 101     -47.666 145.704   7.869  1.00 52.65     0.009 C 
HETATM   29  C25 BCR H 101     -48.533 146.663   8.616  1.00 59.76    -0.048 C 
HETATM   30  C26 BCR H 101     -48.017 147.521   9.513  1.00 55.29    -0.077 C 
HETATM   31  C27 BCR H 101     -48.858 148.516  10.287  1.00 50.09     0.034 C 
HETATM   32  C28 BCR H 101     -50.332 148.146  10.320  1.00 47.48     0.005 C 
HETATM   33  C29 BCR H 101     -50.786 147.809   8.914  1.00 49.30     0.014 C 
HETATM   34  C30 BCR H 101     -50.012 146.639   8.312  1.00 65.35    -0.020 C 
HETATM   35  C35 BCR H 101     -39.805 135.169  10.976  1.00 73.87     0.048 C 
HETATM   36  C36 BCR H 101     -42.986 139.732   6.606  1.00 50.16     0.048 C 
HETATM   37  C37 BCR H 101     -46.127 143.960   6.259  1.00 67.94     0.048 C 
HETATM   38  C38 BCR H 101     -46.540 147.531   9.785  1.00 48.54     0.044 C 
HETATM   39  C39 BCR H 101     -50.153 146.692   6.791  1.00 52.27     0.020 C 
HETATM   40  C40 BCR H 101     -50.574 145.330   8.863  1.00 64.09     0.020 C 
ENDROOT
TORSDOF 10
