REMARK VINA RESULT:    -6.195      1.609     16.166
REMARK INTER + INTRA:         -10.475
REMARK INTER:                  -8.528
REMARK INTRA:                  -1.947
REMARK UNBOUND:                -4.280
REMARK  0 active torsions:
REMARK  status: ('A' for Active; 'I' for Inactive)
REMARK       I    between atoms: C6_6  and  C7_7 
REMARK       I    between atoms: C8_8  and  C9_9 
REMARK       I    between atoms: C10_10  and  C11_11 
REMARK       I    between atoms: C12_16  and  C13_17 
REMARK       I    between atoms: C14_18  and  C15_19 
REMARK       I    between atoms: C16_20  and  C17_21 
REMARK       I    between atoms: C18_22  and  C19_23 
REMARK       I    between atoms: C20_24  and  C21_25 
REMARK       I    between atoms: C22_26  and  C23_27 
REMARK       I    between atoms: C24_28  and  C25_29 
ROOT
HETATM    1  C1  BCR T 101     -47.294 148.284  14.366  1.00 41.70    -0.020 C 
HETATM    2  C2  BCR T 101     -48.293 149.337  14.830  1.00 42.78     0.014 C 
HETATM    3  C3  BCR T 101     -47.922 149.936  16.149  1.00 41.03     0.005 C 
HETATM    4  C4  BCR T 101     -46.578 150.591  16.062  1.00 43.70     0.034 C 
HETATM    5  C5  BCR T 101     -45.594 149.777  15.316  1.00 45.79    -0.077 C 
HETATM    6  C6  BCR T 101     -45.891 148.710  14.544  1.00 40.49    -0.048 C 
HETATM    7  C7  BCR T 101     -44.839 148.000  13.797  1.00 44.14     0.009 C 
HETATM    8  C8  BCR T 101     -44.736 146.678  13.631  1.00 36.42     0.007 C 
HETATM    9  C9  BCR T 101     -43.540 146.109  13.001  1.00 37.41    -0.062 C 
HETATM   10  C10 BCR T 101     -43.661 144.978  12.291  1.00 30.62     0.007 C 
HETATM   11  C11 BCR T 101     -42.651 144.375  11.470  1.00 28.97     0.001 C 
HETATM   12  C33 BCR T 101     -44.204 150.270  15.502  1.00 43.90     0.044 C 
HETATM   13  C31 BCR T 101     -47.634 148.071  12.905  1.00 32.30     0.020 C 
HETATM   14  C32 BCR T 101     -47.512 146.986  15.129  1.00 43.93     0.020 C 
HETATM   15  C34 BCR T 101     -42.303 146.930  12.941  1.00 35.44     0.048 C 
HETATM   16  C12 BCR T 101     -42.715 143.056  11.240  1.00 28.42     0.007 C 
HETATM   17  C13 BCR T 101     -41.672 142.259  10.594  1.00 29.67    -0.062 C 
HETATM   18  C14 BCR T 101     -41.992 141.077  10.004  1.00 27.65     0.007 C 
HETATM   19  C15 BCR T 101     -41.183 139.875  10.035  1.00 28.48     0.001 C 
HETATM   20  C16 BCR T 101     -41.186 139.006   9.010  1.00 25.66     0.001 C 
HETATM   21  C17 BCR T 101     -40.638 137.673   9.135  1.00 31.53     0.007 C 
HETATM   22  C18 BCR T 101     -40.836 136.641   8.293  1.00 35.11    -0.062 C 
HETATM   23  C19 BCR T 101     -39.764 135.662   8.128  1.00 31.55     0.007 C 
HETATM   24  C20 BCR T 101     -39.971 134.367   7.858  1.00 33.30     0.001 C 
HETATM   25  C21 BCR T 101     -38.871 133.418   7.854  1.00 34.76     0.007 C 
HETATM   26  C22 BCR T 101     -38.923 132.087   7.605  1.00 38.40    -0.062 C 
HETATM   27  C23 BCR T 101     -37.774 131.284   8.027  1.00 37.30     0.007 C 
HETATM   28  C24 BCR T 101     -37.570 130.006   7.701  1.00 34.14     0.009 C 
HETATM   29  C25 BCR T 101     -36.448 129.226   8.224  1.00 34.41    -0.048 C 
HETATM   30  C26 BCR T 101     -35.187 129.622   8.060  1.00 30.82    -0.077 C 
HETATM   31  C27 BCR T 101     -33.985 128.968   8.573  1.00 38.31     0.034 C 
HETATM   32  C28 BCR T 101     -34.314 127.996   9.670  1.00 33.34     0.005 C 
HETATM   33  C29 BCR T 101     -35.452 127.150   9.232  1.00 23.88     0.014 C 
HETATM   34  C30 BCR T 101     -36.735 127.951   8.946  1.00 29.76    -0.020 C 
HETATM   35  C35 BCR T 101     -40.264 142.665  10.784  1.00 34.50     0.048 C 
HETATM   36  C36 BCR T 101     -42.131 136.410   7.614  1.00 32.52     0.048 C 
HETATM   37  C37 BCR T 101     -39.882 131.498   6.642  1.00 33.52     0.048 C 
HETATM   38  C38 BCR T 101     -34.794 130.843   7.363  1.00 36.86     0.044 C 
HETATM   39  C39 BCR T 101     -37.553 128.186  10.202  1.00 35.69     0.020 C 
HETATM   40  C40 BCR T 101     -37.578 127.033   8.081  1.00 29.24     0.020 C 
ENDROOT
TORSDOF 10
