REMARK VINA RESULT:    -7.427      0.616     16.043
REMARK INTER + INTRA:         -10.766
REMARK INTER:                  -8.623
REMARK INTRA:                  -2.142
REMARK UNBOUND:                -3.339
REMARK  0 active torsions:
REMARK  status: ('A' for Active; 'I' for Inactive)
REMARK       I    between atoms: C6_6  and  C7_7 
REMARK       I    between atoms: C8_8  and  C9_9 
REMARK       I    between atoms: C10_10  and  C11_11 
REMARK       I    between atoms: C12_16  and  C13_17 
REMARK       I    between atoms: C14_18  and  C15_19 
REMARK       I    between atoms: C16_20  and  C17_21 
REMARK       I    between atoms: C18_22  and  C19_23 
REMARK       I    between atoms: C20_24  and  C21_25 
REMARK       I    between atoms: C22_26  and  C23_27 
REMARK       I    between atoms: C24_28  and  C25_29 
ROOT
HETATM    1  C1  BCR K 101     -50.443 142.755  12.573  1.00 61.74    -0.020 C 
HETATM    2  C2  BCR K 101     -51.392 143.271  13.654  1.00 63.47     0.014 C 
HETATM    3  C3  BCR K 101     -50.682 144.148  14.666  1.00 57.51     0.005 C 
HETATM    4  C4  BCR K 101     -50.105 145.352  13.948  1.00 60.11     0.034 C 
HETATM    5  C5  BCR K 101     -49.167 144.897  12.855  1.00 59.07    -0.077 C 
HETATM    6  C6  BCR K 101     -49.321 143.721  12.230  1.00 62.21    -0.048 C 
HETATM    7  C7  BCR K 101     -48.403 143.276  11.153  1.00 58.73     0.009 C 
HETATM    8  C8  BCR K 101     -47.150 142.890  11.385  1.00 55.67     0.007 C 
HETATM    9  C9  BCR K 101     -46.291 142.406  10.291  1.00 52.89    -0.062 C 
HETATM   10  C10 BCR K 101     -45.239 141.636  10.629  1.00 55.14     0.007 C 
HETATM   11  C11 BCR K 101     -44.306 141.020   9.686  1.00 61.50     0.001 C 
HETATM   12  C33 BCR K 101     -48.049 145.827  12.490  1.00 62.66     0.044 C 
HETATM   13  C31 BCR K 101     -51.270 142.469  11.328  1.00 50.75     0.020 C 
HETATM   14  C32 BCR K 101     -49.788 141.460  13.046  1.00 48.41     0.020 C 
HETATM   15  C34 BCR K 101     -46.592 142.756   8.867  1.00 53.75     0.048 C 
HETATM   16  C12 BCR K 101     -43.411 140.172  10.200  1.00 59.30     0.007 C 
HETATM   17  C13 BCR K 101     -42.431 139.392   9.413  1.00 63.72    -0.062 C 
HETATM   18  C14 BCR K 101     -41.570 138.577  10.064  1.00 56.40     0.007 C 
HETATM   19  C15 BCR K 101     -40.605 137.708   9.385  1.00 52.49     0.001 C 
HETATM   20  C16 BCR K 101     -39.755 136.923  10.060  1.00 54.34     0.001 C 
HETATM   21  C17 BCR K 101     -38.847 136.028   9.333  1.00 49.34     0.007 C 
HETATM   22  C18 BCR K 101     -37.978 135.188   9.934  1.00 62.88    -0.062 C 
HETATM   23  C19 BCR K 101     -37.153 134.282   9.086  1.00 60.90     0.007 C 
HETATM   24  C20 BCR K 101     -36.575 133.170   9.557  1.00 51.07     0.001 C 
HETATM   25  C21 BCR K 101     -35.821 132.311   8.638  1.00 47.75     0.007 C 
HETATM   26  C22 BCR K 101     -35.317 131.101   8.940  1.00 48.45    -0.062 C 
HETATM   27  C23 BCR K 101     -34.665 130.401   7.982  1.00 53.56     0.007 C 
HETATM   28  C24 BCR K 101     -34.225 129.142   8.188  1.00 50.64     0.009 C 
HETATM   29  C25 BCR K 101     -33.496 128.310   7.178  1.00 69.21    -0.048 C 
HETATM   30  C26 BCR K 101     -32.292 128.689   6.689  1.00 58.66    -0.077 C 
HETATM   31  C27 BCR K 101     -31.533 127.866   5.672  1.00 58.99     0.034 C 
HETATM   32  C28 BCR K 101     -32.486 127.039   4.836  1.00 47.83     0.005 C 
HETATM   33  C29 BCR K 101     -33.335 126.181   5.760  1.00 60.06     0.014 C 
HETATM   34  C30 BCR K 101     -34.159 127.009   6.744  1.00 65.44    -0.020 C 
HETATM   35  C35 BCR K 101     -42.452 139.471   7.916  1.00 53.57     0.048 C 
HETATM   36  C36 BCR K 101     -37.869 135.163  11.434  1.00 46.50     0.048 C 
HETATM   37  C37 BCR K 101     -35.458 130.518  10.327  1.00 47.91     0.048 C 
HETATM   38  C38 BCR K 101     -31.610 129.958   7.118  1.00 59.26     0.044 C 
HETATM   39  C39 BCR K 101     -34.383 126.147   7.984  1.00 43.58     0.020 C 
HETATM   40  C40 BCR K 101     -35.511 127.311   6.117  1.00 44.74     0.020 C 
ENDROOT
TORSDOF 10
