REMARK VINA RESULT:    -5.552      0.833     16.060
REMARK INTER + INTRA:          -9.255
REMARK INTER:                  -5.616
REMARK INTRA:                  -3.639
REMARK UNBOUND:                -3.702
REMARK  0 active torsions:
REMARK  status: ('A' for Active; 'I' for Inactive)
REMARK       I    between atoms: C6_6  and  C7_7 
REMARK       I    between atoms: C8_8  and  C9_9 
REMARK       I    between atoms: C10_10  and  C11_11 
REMARK       I    between atoms: C12_16  and  C13_17 
REMARK       I    between atoms: C14_18  and  C15_19 
REMARK       I    between atoms: C16_20  and  C17_21 
REMARK       I    between atoms: C18_22  and  C19_23 
REMARK       I    between atoms: C20_24  and  C21_25 
REMARK       I    between atoms: C22_26  and  C23_27 
REMARK       I    between atoms: C24_28  and  C25_29 
ROOT
HETATM    1  C1  BCR D 404     -33.410 128.958   8.225  1.00 52.80    -0.020 C 
HETATM    2  C2  BCR D 404     -32.967 127.851   7.275  1.00 67.63     0.014 C 
HETATM    3  C3  BCR D 404     -33.258 128.188   5.828  1.00 57.68     0.005 C 
HETATM    4  C4  BCR D 404     -34.755 128.293   5.637  1.00 46.23     0.034 C 
HETATM    5  C5  BCR D 404     -35.343 129.243   6.652  1.00 56.25    -0.077 C 
HETATM    6  C6  BCR D 404     -34.754 129.556   7.828  1.00 49.41    -0.048 C 
HETATM    7  C7  BCR D 404     -35.494 130.507   8.717  1.00 51.33     0.009 C 
HETATM    8  C8  BCR D 404     -35.479 131.854   8.674  1.00 42.68     0.007 C 
HETATM    9  C9  BCR D 404     -36.338 132.617   9.613  1.00 49.43    -0.062 C 
HETATM   10  C10 BCR D 404     -36.799 133.825   9.230  1.00 48.79     0.007 C 
HETATM   11  C11 BCR D 404     -37.703 134.664  10.025  1.00 45.83     0.001 C 
HETATM   12  C33 BCR D 404     -36.675 129.838   6.297  1.00 38.15     0.044 C 
HETATM   13  C31 BCR D 404     -32.377 130.072   8.230  1.00 54.77     0.020 C 
HETATM   14  C32 BCR D 404     -33.469 128.320   9.607  1.00 49.36     0.020 C 
HETATM   15  C34 BCR D 404     -36.699 132.048  10.959  1.00 48.18     0.048 C 
HETATM   16  C12 BCR D 404     -38.181 135.772   9.444  1.00 46.75     0.007 C 
HETATM   17  C13 BCR D 404     -39.166 136.677  10.078  1.00 48.81    -0.062 C 
HETATM   18  C14 BCR D 404     -39.687 137.719   9.375  1.00 49.17     0.007 C 
HETATM   19  C15 BCR D 404     -40.734 138.620   9.880  1.00 46.20     0.001 C 
HETATM   20  C16 BCR D 404     -41.318 139.540   9.089  1.00 44.61     0.001 C 
HETATM   21  C17 BCR D 404     -42.430 140.391   9.564  1.00 52.55     0.007 C 
HETATM   22  C18 BCR D 404     -43.142 141.237   8.773  1.00 48.76    -0.062 C 
HETATM   23  C19 BCR D 404     -44.303 141.983   9.319  1.00 42.03     0.007 C 
HETATM   24  C20 BCR D 404     -45.058 142.867   8.639  1.00 44.86     0.001 C 
HETATM   25  C21 BCR D 404     -46.216 143.422   9.361  1.00 53.52     0.007 C 
HETATM   26  C22 BCR D 404     -47.210 144.185   8.851  1.00 55.83    -0.062 C 
HETATM   27  C23 BCR D 404     -48.234 144.544   9.662  1.00 57.08     0.007 C 
HETATM   28  C24 BCR D 404     -49.484 144.667   9.171  1.00 83.14     0.009 C 
HETATM   29  C25 BCR D 404     -50.715 145.001   9.957  1.00 93.70    -0.048 C 
HETATM   30  C26 BCR D 404     -51.350 144.012  10.604  1.00 98.17    -0.077 C 
HETATM   31  C27 BCR D 404     -52.600 144.263  11.413  1.00 88.54     0.034 C 
HETATM   32  C28 BCR D 404     -52.507 145.642  12.040  1.00 81.02     0.005 C 
HETATM   33  C29 BCR D 404     -52.446 146.646  10.906  1.00 74.51     0.014 C 
HETATM   34  C30 BCR D 404     -51.241 146.425   9.999  1.00 76.53    -0.020 C 
HETATM   35  C35 BCR D 404     -39.619 136.355  11.469  1.00 41.10     0.048 C 
HETATM   36  C36 BCR D 404     -42.824 141.389   7.316  1.00 43.88     0.048 C 
HETATM   37  C37 BCR D 404     -47.184 144.601   7.407  1.00 57.34     0.048 C 
HETATM   38  C38 BCR D 404     -50.828 142.605  10.547  1.00 99.96     0.044 C 
HETATM   39  C39 BCR D 404     -50.106 147.296  10.508  1.00 71.47     0.020 C 
HETATM   40  C40 BCR D 404     -51.665 146.816   8.594  1.00 72.90     0.020 C 
ENDROOT
TORSDOF 10
