REMARK VINA RESULT:   -11.467      0.000      0.000
REMARK INTER + INTRA:         -14.504
REMARK INTER:                 -11.467
REMARK INTRA:                  -3.037
REMARK UNBOUND:                -3.037
REMARK  0 active torsions:
REMARK  status: ('A' for Active; 'I' for Inactive)
REMARK       I    between atoms: C6_6  and  C7_7 
REMARK       I    between atoms: C8_8  and  C9_9 
REMARK       I    between atoms: C10_10  and  C11_11 
REMARK       I    between atoms: C12_16  and  C13_17 
REMARK       I    between atoms: C14_18  and  C15_19 
REMARK       I    between atoms: C16_20  and  C17_21 
REMARK       I    between atoms: C18_22  and  C19_23 
REMARK       I    between atoms: C20_24  and  C21_25 
REMARK       I    between atoms: C22_26  and  C23_27 
REMARK       I    between atoms: C24_28  and  C25_29 
ROOT
HETATM    1  C1  BCR A 407     -33.960 126.959   6.653  1.00 28.23    -0.020 C 
HETATM    2  C2  BCR A 407     -33.222 126.200   5.560  1.00 26.63     0.014 C 
HETATM    3  C3  BCR A 407     -32.746 127.138   4.472  1.00 25.93     0.005 C 
HETATM    4  C4  BCR A 407     -31.743 128.068   5.103  1.00 23.77     0.034 C 
HETATM    5  C5  BCR A 407     -32.397 128.853   6.199  1.00 26.68    -0.077 C 
HETATM    6  C6  BCR A 407     -33.423 128.352   6.909  1.00 30.50    -0.048 C 
HETATM    7  C7  BCR A 407     -34.031 129.156   7.992  1.00 26.48     0.009 C 
HETATM    8  C8  BCR A 407     -34.939 130.111   7.778  1.00 26.44     0.007 C 
HETATM    9  C9  BCR A 407     -35.511 130.905   8.893  1.00 31.91    -0.062 C 
HETATM   10  C10 BCR A 407     -36.108 132.082   8.635  1.00 26.39     0.007 C 
HETATM   11  C11 BCR A 407     -36.706 132.994   9.608  1.00 23.46     0.001 C 
HETATM   12  C33 BCR A 407     -31.836 130.206   6.488  1.00 20.48     0.044 C 
HETATM   13  C31 BCR A 407     -33.850 126.179   7.948  1.00 26.58     0.020 C 
HETATM   14  C32 BCR A 407     -35.403 127.074   6.211  1.00 24.38     0.020 C 
HETATM   15  C34 BCR A 407     -35.417 130.389  10.292  1.00 31.33     0.048 C 
HETATM   16  C12 BCR A 407     -37.406 134.025   9.138  1.00 19.64     0.007 C 
HETATM   17  C13 BCR A 407     -38.075 135.033   9.977  1.00 19.50    -0.062 C 
HETATM   18  C14 BCR A 407     -38.889 135.927   9.406  1.00 21.08     0.007 C 
HETATM   19  C15 BCR A 407     -39.618 136.956  10.137  1.00 20.35     0.001 C 
HETATM   20  C16 BCR A 407     -40.291 137.917   9.504  1.00 19.61     0.001 C 
HETATM   21  C17 BCR A 407     -41.046 138.899  10.274  1.00 24.39     0.007 C 
HETATM   22  C18 BCR A 407     -41.730 139.907   9.716  1.00 24.75    -0.062 C 
HETATM   23  C19 BCR A 407     -42.494 140.835  10.586  1.00 22.75     0.007 C 
HETATM   24  C20 BCR A 407     -43.180 141.902  10.171  1.00 20.02     0.001 C 
HETATM   25  C21 BCR A 407     -43.891 142.692  11.171  1.00 24.21     0.007 C 
HETATM   26  C22 BCR A 407     -44.426 143.917  11.029  1.00 23.81    -0.062 C 
HETATM   27  C23 BCR A 407     -45.140 144.544  12.181  1.00 24.49     0.007 C 
HETATM   28  C24 BCR A 407     -45.645 145.785  12.178  1.00 22.45     0.009 C 
HETATM   29  C25 BCR A 407     -46.380 146.419  13.304  1.00 22.37    -0.048 C 
HETATM   30  C26 BCR A 407     -47.694 146.192  13.424  1.00 25.07    -0.077 C 
HETATM   31  C27 BCR A 407     -48.526 146.914  14.454  1.00 22.42     0.034 C 
HETATM   32  C28 BCR A 407     -47.743 147.041  15.738  1.00 19.60     0.005 C 
HETATM   33  C29 BCR A 407     -46.461 147.802  15.495  1.00 23.51     0.014 C 
HETATM   34  C30 BCR A 407     -45.669 147.366  14.256  1.00 25.52    -0.020 C 
HETATM   35  C35 BCR A 407     -37.813 135.069  11.444  1.00 19.07     0.048 C 
HETATM   36  C36 BCR A 407     -41.692 140.074   8.231  1.00 14.49     0.048 C 
HETATM   37  C37 BCR A 407     -44.310 144.634   9.725  1.00 19.80     0.048 C 
HETATM   38  C38 BCR A 407     -48.407 145.228  12.529  1.00 20.56     0.044 C 
HETATM   39  C39 BCR A 407     -44.402 146.690  14.732  1.00 27.97     0.020 C 
HETATM   40  C40 BCR A 407     -45.305 148.645  13.543  1.00 17.98     0.020 C 
ENDROOT
TORSDOF 10
