REMARK VINA RESULT:    -6.620      1.781      3.606
REMARK INTER + INTRA:         -13.219
REMARK INTER:                 -12.590
REMARK INTRA:                  -0.629
REMARK UNBOUND:                -6.599
REMARK  0 active torsions:
REMARK  status: ('A' for Active; 'I' for Inactive)
REMARK       I    between atoms: C6_6  and  C7_7 
REMARK       I    between atoms: C8_8  and  C9_9 
REMARK       I    between atoms: C10_10  and  C11_11 
REMARK       I    between atoms: C12_16  and  C13_17 
REMARK       I    between atoms: C14_18  and  C15_19 
REMARK       I    between atoms: C16_20  and  C17_21 
REMARK       I    between atoms: C18_22  and  C19_23 
REMARK       I    between atoms: C20_24  and  C21_25 
REMARK       I    between atoms: C22_26  and  C23_27 
REMARK       I    between atoms: C24_28  and  C25_29 
ROOT
HETATM    1  C1  BCR B 618     -33.723 128.128   7.503  1.00 18.61    -0.020 C 
HETATM    2  C2  BCR B 618     -32.581 127.381   6.853  1.00 18.63     0.014 C 
HETATM    3  C3  BCR B 618     -32.140 128.082   5.604  1.00 18.62     0.005 C 
HETATM    4  C4  BCR B 618     -31.647 129.469   5.916  1.00 18.60     0.034 C 
HETATM    5  C5  BCR B 618     -32.496 130.180   6.903  1.00 18.57    -0.077 C 
HETATM    6  C6  BCR B 618     -33.459 129.596   7.641  1.00 18.52    -0.048 C 
HETATM    7  C7  BCR B 618     -34.276 130.324   8.626  1.00 18.34     0.009 C 
HETATM    8  C8  BCR B 618     -35.300 131.110   8.289  1.00 18.07     0.007 C 
HETATM    9  C9  BCR B 618     -36.114 131.903   9.187  1.00 17.93    -0.062 C 
HETATM   10  C10 BCR B 618     -36.835 132.900   8.653  1.00 17.77     0.007 C 
HETATM   11  C11 BCR B 618     -37.959 133.537   9.291  1.00 17.60     0.001 C 
HETATM   12  C33 BCR B 618     -32.164 131.619   6.994  1.00 18.57     0.044 C 
HETATM   13  C31 BCR B 618     -33.950 127.467   8.847  1.00 18.66     0.020 C 
HETATM   14  C32 BCR B 618     -34.948 127.897   6.640  1.00 18.64     0.020 C 
HETATM   15  C34 BCR B 618     -36.503 131.290  10.471  1.00 17.92     0.048 C 
HETATM   16  C12 BCR B 618     -38.624 134.509   8.650  1.00 17.46     0.007 C 
HETATM   17  C13 BCR B 618     -39.591 135.386   9.268  1.00 17.39    -0.062 C 
HETATM   18  C14 BCR B 618     -40.241 136.278   8.504  1.00 17.35     0.007 C 
HETATM   19  C15 BCR B 618     -41.310 137.117   8.971  1.00 17.33     0.001 C 
HETATM   20  C16 BCR B 618     -41.897 137.998   8.149  1.00 17.39     0.001 C 
HETATM   21  C17 BCR B 618     -42.771 139.002   8.697  1.00 17.40     0.007 C 
HETATM   22  C18 BCR B 618     -43.453 139.925   8.008  1.00 17.49    -0.062 C 
HETATM   23  C19 BCR B 618     -44.424 140.712   8.734  1.00 17.57     0.007 C 
HETATM   24  C20 BCR B 618     -44.996 141.814   8.257  1.00 17.71     0.001 C 
HETATM   25  C21 BCR B 618     -45.983 142.490   9.052  1.00 17.85     0.007 C 
HETATM   26  C22 BCR B 618     -46.576 143.648   8.750  1.00 18.00    -0.062 C 
HETATM   27  C23 BCR B 618     -47.661 144.088   9.604  1.00 18.11     0.007 C 
HETATM   28  C24 BCR B 618     -48.204 145.304   9.494  1.00 18.27     0.009 C 
HETATM   29  C25 BCR B 618     -49.311 145.854  10.278  1.00 18.38    -0.048 C 
HETATM   30  C26 BCR B 618     -49.191 146.266  11.548  1.00 18.39    -0.077 C 
HETATM   31  C27 BCR B 618     -50.255 146.828  12.410  1.00 18.43     0.034 C 
HETATM   32  C28 BCR B 618     -51.623 146.862  11.774  1.00 18.45     0.005 C 
HETATM   33  C29 BCR B 618     -51.759 145.927  10.602  1.00 18.46     0.014 C 
HETATM   34  C30 BCR B 618     -50.631 146.009   9.596  1.00 18.45    -0.020 C 
HETATM   35  C35 BCR B 618     -40.077 135.090  10.630  1.00 17.31     0.048 C 
HETATM   36  C36 BCR B 618     -42.960 140.445   6.717  1.00 17.49     0.048 C 
HETATM   37  C37 BCR B 618     -46.332 144.356   7.475  1.00 18.00     0.048 C 
HETATM   38  C38 BCR B 618     -47.951 146.182  12.341  1.00 18.43     0.044 C 
HETATM   39  C39 BCR B 618     -50.667 147.306   8.803  1.00 18.49     0.020 C 
HETATM   40  C40 BCR B 618     -50.930 144.914   8.588  1.00 18.48     0.020 C 
ENDROOT
TORSDOF 10
