REMARK VINA RESULT:    -5.446      3.450      4.857
REMARK INTER + INTRA:          -9.727
REMARK INTER:                  -3.636
REMARK INTRA:                  -6.091
REMARK UNBOUND:                -4.280
REMARK  0 active torsions:
REMARK  status: ('A' for Active; 'I' for Inactive)
REMARK       I    between atoms: C6_6  and  C7_7 
REMARK       I    between atoms: C8_8  and  C9_9 
REMARK       I    between atoms: C10_10  and  C11_11 
REMARK       I    between atoms: C12_16  and  C13_17 
REMARK       I    between atoms: C14_18  and  C15_19 
REMARK       I    between atoms: C16_20  and  C17_21 
REMARK       I    between atoms: C18_22  and  C19_23 
REMARK       I    between atoms: C20_24  and  C21_25 
REMARK       I    between atoms: C22_26  and  C23_27 
REMARK       I    between atoms: C24_28  and  C25_29 
ROOT
HETATM    1  C1  BCR T 101     -34.529 127.196   4.635  1.00 41.70    -0.020 C 
HETATM    2  C2  BCR T 101     -33.809 125.988   4.047  1.00 42.78     0.014 C 
HETATM    3  C3  BCR T 101     -32.435 126.323   3.559  1.00 41.03     0.005 C 
HETATM    4  C4  BCR T 101     -31.598 126.846   4.685  1.00 43.70     0.034 C 
HETATM    5  C5  BCR T 101     -32.331 127.801   5.544  1.00 45.79    -0.077 C 
HETATM    6  C6  BCR T 101     -33.667 127.991   5.534  1.00 40.49    -0.048 C 
HETATM    7  C7  BCR T 101     -34.305 128.930   6.472  1.00 44.14     0.009 C 
HETATM    8  C8  BCR T 101     -35.312 129.765   6.199  1.00 36.42     0.007 C 
HETATM    9  C9  BCR T 101     -35.732 130.758   7.193  1.00 37.41    -0.062 C 
HETATM   10  C10 BCR T 101     -37.019 131.135   7.228  1.00 30.62     0.007 C 
HETATM   11  C11 BCR T 101     -37.641 131.953   8.227  1.00 28.97     0.001 C 
HETATM   12  C33 BCR T 101     -31.421 128.549   6.452  1.00 43.90     0.044 C 
HETATM   13  C31 BCR T 101     -35.709 126.599   5.373  1.00 32.30     0.020 C 
HETATM   14  C32 BCR T 101     -35.035 128.096   3.519  1.00 43.93     0.020 C 
HETATM   15  C34 BCR T 101     -34.794 131.113   8.290  1.00 35.44     0.048 C 
HETATM   16  C12 BCR T 101     -38.740 132.646   7.897  1.00 28.42     0.007 C 
HETATM   17  C13 BCR T 101     -39.379 133.665   8.728  1.00 29.67    -0.062 C 
HETATM   18  C14 BCR T 101     -40.688 133.971   8.536  1.00 27.65     0.007 C 
HETATM   19  C15 BCR T 101     -41.262 135.300   8.608  1.00 28.48     0.001 C 
HETATM   20  C16 BCR T 101     -42.525 135.493   9.027  1.00 25.66     0.001 C 
HETATM   21  C17 BCR T 101     -43.214 136.749   8.824  1.00 31.53     0.007 C 
HETATM   22  C18 BCR T 101     -44.538 136.965   8.937  1.00 35.11    -0.062 C 
HETATM   23  C19 BCR T 101     -44.994 138.278   9.387  1.00 31.55     0.007 C 
HETATM   24  C20 BCR T 101     -46.146 138.841   9.002  1.00 33.30     0.001 C 
HETATM   25  C21 BCR T 101     -46.470 140.210   9.368  1.00 34.76     0.007 C 
HETATM   26  C22 BCR T 101     -47.585 140.912   9.053  1.00 38.40    -0.062 C 
HETATM   27  C23 BCR T 101     -47.521 142.367   9.200  1.00 37.30     0.007 C 
HETATM   28  C24 BCR T 101     -48.566 143.192   9.118  1.00 34.14     0.009 C 
HETATM   29  C25 BCR T 101     -48.431 144.647   9.186  1.00 34.41    -0.048 C 
HETATM   30  C26 BCR T 101     -47.852 145.247  10.224  1.00 30.82    -0.077 C 
HETATM   31  C27 BCR T 101     -47.608 146.679  10.393  1.00 38.31     0.034 C 
HETATM   32  C28 BCR T 101     -47.709 147.410   9.084  1.00 33.34     0.005 C 
HETATM   33  C29 BCR T 101     -48.947 146.975   8.389  1.00 23.88     0.014 C 
HETATM   34  C30 BCR T 101     -48.970 145.472   8.063  1.00 29.76    -0.020 C 
HETATM   35  C35 BCR T 101     -38.523 134.481   9.614  1.00 34.50     0.048 C 
HETATM   36  C36 BCR T 101     -45.543 135.959   8.524  1.00 32.52     0.048 C 
HETATM   37  C37 BCR T 101     -48.915 140.271   8.926  1.00 33.52     0.048 C 
HETATM   38  C38 BCR T 101     -47.302 144.541  11.378  1.00 36.86     0.044 C 
HETATM   39  C39 BCR T 101     -48.271 145.163   6.751  1.00 35.69     0.020 C 
HETATM   40  C40 BCR T 101     -50.433 145.150   7.827  1.00 29.24     0.020 C 
ENDROOT
TORSDOF 10
