REMARK VINA RESULT:    -8.465      0.000      0.000
REMARK INTER + INTRA:         -13.429
REMARK INTER:                  -8.465
REMARK INTRA:                  -4.964
REMARK UNBOUND:                -4.964
REMARK  0 active torsions:
REMARK  status: ('A' for Active; 'I' for Inactive)
REMARK       I    between atoms: C6_6  and  C7_7 
REMARK       I    between atoms: C8_8  and  C9_9 
REMARK       I    between atoms: C10_10  and  C11_11 
REMARK       I    between atoms: C12_16  and  C13_17 
REMARK       I    between atoms: C14_18  and  C15_19 
REMARK       I    between atoms: C16_20  and  C17_21 
REMARK       I    between atoms: C18_22  and  C19_23 
REMARK       I    between atoms: C20_24  and  C21_25 
REMARK       I    between atoms: C22_26  and  C23_27 
REMARK       I    between atoms: C24_28  and  C25_29 
ROOT
HETATM    1  C1  BCR C 515     -32.601 129.306   6.923  1.00 33.76    -0.020 C 
HETATM    2  C2  BCR C 515     -31.630 128.223   6.500  1.00 33.74     0.014 C 
HETATM    3  C3  BCR C 515     -31.975 127.674   5.144  1.00 33.67     0.005 C 
HETATM    4  C4  BCR C 515     -33.400 127.194   5.041  1.00 33.69     0.034 C 
HETATM    5  C5  BCR C 515     -34.347 127.904   5.929  1.00 33.72    -0.077 C 
HETATM    6  C6  BCR C 515     -34.019 128.884   6.772  1.00 33.76    -0.048 C 
HETATM    7  C7  BCR C 515     -35.014 129.516   7.634  1.00 33.87     0.009 C 
HETATM    8  C8  BCR C 515     -35.630 130.661   7.348  1.00 34.01     0.007 C 
HETATM    9  C9  BCR C 515     -36.427 131.368   8.332  1.00 34.09    -0.062 C 
HETATM   10  C10 BCR C 515     -37.366 132.221   7.917  1.00 34.13     0.007 C 
HETATM   11  C11 BCR C 515     -38.014 133.205   8.750  1.00 34.14     0.001 C 
HETATM   12  C33 BCR C 515     -35.735 127.444   5.771  1.00 33.67     0.044 C 
HETATM   13  C31 BCR C 515     -32.288 130.535   6.087  1.00 33.78     0.020 C 
HETATM   14  C32 BCR C 515     -32.296 129.600   8.375  1.00 33.75     0.020 C 
HETATM   15  C34 BCR C 515     -36.361 130.892   9.729  1.00 34.15     0.048 C 
HETATM   16  C12 BCR C 515     -39.000 133.930   8.220  1.00 34.13     0.007 C 
HETATM   17  C13 BCR C 515     -39.799 134.916   8.910  1.00 34.08    -0.062 C 
HETATM   18  C14 BCR C 515     -40.674 135.640   8.202  1.00 33.92     0.007 C 
HETATM   19  C15 BCR C 515     -41.388 136.762   8.746  1.00 33.87     0.001 C 
HETATM   20  C16 BCR C 515     -42.215 137.473   7.979  1.00 33.76     0.001 C 
HETATM   21  C17 BCR C 515     -43.161 138.333   8.623  1.00 33.69     0.007 C 
HETATM   22  C18 BCR C 515     -43.636 139.479   8.131  1.00 33.60    -0.062 C 
HETATM   23  C19 BCR C 515     -44.533 140.267   8.952  1.00 33.52     0.007 C 
HETATM   24  C20 BCR C 515     -45.165 141.354   8.513  1.00 33.41     0.001 C 
HETATM   25  C21 BCR C 515     -45.916 142.159   9.442  1.00 33.33     0.007 C 
HETATM   26  C22 BCR C 515     -46.587 143.268   9.122  1.00 33.23    -0.062 C 
HETATM   27  C23 BCR C 515     -47.266 144.013  10.171  1.00 33.14     0.007 C 
HETATM   28  C24 BCR C 515     -48.222 144.920   9.947  1.00 33.02     0.009 C 
HETATM   29  C25 BCR C 515     -48.905 145.717  10.974  1.00 32.98    -0.048 C 
HETATM   30  C26 BCR C 515     -49.913 145.231  11.708  1.00 32.96    -0.077 C 
HETATM   31  C27 BCR C 515     -50.663 145.956  12.761  1.00 32.93     0.034 C 
HETATM   32  C28 BCR C 515     -49.949 147.208  13.202  1.00 32.96     0.005 C 
HETATM   33  C29 BCR C 515     -49.446 147.945  11.996  1.00 32.98     0.014 C 
HETATM   34  C30 BCR C 515     -48.452 147.135  11.179  1.00 33.02    -0.020 C 
HETATM   35  C35 BCR C 515     -39.851 134.931  10.383  1.00 34.12     0.048 C 
HETATM   36  C36 BCR C 515     -43.379 139.892   6.742  1.00 33.59     0.048 C 
HETATM   37  C37 BCR C 515     -46.603 143.762   7.736  1.00 33.23     0.048 C 
HETATM   38  C38 BCR C 515     -50.447 143.865  11.574  1.00 32.96     0.044 C 
HETATM   39  C39 BCR C 515     -47.078 147.197  11.819  1.00 33.04     0.020 C 
HETATM   40  C40 BCR C 515     -48.353 147.890   9.859  1.00 33.02     0.020 C 
ENDROOT
TORSDOF 10
