REMARK VINA RESULT:    -9.566      2.463     16.097
REMARK INTER + INTRA:          -9.847
REMARK INTER:                  -8.170
REMARK INTRA:                  -1.677
REMARK UNBOUND:                -0.281
REMARK  0 active torsions:
REMARK  status: ('A' for Active; 'I' for Inactive)
REMARK       I    between atoms: C6_6  and  C7_7 
REMARK       I    between atoms: C8_8  and  C9_9 
REMARK       I    between atoms: C10_10  and  C11_11 
REMARK       I    between atoms: C12_16  and  C13_17 
REMARK       I    between atoms: C14_18  and  C15_19 
REMARK       I    between atoms: C16_20  and  C17_21 
REMARK       I    between atoms: C18_22  and  C19_23 
REMARK       I    between atoms: C20_24  and  C21_25 
REMARK       I    between atoms: C22_26  and  C23_27 
REMARK       I    between atoms: C24_28  and  C25_29 
ROOT
HETATM    1  C1  BCR F 101     -34.745 128.157   7.625  1.00 41.36    -0.020 C 
HETATM    2  C2  BCR F 101     -33.329 127.609   7.646  1.00 46.22     0.014 C 
HETATM    3  C3  BCR F 101     -32.442 128.286   6.648  1.00 40.40     0.005 C 
HETATM    4  C4  BCR F 101     -32.415 129.765   6.903  1.00 37.04     0.034 C 
HETATM    5  C5  BCR F 101     -33.789 130.321   6.918  1.00 43.37    -0.077 C 
HETATM    6  C6  BCR F 101     -34.853 129.594   7.261  1.00 36.67    -0.048 C 
HETATM    7  C7  BCR F 101     -36.199 130.130   7.263  1.00 37.51     0.009 C 
HETATM    8  C8  BCR F 101     -36.536 131.095   8.106  1.00 40.99     0.007 C 
HETATM    9  C9  BCR F 101     -37.826 131.742   8.043  1.00 37.99    -0.062 C 
HETATM   10  C10 BCR F 101     -37.969 132.915   8.673  1.00 32.67     0.007 C 
HETATM   11  C11 BCR F 101     -39.185 133.703   8.738  1.00 30.31     0.001 C 
HETATM   12  C33 BCR F 101     -33.882 131.756   6.494  1.00 36.33     0.044 C 
HETATM   13  C31 BCR F 101     -35.330 127.914   8.987  1.00 51.06     0.020 C 
HETATM   14  C32 BCR F 101     -35.557 127.302   6.670  1.00 43.35     0.020 C 
HETATM   15  C34 BCR F 101     -38.800 131.182   7.082  1.00 39.55     0.048 C 
HETATM   16  C12 BCR F 101     -39.142 134.909   9.334  1.00 29.21     0.007 C 
HETATM   17  C13 BCR F 101     -40.259 135.826   9.342  1.00 31.53    -0.062 C 
HETATM   18  C14 BCR F 101     -40.026 137.111   9.631  1.00 36.47     0.007 C 
HETATM   19  C15 BCR F 101     -41.042 138.123   9.842  1.00 33.10     0.001 C 
HETATM   20  C16 BCR F 101     -40.683 139.335  10.324  1.00 33.82     0.001 C 
HETATM   21  C17 BCR F 101     -41.606 140.450  10.211  1.00 36.91     0.007 C 
HETATM   22  C18 BCR F 101     -41.401 141.747  10.513  1.00 32.34    -0.062 C 
HETATM   23  C19 BCR F 101     -42.473 142.685  10.238  1.00 30.12     0.007 C 
HETATM   24  C20 BCR F 101     -42.369 143.999  10.468  1.00 37.50     0.001 C 
HETATM   25  C21 BCR F 101     -43.305 144.933   9.873  1.00 38.83     0.007 C 
HETATM   26  C22 BCR F 101     -43.460 146.225  10.227  1.00 38.49    -0.062 C 
HETATM   27  C23 BCR F 101     -44.589 146.971   9.718  1.00 39.36     0.007 C 
HETATM   28  C24 BCR F 101     -44.934 148.162  10.224  1.00 56.86     0.009 C 
HETATM   29  C25 BCR F 101     -45.798 149.134   9.561  1.00 57.44    -0.048 C 
HETATM   30  C26 BCR F 101     -45.312 150.289   9.117  1.00 61.92    -0.077 C 
HETATM   31  C27 BCR F 101     -46.103 151.308   8.425  1.00 63.69     0.034 C 
HETATM   32  C28 BCR F 101     -47.204 150.612   7.677  1.00 63.72     0.005 C 
HETATM   33  C29 BCR F 101     -48.033 149.872   8.685  1.00 59.25     0.014 C 
HETATM   34  C30 BCR F 101     -47.254 148.806   9.427  1.00 65.60    -0.020 C 
HETATM   35  C35 BCR F 101     -41.497 135.429   8.631  1.00 33.23     0.048 C 
HETATM   36  C36 BCR F 101     -40.101 142.310  10.914  1.00 21.57     0.048 C 
HETATM   37  C37 BCR F 101     -42.403 146.998  10.893  1.00 27.86     0.048 C 
HETATM   38  C38 BCR F 101     -43.892 150.674   9.244  1.00 68.49     0.044 C 
HETATM   39  C39 BCR F 101     -47.461 147.456   8.766  1.00 75.29     0.020 C 
HETATM   40  C40 BCR F 101     -47.913 148.731  10.801  1.00 67.84     0.020 C 
ENDROOT
TORSDOF 10
