REMARK VINA RESULT:    -6.898      0.000      0.000
REMARK INTER + INTRA:         -11.388
REMARK INTER:                  -6.898
REMARK INTRA:                  -4.490
REMARK UNBOUND:                -4.490
REMARK  0 active torsions:
REMARK  status: ('A' for Active; 'I' for Inactive)
REMARK       I    between atoms: C6_6  and  C7_7 
REMARK       I    between atoms: C8_8  and  C9_9 
REMARK       I    between atoms: C10_10  and  C11_11 
REMARK       I    between atoms: C12_16  and  C13_17 
REMARK       I    between atoms: C14_18  and  C15_19 
REMARK       I    between atoms: C16_20  and  C17_21 
REMARK       I    between atoms: C18_22  and  C19_23 
REMARK       I    between atoms: C20_24  and  C21_25 
REMARK       I    between atoms: C22_26  and  C23_27 
REMARK       I    between atoms: C24_28  and  C25_29 
ROOT
HETATM    1  C1  BCR C 521     -34.375 127.587   5.649  1.00 25.41    -0.020 C 
HETATM    2  C2  BCR C 521     -33.644 126.650   4.707  1.00 25.41     0.014 C 
HETATM    3  C3  BCR C 521     -32.435 127.320   4.135  1.00 25.43     0.005 C 
HETATM    4  C4  BCR C 521     -31.482 127.690   5.234  1.00 25.42     0.034 C 
HETATM    5  C5  BCR C 521     -32.158 128.383   6.351  1.00 25.39    -0.077 C 
HETATM    6  C6  BCR C 521     -33.485 128.369   6.558  1.00 25.36    -0.048 C 
HETATM    7  C7  BCR C 521     -34.127 129.049   7.697  1.00 25.24     0.009 C 
HETATM    8  C8  BCR C 521     -34.464 130.344   7.712  1.00 25.11     0.007 C 
HETATM    9  C9  BCR C 521     -35.012 131.037   8.867  1.00 24.97    -0.062 C 
HETATM   10  C10 BCR C 521     -35.469 132.288   8.735  1.00 24.81     0.007 C 
HETATM   11  C11 BCR C 521     -36.605 132.823   9.437  1.00 24.63     0.001 C 
HETATM   12  C33 BCR C 521     -31.212 129.116   7.212  1.00 25.41     0.044 C 
HETATM   13  C31 BCR C 521     -35.340 126.740   6.450  1.00 25.43     0.020 C 
HETATM   14  C32 BCR C 521     -35.169 128.518   4.760  1.00 25.43     0.020 C 
HETATM   15  C34 BCR C 521     -34.970 130.361  10.171  1.00 25.01     0.048 C 
HETATM   16  C12 BCR C 521     -37.024 134.060   9.166  1.00 24.42     0.007 C 
HETATM   17  C13 BCR C 521     -38.044 134.769   9.898  1.00 24.27    -0.062 C 
HETATM   18  C14 BCR C 521     -38.608 135.828   9.297  1.00 24.10     0.007 C 
HETATM   19  C15 BCR C 521     -39.490 136.794   9.894  1.00 23.91     0.001 C 
HETATM   20  C16 BCR C 521     -39.883 137.898   9.235  1.00 23.67     0.001 C 
HETATM   21  C17 BCR C 521     -40.990 138.666   9.748  1.00 23.46     0.007 C 
HETATM   22  C18 BCR C 521     -41.458 139.833   9.280  1.00 23.29    -0.062 C 
HETATM   23  C19 BCR C 521     -42.651 140.401   9.886  1.00 23.13     0.007 C 
HETATM   24  C20 BCR C 521     -43.211 141.553   9.505  1.00 22.94     0.001 C 
HETATM   25  C21 BCR C 521     -44.375 142.058  10.194  1.00 22.80     0.007 C 
HETATM   26  C22 BCR C 521     -45.436 142.669   9.650  1.00 22.66    -0.062 C 
HETATM   27  C23 BCR C 521     -46.667 142.836  10.414  1.00 22.58     0.007 C 
HETATM   28  C24 BCR C 521     -47.585 143.727  10.021  1.00 22.47     0.009 C 
HETATM   29  C25 BCR C 521     -48.777 144.181  10.730  1.00 22.43    -0.048 C 
HETATM   30  C26 BCR C 521     -48.726 145.091  11.708  1.00 22.42    -0.077 C 
HETATM   31  C27 BCR C 521     -49.878 145.599  12.474  1.00 22.43     0.034 C 
HETATM   32  C28 BCR C 521     -51.089 144.714  12.360  1.00 22.43     0.005 C 
HETATM   33  C29 BCR C 521     -51.296 144.270  10.940  1.00 22.41     0.014 C 
HETATM   34  C30 BCR C 521     -50.092 143.623  10.277  1.00 22.41    -0.020 C 
HETATM   35  C35 BCR C 521     -38.682 134.103  11.051  1.00 24.32     0.048 C 
HETATM   36  C36 BCR C 521     -40.948 140.431   8.039  1.00 23.25     0.048 C 
HETATM   37  C37 BCR C 521     -45.444 143.091   8.239  1.00 22.64     0.048 C 
HETATM   38  C38 BCR C 521     -47.487 145.713  12.212  1.00 22.40     0.044 C 
HETATM   39  C39 BCR C 521     -50.207 143.744   8.770  1.00 22.38     0.020 C 
HETATM   40  C40 BCR C 521     -50.221 142.139  10.594  1.00 22.38     0.020 C 
ENDROOT
TORSDOF 10
