REMARK VINA RESULT:    -7.962      2.719      4.639
REMARK INTER + INTRA:         -14.793
REMARK INTER:                 -12.166
REMARK INTRA:                  -2.627
REMARK UNBOUND:                -6.830
REMARK  0 active torsions:
REMARK  status: ('A' for Active; 'I' for Inactive)
REMARK       I    between atoms: C6_6  and  C7_7 
REMARK       I    between atoms: C8_8  and  C9_9 
REMARK       I    between atoms: C10_10  and  C11_11 
REMARK       I    between atoms: C12_16  and  C13_17 
REMARK       I    between atoms: C14_18  and  C15_19 
REMARK       I    between atoms: C16_20  and  C17_21 
REMARK       I    between atoms: C18_22  and  C19_23 
REMARK       I    between atoms: C20_24  and  C21_25 
REMARK       I    between atoms: C22_26  and  C23_27 
REMARK       I    between atoms: C24_28  and  C25_29 
ROOT
HETATM    1  C1  BCR C 515     -34.445 127.136   5.913  1.00 32.23    -0.020 C 
HETATM    2  C2  BCR C 515     -33.109 126.483   5.625  1.00 37.78     0.014 C 
HETATM    3  C3  BCR C 515     -31.891 127.359   5.926  1.00 45.00     0.005 C 
HETATM    4  C4  BCR C 515     -32.100 128.818   6.193  1.00 59.48     0.034 C 
HETATM    5  C5  BCR C 515     -33.228 128.910   7.162  1.00 57.44    -0.077 C 
HETATM    6  C6  BCR C 515     -34.375 128.265   6.907  1.00 39.14    -0.048 C 
HETATM    7  C7  BCR C 515     -35.611 128.821   7.489  1.00 38.26     0.009 C 
HETATM    8  C8  BCR C 515     -35.865 130.163   7.431  1.00 38.22     0.007 C 
HETATM    9  C9  BCR C 515     -37.126 130.722   7.959  1.00 35.71    -0.062 C 
HETATM   10  C10 BCR C 515     -37.310 132.086   7.940  1.00 34.83     0.007 C 
HETATM   11  C11 BCR C 515     -38.450 132.830   8.471  1.00 34.31     0.001 C 
HETATM   12  C33 BCR C 515     -32.943 129.682   8.450  1.00 52.94     0.044 C 
HETATM   13  C31 BCR C 515     -35.423 126.063   6.302  1.00 31.56     0.020 C 
HETATM   14  C32 BCR C 515     -34.942 127.740   4.610  1.00 40.32     0.020 C 
HETATM   15  C34 BCR C 515     -38.113 129.790   8.604  1.00 33.98     0.048 C 
HETATM   16  C12 BCR C 515     -38.494 134.214   8.393  1.00 35.08     0.007 C 
HETATM   17  C13 BCR C 515     -39.632 135.047   8.915  1.00 29.52    -0.062 C 
HETATM   18  C14 BCR C 515     -39.798 136.323   8.513  1.00 31.26     0.007 C 
HETATM   19  C15 BCR C 515     -40.860 137.227   8.907  1.00 33.53     0.001 C 
HETATM   20  C16 BCR C 515     -40.940 138.490   8.456  1.00 33.16     0.001 C 
HETATM   21  C17 BCR C 515     -42.036 139.286   8.959  1.00 28.73     0.007 C 
HETATM   22  C18 BCR C 515     -42.296 140.566   8.579  1.00 39.95    -0.062 C 
HETATM   23  C19 BCR C 515     -43.452 141.238   9.243  1.00 34.36     0.007 C 
HETATM   24  C20 BCR C 515     -43.719 142.538   9.150  1.00 34.09     0.001 C 
HETATM   25  C21 BCR C 515     -44.841 143.105   9.859  1.00 39.52     0.007 C 
HETATM   26  C22 BCR C 515     -45.210 144.405   9.838  1.00 32.90    -0.062 C 
HETATM   27  C23 BCR C 515     -46.328 144.810  10.694  1.00 33.38     0.007 C 
HETATM   28  C24 BCR C 515     -46.440 146.064  11.147  1.00 33.00     0.009 C 
HETATM   29  C25 BCR C 515     -47.432 146.431  12.179  1.00 30.17    -0.048 C 
HETATM   30  C26 BCR C 515     -48.721 146.029  12.165  1.00 29.00    -0.077 C 
HETATM   31  C27 BCR C 515     -49.688 146.362  13.289  1.00 31.78     0.034 C 
HETATM   32  C28 BCR C 515     -48.995 146.794  14.549  1.00 32.86     0.005 C 
HETATM   33  C29 BCR C 515     -47.936 147.829  14.259  1.00 30.76     0.014 C 
HETATM   34  C30 BCR C 515     -46.860 147.225  13.351  1.00 31.35    -0.020 C 
HETATM   35  C35 BCR C 515     -40.563 134.340   9.874  1.00 32.99     0.048 C 
HETATM   36  C36 BCR C 515     -41.425 141.257   7.569  1.00 36.35     0.048 C 
HETATM   37  C37 BCR C 515     -44.527 145.459   9.026  1.00 35.38     0.048 C 
HETATM   38  C38 BCR C 515     -49.412 145.307  11.001  1.00 28.66     0.044 C 
HETATM   39  C39 BCR C 515     -45.953 146.260  14.098  1.00 30.19     0.020 C 
HETATM   40  C40 BCR C 515     -46.038 148.388  12.860  1.00 33.01     0.020 C 
ENDROOT
TORSDOF 10
