REMARK VINA RESULT:    -5.785      3.026      5.990
REMARK INTER + INTRA:         -13.057
REMARK INTER:                 -10.368
REMARK INTRA:                  -2.689
REMARK UNBOUND:                -7.272
REMARK  0 active torsions:
REMARK  status: ('A' for Active; 'I' for Inactive)
REMARK       I    between atoms: C6_6  and  C7_7 
REMARK       I    between atoms: C8_8  and  C9_9 
REMARK       I    between atoms: C10_10  and  C11_11 
REMARK       I    between atoms: C12_16  and  C13_17 
REMARK       I    between atoms: C14_18  and  C15_19 
REMARK       I    between atoms: C16_20  and  C17_21 
REMARK       I    between atoms: C18_22  and  C19_23 
REMARK       I    between atoms: C20_24  and  C21_25 
REMARK       I    between atoms: C22_26  and  C23_27 
REMARK       I    between atoms: C24_28  and  C25_29 
ROOT
HETATM    1  C1  BCR T 101     -33.328 128.750   6.856  1.00 32.60    -0.020 C 
HETATM    2  C2  BCR T 101     -32.144 127.820   6.695  1.00 30.90     0.014 C 
HETATM    3  C3  BCR T 101     -32.643 126.540   6.077  1.00 28.16     0.005 C 
HETATM    4  C4  BCR T 101     -33.506 125.850   7.109  1.00 29.77     0.034 C 
HETATM    5  C5  BCR T 101     -34.625 126.765   7.531  1.00 32.17    -0.077 C 
HETATM    6  C6  BCR T 101     -34.509 128.081   7.512  1.00 29.39    -0.048 C 
HETATM    7  C7  BCR T 101     -35.590 128.863   8.152  1.00 28.67     0.009 C 
HETATM    8  C8  BCR T 101     -36.408 129.659   7.469  1.00 29.80     0.007 C 
HETATM    9  C9  BCR T 101     -37.510 130.435   8.073  1.00 31.04    -0.062 C 
HETATM   10  C10 BCR T 101     -37.649 131.756   7.826  1.00 28.41     0.007 C 
HETATM   11  C11 BCR T 101     -38.729 132.578   8.385  1.00 26.93     0.001 C 
HETATM   12  C33 BCR T 101     -35.919 126.177   7.994  1.00 33.39     0.044 C 
HETATM   13  C31 BCR T 101     -33.710 129.217   5.463  1.00 27.27     0.020 C 
HETATM   14  C32 BCR T 101     -32.959 129.924   7.737  1.00 36.11     0.020 C 
HETATM   15  C34 BCR T 101     -38.507 129.723   8.926  1.00 28.67     0.048 C 
HETATM   16  C12 BCR T 101     -38.844 133.858   8.021  1.00 30.79     0.007 C 
HETATM   17  C13 BCR T 101     -39.894 134.769   8.539  1.00 29.61    -0.062 C 
HETATM   18  C14 BCR T 101     -39.715 136.092   8.443  1.00 22.63     0.007 C 
HETATM   19  C15 BCR T 101     -40.685 137.060   8.957  1.00 27.56     0.001 C 
HETATM   20  C16 BCR T 101     -40.535 138.362   8.704  1.00 31.88     0.001 C 
HETATM   21  C17 BCR T 101     -41.460 139.341   9.264  1.00 32.33     0.007 C 
HETATM   22  C18 BCR T 101     -41.443 140.655   8.979  1.00 31.34    -0.062 C 
HETATM   23  C19 BCR T 101     -42.405 141.546   9.642  1.00 29.71     0.007 C 
HETATM   24  C20 BCR T 101     -41.967 142.702  10.121  1.00 28.34     0.001 C 
HETATM   25  C21 BCR T 101     -42.887 143.611  10.787  1.00 28.44     0.007 C 
HETATM   26  C22 BCR T 101     -42.429 144.772  11.247  1.00 29.84    -0.062 C 
HETATM   27  C23 BCR T 101     -43.327 145.706  11.933  1.00 28.52     0.007 C 
HETATM   28  C24 BCR T 101     -42.910 146.252  13.067  1.00 29.55     0.009 C 
HETATM   29  C25 BCR T 101     -43.660 147.189  13.929  1.00 32.84    -0.048 C 
HETATM   30  C26 BCR T 101     -44.844 146.868  14.445  1.00 34.45    -0.077 C 
HETATM   31  C27 BCR T 101     -45.100 147.087  15.915  1.00 26.80     0.034 C 
HETATM   32  C28 BCR T 101     -43.962 147.875  16.530  1.00 27.07     0.005 C 
HETATM   33  C29 BCR T 101     -43.613 149.025  15.602  1.00 27.30     0.014 C 
HETATM   34  C30 BCR T 101     -43.008 148.480  14.323  1.00 29.51    -0.020 C 
HETATM   35  C35 BCR T 101     -41.146 134.231   9.153  1.00 26.61     0.048 C 
HETATM   36  C36 BCR T 101     -40.488 141.238   7.991  1.00 26.15     0.048 C 
HETATM   37  C37 BCR T 101     -40.985 145.104  11.072  1.00 37.78     0.048 C 
HETATM   38  C38 BCR T 101     -45.950 146.283  13.625  1.00 31.59     0.044 C 
HETATM   39  C39 BCR T 101     -41.536 148.213  14.574  1.00 30.31     0.020 C 
HETATM   40  C40 BCR T 101     -43.189 149.472  13.195  1.00 28.93     0.020 C 
ENDROOT
TORSDOF 10
