REMARK VINA RESULT:    -8.186      2.955      4.705
REMARK INTER + INTRA:         -11.727
REMARK INTER:                  -7.321
REMARK INTRA:                  -4.406
REMARK UNBOUND:                -3.542
REMARK  0 active torsions:
REMARK  status: ('A' for Active; 'I' for Inactive)
REMARK       I    between atoms: C6_6  and  C7_7 
REMARK       I    between atoms: C8_8  and  C9_9 
REMARK       I    between atoms: C10_10  and  C11_11 
REMARK       I    between atoms: C12_16  and  C13_17 
REMARK       I    between atoms: C14_18  and  C15_19 
REMARK       I    between atoms: C16_20  and  C17_21 
REMARK       I    between atoms: C18_22  and  C19_23 
REMARK       I    between atoms: C20_24  and  C21_25 
REMARK       I    between atoms: C22_26  and  C23_27 
REMARK       I    between atoms: C24_28  and  C25_29 
ROOT
HETATM    1  C1  BCR C 515     -32.475 129.167   6.827  1.00 39.71    -0.020 C 
HETATM    2  C2  BCR C 515     -31.634 128.099   6.157  1.00 40.37     0.014 C 
HETATM    3  C3  BCR C 515     -32.352 127.562   4.942  1.00 43.17     0.005 C 
HETATM    4  C4  BCR C 515     -33.610 126.865   5.408  1.00 48.98     0.034 C 
HETATM    5  C5  BCR C 515     -34.478 127.834   6.168  1.00 42.59    -0.077 C 
HETATM    6  C6  BCR C 515     -33.953 128.848   6.856  1.00 38.03    -0.048 C 
HETATM    7  C7  BCR C 515     -34.820 129.693   7.702  1.00 39.13     0.009 C 
HETATM    8  C8  BCR C 515     -35.673 130.615   7.264  1.00 40.01     0.007 C 
HETATM    9  C9  BCR C 515     -36.485 131.386   8.227  1.00 48.45    -0.062 C 
HETATM   10  C10 BCR C 515     -37.374 132.279   7.784  1.00 46.14     0.007 C 
HETATM   11  C11 BCR C 515     -38.205 133.068   8.690  1.00 42.52     0.001 C 
HETATM   12  C33 BCR C 515     -35.957 127.603   6.131  1.00 41.43     0.044 C 
HETATM   13  C31 BCR C 515     -32.267 130.475   6.091  1.00 36.91     0.020 C 
HETATM   14  C32 BCR C 515     -31.989 129.330   8.255  1.00 47.25     0.020 C 
HETATM   15  C34 BCR C 515     -36.304 131.190   9.703  1.00 41.23     0.048 C 
HETATM   16  C12 BCR C 515     -38.810 134.151   8.217  1.00 42.82     0.007 C 
HETATM   17  C13 BCR C 515     -39.698 135.012   9.020  1.00 44.74    -0.062 C 
HETATM   18  C14 BCR C 515     -40.534 135.818   8.358  1.00 43.56     0.007 C 
HETATM   19  C15 BCR C 515     -41.482 136.696   9.021  1.00 39.26     0.001 C 
HETATM   20  C16 BCR C 515     -42.276 137.456   8.277  1.00 40.16     0.001 C 
HETATM   21  C17 BCR C 515     -43.252 138.318   8.925  1.00 42.34     0.007 C 
HETATM   22  C18 BCR C 515     -43.950 139.252   8.274  1.00 44.22    -0.062 C 
HETATM   23  C19 BCR C 515     -44.920 140.037   9.052  1.00 48.96     0.007 C 
HETATM   24  C20 BCR C 515     -45.587 141.074   8.569  1.00 51.51     0.001 C 
HETATM   25  C21 BCR C 515     -46.511 141.712   9.492  1.00 48.83     0.007 C 
HETATM   26  C22 BCR C 515     -47.103 142.876   9.232  1.00 46.78    -0.062 C 
HETATM   27  C23 BCR C 515     -48.021 143.413  10.240  1.00 46.17     0.007 C 
HETATM   28  C24 BCR C 515     -48.882 144.381   9.957  1.00 45.08     0.009 C 
HETATM   29  C25 BCR C 515     -49.813 144.907  10.973  1.00 45.02    -0.048 C 
HETATM   30  C26 BCR C 515     -50.847 144.171  11.380  1.00 46.86    -0.077 C 
HETATM   31  C27 BCR C 515     -51.765 144.612  12.493  1.00 50.72     0.034 C 
HETATM   32  C28 BCR C 515     -51.086 145.653  13.351  1.00 55.86     0.005 C 
HETATM   33  C29 BCR C 515     -50.656 146.776  12.434  1.00 52.85     0.014 C 
HETATM   34  C30 BCR C 515     -49.560 146.295  11.496  1.00 52.22    -0.020 C 
HETATM   35  C35 BCR C 515     -39.685 134.991  10.520  1.00 45.43     0.048 C 
HETATM   36  C36 BCR C 515     -43.764 139.484   6.807  1.00 42.28     0.048 C 
HETATM   37  C37 BCR C 515     -46.833 143.604   7.955  1.00 46.03     0.048 C 
HETATM   38  C38 BCR C 515     -51.151 142.853  10.730  1.00 45.04     0.044 C 
HETATM   39  C39 BCR C 515     -48.233 146.294  12.236  1.00 52.25     0.020 C 
HETATM   40  C40 BCR C 515     -49.488 147.223  10.300  1.00 47.46     0.020 C 
ENDROOT
TORSDOF 10
