REMARK VINA RESULT:    -9.522      0.000      0.000
REMARK INTER + INTRA:         -14.070
REMARK INTER:                  -9.522
REMARK INTRA:                  -4.549
REMARK UNBOUND:                -4.549
REMARK  0 active torsions:
REMARK  status: ('A' for Active; 'I' for Inactive)
REMARK       I    between atoms: C6_6  and  C7_7 
REMARK       I    between atoms: C8_8  and  C9_9 
REMARK       I    between atoms: C10_10  and  C11_11 
REMARK       I    between atoms: C12_16  and  C13_17 
REMARK       I    between atoms: C14_18  and  C15_19 
REMARK       I    between atoms: C16_20  and  C17_21 
REMARK       I    between atoms: C18_22  and  C19_23 
REMARK       I    between atoms: C20_24  and  C21_25 
REMARK       I    between atoms: C22_26  and  C23_27 
REMARK       I    between atoms: C24_28  and  C25_29 
ROOT
HETATM    1  C1  BCR K 101     -34.303 126.748   5.775  1.00 53.78    -0.020 C 
HETATM    2  C2  BCR K 101     -33.453 125.850   4.898  1.00 52.63     0.014 C 
HETATM    3  C3  BCR K 101     -32.727 126.699   3.873  1.00 48.62     0.005 C 
HETATM    4  C4  BCR K 101     -31.729 127.612   4.554  1.00 47.69     0.034 C 
HETATM    5  C5  BCR K 101     -32.249 128.122   5.874  1.00 49.41    -0.077 C 
HETATM    6  C6  BCR K 101     -33.463 127.860   6.347  1.00 51.74    -0.048 C 
HETATM    7  C7  BCR K 101     -33.997 128.667   7.467  1.00 48.65     0.009 C 
HETATM    8  C8  BCR K 101     -34.845 129.668   7.233  1.00 52.02     0.007 C 
HETATM    9  C9  BCR K 101     -35.429 130.531   8.281  1.00 47.61    -0.062 C 
HETATM   10  C10 BCR K 101     -36.454 131.331   7.959  1.00 50.88     0.007 C 
HETATM   11  C11 BCR K 101     -37.095 132.249   8.897  1.00 48.28     0.001 C 
HETATM   12  C33 BCR K 101     -31.340 128.969   6.692  1.00 47.21     0.044 C 
HETATM   13  C31 BCR K 101     -34.919 125.980   6.933  1.00 51.09     0.020 C 
HETATM   14  C32 BCR K 101     -35.398 127.329   4.896  1.00 55.13     0.020 C 
HETATM   15  C34 BCR K 101     -34.891 130.520   9.675  1.00 45.70     0.048 C 
HETATM   16  C12 BCR K 101     -37.991 133.080   8.376  1.00 55.39     0.007 C 
HETATM   17  C13 BCR K 101     -38.724 134.120   9.125  1.00 52.90    -0.062 C 
HETATM   18  C14 BCR K 101     -39.664 134.830   8.473  1.00 52.56     0.007 C 
HETATM   19  C15 BCR K 101     -40.431 135.914   9.088  1.00 51.27     0.001 C 
HETATM   20  C16 BCR K 101     -41.178 136.705   8.314  1.00 51.24     0.001 C 
HETATM   21  C17 BCR K 101     -41.940 137.813   8.891  1.00 52.13     0.007 C 
HETATM   22  C18 BCR K 101     -42.668 138.676   8.162  1.00 46.79    -0.062 C 
HETATM   23  C19 BCR K 101     -43.366 139.759   8.871  1.00 43.89     0.007 C 
HETATM   24  C20 BCR K 101     -43.779 140.885   8.288  1.00 44.27     0.001 C 
HETATM   25  C21 BCR K 101     -44.434 141.865   9.152  1.00 43.76     0.007 C 
HETATM   26  C22 BCR K 101     -45.184 142.908   8.753  1.00 47.16    -0.062 C 
HETATM   27  C23 BCR K 101     -45.744 143.755   9.813  1.00 46.79     0.007 C 
HETATM   28  C24 BCR K 101     -46.828 144.491   9.613  1.00 42.76     0.009 C 
HETATM   29  C25 BCR K 101     -47.360 145.305  10.718  1.00 46.43    -0.048 C 
HETATM   30  C26 BCR K 101     -47.783 144.728  11.850  1.00 46.40    -0.077 C 
HETATM   31  C27 BCR K 101     -47.821 145.457  13.168  1.00 46.16     0.034 C 
HETATM   32  C28 BCR K 101     -47.477 146.924  12.982  1.00 49.08     0.005 C 
HETATM   33  C29 BCR K 101     -48.098 147.458  11.704  1.00 48.65     0.014 C 
HETATM   34  C30 BCR K 101     -47.420 146.796  10.519  1.00 50.07    -0.020 C 
HETATM   35  C35 BCR K 101     -38.389 134.414  10.555  1.00 46.59     0.048 C 
HETATM   36  C36 BCR K 101     -42.766 138.559   6.674  1.00 47.08     0.048 C 
HETATM   37  C37 BCR K 101     -45.476 143.215   7.313  1.00 37.98     0.048 C 
HETATM   38  C38 BCR K 101     -48.273 143.314  11.857  1.00 46.50     0.044 C 
HETATM   39  C39 BCR K 101     -45.994 147.303  10.373  1.00 51.74     0.020 C 
HETATM   40  C40 BCR K 101     -48.194 147.084   9.244  1.00 46.40     0.020 C 
ENDROOT
TORSDOF 10
