REMARK VINA RESULT:    -7.177      0.897     16.456
REMARK INTER + INTRA:         -11.750
REMARK INTER:                  -8.734
REMARK INTRA:                  -3.016
REMARK UNBOUND:                -4.573
REMARK  0 active torsions:
REMARK  status: ('A' for Active; 'I' for Inactive)
REMARK       I    between atoms: C6_6  and  C7_7 
REMARK       I    between atoms: C8_8  and  C9_9 
REMARK       I    between atoms: C10_10  and  C11_11 
REMARK       I    between atoms: C12_16  and  C13_17 
REMARK       I    between atoms: C14_18  and  C15_19 
REMARK       I    between atoms: C16_20  and  C17_21 
REMARK       I    between atoms: C18_22  and  C19_23 
REMARK       I    between atoms: C20_24  and  C21_25 
REMARK       I    between atoms: C22_26  and  C23_27 
REMARK       I    between atoms: C24_28  and  C25_29 
ROOT
HETATM    1  C1  BCR C 514     -32.215 130.042   7.520  1.00 35.58    -0.020 C 
HETATM    2  C2  BCR C 514     -31.430 128.950   6.876  1.00 41.22     0.014 C 
HETATM    3  C3  BCR C 514     -31.975 128.478   5.559  1.00 43.51     0.005 C 
HETATM    4  C4  BCR C 514     -33.427 128.085   5.635  1.00 41.68     0.034 C 
HETATM    5  C5  BCR C 514     -34.249 128.899   6.608  1.00 42.53    -0.077 C 
HETATM    6  C6  BCR C 514     -33.697 129.750   7.516  1.00 37.16    -0.048 C 
HETATM    7  C7  BCR C 514     -34.539 130.507   8.456  1.00 40.52     0.009 C 
HETATM    8  C8  BCR C 514     -35.461 131.348   7.953  1.00 40.92     0.007 C 
HETATM    9  C9  BCR C 514     -36.258 132.223   8.889  1.00 42.01    -0.062 C 
HETATM   10  C10 BCR C 514     -37.112 133.067   8.375  1.00 37.28     0.007 C 
HETATM   11  C11 BCR C 514     -37.970 133.943   9.193  1.00 41.23     0.001 C 
HETATM   12  C33 BCR C 514     -35.689 128.488   6.612  1.00 40.30     0.044 C 
HETATM   13  C31 BCR C 514     -32.044 131.293   6.667  1.00 39.42     0.020 C 
HETATM   14  C32 BCR C 514     -31.686 130.168   8.970  1.00 41.23     0.020 C 
HETATM   15  C34 BCR C 514     -36.144 132.067  10.392  1.00 46.73     0.048 C 
HETATM   16  C12 BCR C 514     -38.866 134.739   8.610  1.00 43.50     0.007 C 
HETATM   17  C13 BCR C 514     -39.801 135.603   9.334  1.00 41.12    -0.062 C 
HETATM   18  C14 BCR C 514     -40.640 136.390   8.619  1.00 37.55     0.007 C 
HETATM   19  C15 BCR C 514     -41.658 137.311   9.219  1.00 39.88     0.001 C 
HETATM   20  C16 BCR C 514     -42.394 138.107   8.438  1.00 39.12     0.001 C 
HETATM   21  C17 BCR C 514     -43.408 139.005   8.977  1.00 41.68     0.007 C 
HETATM   22  C18 BCR C 514     -44.125 139.978   8.346  1.00 39.37    -0.062 C 
HETATM   23  C19 BCR C 514     -45.104 140.786   9.139  1.00 44.12     0.007 C 
HETATM   24  C20 BCR C 514     -45.832 141.813   8.644  1.00 37.68     0.001 C 
HETATM   25  C21 BCR C 514     -46.757 142.552   9.535  1.00 39.34     0.007 C 
HETATM   26  C22 BCR C 514     -47.370 143.704   9.133  1.00 42.90    -0.062 C 
HETATM   27  C23 BCR C 514     -48.267 144.368  10.126  1.00 39.44     0.007 C 
HETATM   28  C24 BCR C 514     -48.833 145.593   9.815  1.00 55.37     0.009 C 
HETATM   29  C25 BCR C 514     -49.608 146.201  10.925  1.00 47.75    -0.048 C 
HETATM   30  C26 BCR C 514     -50.425 145.470  11.659  1.00 47.05    -0.077 C 
HETATM   31  C27 BCR C 514     -50.720 145.849  13.071  1.00 57.69     0.034 C 
HETATM   32  C28 BCR C 514     -51.276 147.229  13.034  1.00 50.11     0.005 C 
HETATM   33  C29 BCR C 514     -50.395 148.202  12.262  1.00 48.72     0.014 C 
HETATM   34  C30 BCR C 514     -49.324 147.604  11.360  1.00 46.83    -0.020 C 
HETATM   35  C35 BCR C 514     -39.850 135.497  10.829  1.00 42.11     0.048 C 
HETATM   36  C36 BCR C 514     -43.977 140.209   6.879  1.00 38.24     0.048 C 
HETATM   37  C37 BCR C 514     -47.223 144.225   7.726  1.00 31.50     0.048 C 
HETATM   38  C38 BCR C 514     -51.202 144.309  11.171  1.00 38.56     0.044 C 
HETATM   39  C39 BCR C 514     -47.988 147.545  12.124  1.00 46.44     0.020 C 
HETATM   40  C40 BCR C 514     -49.161 148.462  10.114  1.00 48.77     0.020 C 
ENDROOT
TORSDOF 10
