REMARK VINA RESULT:    -6.138      1.657     16.254
REMARK INTER + INTRA:         -11.102
REMARK INTER:                  -6.953
REMARK INTRA:                  -4.149
REMARK UNBOUND:                -4.964
REMARK  0 active torsions:
REMARK  status: ('A' for Active; 'I' for Inactive)
REMARK       I    between atoms: C6_6  and  C7_7 
REMARK       I    between atoms: C8_8  and  C9_9 
REMARK       I    between atoms: C10_10  and  C11_11 
REMARK       I    between atoms: C12_16  and  C13_17 
REMARK       I    between atoms: C14_18  and  C15_19 
REMARK       I    between atoms: C16_20  and  C17_21 
REMARK       I    between atoms: C18_22  and  C19_23 
REMARK       I    between atoms: C20_24  and  C21_25 
REMARK       I    between atoms: C22_26  and  C23_27 
REMARK       I    between atoms: C24_28  and  C25_29 
ROOT
HETATM    1  C1  BCR C 515     -45.026 147.685  11.409  1.00 33.76    -0.020 C 
HETATM    2  C2  BCR C 515     -45.753 148.908  11.928  1.00 33.74     0.014 C 
HETATM    3  C3  BCR C 515     -46.194 148.723  13.353  1.00 33.67     0.005 C 
HETATM    4  C4  BCR C 515     -47.013 147.476  13.566  1.00 33.69     0.034 C 
HETATM    5  C5  BCR C 515     -46.697 146.373  12.631  1.00 33.72    -0.077 C 
HETATM    6  C6  BCR C 515     -45.783 146.429  11.661  1.00 33.76    -0.048 C 
HETATM    7  C7  BCR C 515     -45.551 145.301  10.764  1.00 33.87     0.009 C 
HETATM    8  C8  BCR C 515     -44.580 144.404  10.927  1.00 34.01     0.007 C 
HETATM    9  C9  BCR C 515     -44.240 143.446   9.892  1.00 34.09    -0.062 C 
HETATM   10  C10 BCR C 515     -43.617 142.316  10.231  1.00 34.13     0.007 C 
HETATM   11  C11 BCR C 515     -42.954 141.429   9.306  1.00 34.14     0.001 C 
HETATM   12  C33 BCR C 515     -47.481 145.157  12.895  1.00 33.67     0.044 C 
HETATM   13  C31 BCR C 515     -43.661 147.663  12.074  1.00 33.78     0.020 C 
HETATM   14  C32 BCR C 515     -44.853 147.898   9.921  1.00 33.75     0.020 C 
HETATM   15  C34 BCR C 515     -44.859 143.634   8.563  1.00 34.15     0.048 C 
HETATM   16  C12 BCR C 515     -42.451 140.287   9.777  1.00 34.13     0.007 C 
HETATM   17  C13 BCR C 515     -41.806 139.255   8.999  1.00 34.08    -0.062 C 
HETATM   18  C14 BCR C 515     -41.252 138.221   9.643  1.00 33.92     0.007 C 
HETATM   19  C15 BCR C 515     -40.437 137.234   8.990  1.00 33.87     0.001 C 
HETATM   20  C16 BCR C 515     -39.875 136.250   9.692  1.00 33.76     0.001 C 
HETATM   21  C17 BCR C 515     -39.383 135.109   8.979  1.00 33.69     0.007 C 
HETATM   22  C18 BCR C 515     -38.348 134.348   9.342  1.00 33.60    -0.062 C 
HETATM   23  C19 BCR C 515     -37.936 133.274   8.463  1.00 33.52     0.007 C 
HETATM   24  C20 BCR C 515     -37.006 132.377   8.786  1.00 33.41     0.001 C 
HETATM   25  C21 BCR C 515     -36.553 131.438   7.791  1.00 33.33     0.007 C 
HETATM   26  C22 BCR C 515     -35.627 130.498   7.995  1.00 33.23    -0.062 C 
HETATM   27  C23 BCR C 515     -35.228 129.644   6.887  1.00 33.14     0.007 C 
HETATM   28  C24 BCR C 515     -34.583 128.482   7.030  1.00 33.02     0.009 C 
HETATM   29  C25 BCR C 515     -34.132 127.612   5.938  1.00 32.98    -0.048 C 
HETATM   30  C26 BCR C 515     -34.956 126.767   5.305  1.00 32.96    -0.077 C 
HETATM   31  C27 BCR C 515     -34.596 125.850   4.198  1.00 32.93     0.034 C 
HETATM   32  C28 BCR C 515     -33.268 126.207   3.580  1.00 32.96     0.005 C 
HETATM   33  C29 BCR C 515     -32.275 126.498   4.666  1.00 32.98     0.014 C 
HETATM   34  C30 BCR C 515     -32.684 127.672   5.542  1.00 33.02    -0.020 C 
HETATM   35  C35 BCR C 515     -41.996 139.198   7.538  1.00 34.12     0.048 C 
HETATM   36  C36 BCR C 515     -37.707 134.489  10.659  1.00 33.59     0.048 C 
HETATM   37  C37 BCR C 515     -34.979 130.354   9.309  1.00 33.23     0.048 C 
HETATM   38  C38 BCR C 515     -36.386 126.614   5.627  1.00 32.96     0.044 C 
HETATM   39  C39 BCR C 515     -32.347 128.980   4.851  1.00 33.04     0.020 C 
HETATM   40  C40 BCR C 515     -31.765 127.571   6.753  1.00 33.02     0.020 C 
ENDROOT
TORSDOF 10
