REMARK VINA RESULT:    -8.271      0.403     16.720
REMARK INTER + INTRA:         -14.154
REMARK INTER:                  -8.610
REMARK INTRA:                  -5.544
REMARK UNBOUND:                -5.883
REMARK  0 active torsions:
REMARK  status: ('A' for Active; 'I' for Inactive)
REMARK       I    between atoms: C6_6  and  C7_7 
REMARK       I    between atoms: C8_8  and  C9_9 
REMARK       I    between atoms: C10_10  and  C11_11 
REMARK       I    between atoms: C12_16  and  C13_17 
REMARK       I    between atoms: C14_18  and  C15_19 
REMARK       I    between atoms: C16_20  and  C17_21 
REMARK       I    between atoms: C18_22  and  C19_23 
REMARK       I    between atoms: C20_24  and  C21_25 
REMARK       I    between atoms: C22_26  and  C23_27 
REMARK       I    between atoms: C24_28  and  C25_29 
ROOT
HETATM    1  C1  BCR B 619     -50.181 150.642   8.075  1.00 29.78    -0.020 C 
HETATM    2  C2  BCR B 619     -51.456 151.326   7.599  1.00 32.88     0.014 C 
HETATM    3  C3  BCR B 619     -52.174 150.507   6.562  1.00 32.12     0.005 C 
HETATM    4  C4  BCR B 619     -52.586 149.153   7.071  1.00 29.37     0.034 C 
HETATM    5  C5  BCR B 619     -51.508 148.505   7.935  1.00 26.51    -0.077 C 
HETATM    6  C6  BCR B 619     -50.381 149.147   8.351  1.00 26.75    -0.048 C 
HETATM    7  C7  BCR B 619     -49.261 148.428   9.004  1.00 27.16     0.009 C 
HETATM    8  C8  BCR B 619     -48.864 147.191   8.712  1.00 26.20     0.007 C 
HETATM    9  C9  BCR B 619     -47.715 146.552   9.310  1.00 20.49    -0.062 C 
HETATM   10  C10 BCR B 619     -47.340 145.362   8.804  1.00 22.41     0.007 C 
HETATM   11  C11 BCR B 619     -46.160 144.609   9.206  1.00 20.79     0.001 C 
HETATM   12  C33 BCR B 619     -51.849 147.093   8.379  1.00 26.02     0.044 C 
HETATM   13  C31 BCR B 619     -49.723 151.350   9.315  1.00 32.38     0.020 C 
HETATM   14  C32 BCR B 619     -49.107 150.741   6.985  1.00 28.82     0.020 C 
HETATM   15  C34 BCR B 619     -47.041 147.260  10.456  1.00 20.53     0.048 C 
HETATM   16  C12 BCR B 619     -45.788 143.488   8.540  1.00 22.97     0.007 C 
HETATM   17  C13 BCR B 619     -44.592 142.667   8.918  1.00 24.26    -0.062 C 
HETATM   18  C14 BCR B 619     -44.313 141.522   8.218  1.00 21.19     0.007 C 
HETATM   19  C15 BCR B 619     -43.210 140.574   8.503  1.00 24.01     0.001 C 
HETATM   20  C16 BCR B 619     -43.058 139.412   7.796  1.00 22.73     0.001 C 
HETATM   21  C17 BCR B 619     -41.986 138.495   8.170  1.00 24.34     0.007 C 
HETATM   22  C18 BCR B 619     -41.735 137.262   7.573  1.00 23.72    -0.062 C 
HETATM   23  C19 BCR B 619     -40.579 136.445   8.066  1.00 24.63     0.007 C 
HETATM   24  C20 BCR B 619     -40.269 135.209   7.604  1.00 25.42     0.001 C 
HETATM   25  C21 BCR B 619     -39.162 134.448   8.172  1.00 24.42     0.007 C 
HETATM   26  C22 BCR B 619     -38.803 133.176   7.914  1.00 28.11    -0.062 C 
HETATM   27  C23 BCR B 619     -37.647 132.646   8.671  1.00 27.88     0.007 C 
HETATM   28  C24 BCR B 619     -37.065 131.453   8.401  1.00 48.58     0.009 C 
HETATM   29  C25 BCR B 619     -35.790 130.880   9.047  1.00 40.96    -0.048 C 
HETATM   30  C26 BCR B 619     -35.500 130.908  10.353  1.00 43.15    -0.077 C 
HETATM   31  C27 BCR B 619     -34.161 130.476  10.941  1.00 40.16     0.034 C 
HETATM   32  C28 BCR B 619     -33.082 130.354   9.905  1.00 50.45     0.005 C 
HETATM   33  C29 BCR B 619     -33.701 129.488   8.856  1.00 52.86     0.014 C 
HETATM   34  C30 BCR B 619     -34.817 130.197   8.098  1.00 49.52    -0.020 C 
HETATM   35  C35 BCR B 619     -43.780 143.129  10.159  1.00 23.42     0.048 C 
HETATM   36  C36 BCR B 619     -42.578 136.671   6.448  1.00 23.31     0.048 C 
HETATM   37  C37 BCR B 619     -39.571 132.326   6.890  1.00 31.17     0.048 C 
HETATM   38  C38 BCR B 619     -36.534 131.249  11.382  1.00 48.43     0.044 C 
HETATM   39  C39 BCR B 619     -35.447 129.141   7.155  1.00 62.11     0.020 C 
HETATM   40  C40 BCR B 619     -34.228 131.361   7.339  1.00 46.92     0.020 C 
ENDROOT
TORSDOF 10
