REMARK VINA RESULT:    -7.731      1.503     16.299
REMARK INTER + INTRA:         -10.447
REMARK INTER:                  -7.904
REMARK INTRA:                  -2.543
REMARK UNBOUND:                -2.716
REMARK  0 active torsions:
REMARK  status: ('A' for Active; 'I' for Inactive)
REMARK       I    between atoms: C6_6  and  C7_7 
REMARK       I    between atoms: C8_8  and  C9_9 
REMARK       I    between atoms: C10_10  and  C11_11 
REMARK       I    between atoms: C12_16  and  C13_17 
REMARK       I    between atoms: C14_18  and  C15_19 
REMARK       I    between atoms: C16_20  and  C17_21 
REMARK       I    between atoms: C18_22  and  C19_23 
REMARK       I    between atoms: C20_24  and  C21_25 
REMARK       I    between atoms: C22_26  and  C23_27 
REMARK       I    between atoms: C24_28  and  C25_29 
ROOT
HETATM    1  C1  BCR B 617     -50.132 148.515   8.604  1.00 16.64    -0.020 C 
HETATM    2  C2  BCR B 617     -51.309 149.340   9.083  1.00 16.66     0.014 C 
HETATM    3  C3  BCR B 617     -52.065 148.625  10.157  1.00 16.67     0.005 C 
HETATM    4  C4  BCR B 617     -52.600 147.320   9.641  1.00 16.65     0.034 C 
HETATM    5  C5  BCR B 617     -51.583 146.554   8.887  1.00 16.64    -0.077 C 
HETATM    6  C6  BCR B 617     -50.439 147.064   8.418  1.00 16.61    -0.048 C 
HETATM    7  C7  BCR B 617     -49.463 146.263   7.656  1.00 16.52     0.009 C 
HETATM    8  C8  BCR B 617     -48.490 145.550   8.226  1.00 16.42     0.007 C 
HETATM    9  C9  BCR B 617     -47.455 144.854   7.484  1.00 16.35    -0.062 C 
HETATM   10  C10 BCR B 617     -46.577 144.079   8.132  1.00 16.25     0.007 C 
HETATM   11  C11 BCR B 617     -45.734 143.080   7.520  1.00 16.13     0.001 C 
HETATM   12  C33 BCR B 617     -51.954 145.138   8.720  1.00 16.67     0.044 C 
HETATM   13  C31 BCR B 617     -49.025 148.749   9.612  1.00 16.64     0.020 C 
HETATM   14  C32 BCR B 617     -49.706 149.106   7.279  1.00 16.66     0.020 C 
HETATM   15  C34 BCR B 617     -47.374 145.082   6.034  1.00 16.38     0.048 C 
HETATM   16  C12 BCR B 617     -44.645 142.634   8.165  1.00 15.96     0.007 C 
HETATM   17  C13 BCR B 617     -43.815 141.535   7.726  1.00 15.83    -0.062 C 
HETATM   18  C14 BCR B 617     -42.916 141.013   8.576  1.00 15.70     0.007 C 
HETATM   19  C15 BCR B 617     -42.261 139.738   8.428  1.00 15.54     0.001 C 
HETATM   20  C16 BCR B 617     -41.400 139.286   9.352  1.00 15.40     0.001 C 
HETATM   21  C17 BCR B 617     -40.585 138.130   9.065  1.00 15.27     0.007 C 
HETATM   22  C18 BCR B 617     -39.812 137.421   9.902  1.00 15.19    -0.062 C 
HETATM   23  C19 BCR B 617     -39.034 136.316   9.363  1.00 15.12     0.007 C 
HETATM   24  C20 BCR B 617     -38.303 135.488  10.110  1.00 15.10     0.001 C 
HETATM   25  C21 BCR B 617     -37.691 134.341   9.487  1.00 15.07     0.007 C 
HETATM   26  C22 BCR B 617     -36.969 133.376  10.069  1.00 15.07    -0.062 C 
HETATM   27  C23 BCR B 617     -36.142 132.561   9.201  1.00 15.08     0.007 C 
HETATM   28  C24 BCR B 617     -35.733 131.311   9.445  1.00 15.19     0.009 C 
HETATM   29  C25 BCR B 617     -34.775 130.528   8.653  1.00 15.27    -0.048 C 
HETATM   30  C26 BCR B 617     -35.070 129.994   7.456  1.00 15.33    -0.077 C 
HETATM   31  C27 BCR B 617     -34.152 129.194   6.620  1.00 15.37     0.034 C 
HETATM   32  C28 BCR B 617     -32.712 129.521   6.911  1.00 15.36     0.005 C 
HETATM   33  C29 BCR B 617     -32.457 129.514   8.392  1.00 15.31     0.014 C 
HETATM   34  C30 BCR B 617     -33.402 130.328   9.254  1.00 15.29    -0.020 C 
HETATM   35  C35 BCR B 617     -43.862 141.118   6.315  1.00 15.82     0.048 C 
HETATM   36  C36 BCR B 617     -39.788 137.637  11.364  1.00 15.16     0.048 C 
HETATM   37  C37 BCR B 617     -37.171 132.966  11.471  1.00 15.01     0.048 C 
HETATM   38  C38 BCR B 617     -36.375 130.110   6.763  1.00 15.36     0.044 C 
HETATM   39  C39 BCR B 617     -32.747 131.649   9.636  1.00 15.27     0.020 C 
HETATM   40  C40 BCR B 617     -33.476 129.513  10.536  1.00 15.28     0.020 C 
ENDROOT
TORSDOF 10
