REMARK VINA RESULT:    -8.125      1.868      3.026
REMARK INTER + INTRA:         -10.611
REMARK INTER:                  -8.487
REMARK INTRA:                  -2.124
REMARK UNBOUND:                -2.486
REMARK  0 active torsions:
REMARK  status: ('A' for Active; 'I' for Inactive)
REMARK       I    between atoms: C6_6  and  C7_7 
REMARK       I    between atoms: C8_8  and  C9_9 
REMARK       I    between atoms: C10_10  and  C11_11 
REMARK       I    between atoms: C12_16  and  C13_17 
REMARK       I    between atoms: C14_18  and  C15_19 
REMARK       I    between atoms: C16_20  and  C17_21 
REMARK       I    between atoms: C18_22  and  C19_23 
REMARK       I    between atoms: C20_24  and  C21_25 
REMARK       I    between atoms: C22_26  and  C23_27 
REMARK       I    between atoms: C24_28  and  C25_29 
ROOT
HETATM    1  C1  BCR B 616     -33.706 127.687   7.521  1.00 31.32    -0.020 C 
HETATM    2  C2  BCR B 616     -32.697 126.753   6.885  1.00 32.97     0.014 C 
HETATM    3  C3  BCR B 616     -32.061 127.458   5.709  1.00 29.93     0.005 C 
HETATM    4  C4  BCR B 616     -33.093 127.638   4.622  1.00 26.02     0.034 C 
HETATM    5  C5  BCR B 616     -34.388 128.175   5.186  1.00 31.50    -0.077 C 
HETATM    6  C6  BCR B 616     -34.664 128.231   6.502  1.00 32.71    -0.048 C 
HETATM    7  C7  BCR B 616     -35.941 128.856   6.922  1.00 27.07     0.009 C 
HETATM    8  C8  BCR B 616     -36.000 130.101   7.399  1.00 26.19     0.007 C 
HETATM    9  C9  BCR B 616     -37.272 130.759   7.771  1.00 26.80    -0.062 C 
HETATM   10  C10 BCR B 616     -37.296 132.059   8.069  1.00 24.87     0.007 C 
HETATM   11  C11 BCR B 616     -38.533 132.765   8.386  1.00 26.76     0.001 C 
HETATM   12  C33 BCR B 616     -35.388 128.652   4.178  1.00 25.10     0.044 C 
HETATM   13  C31 BCR B 616     -32.947 128.837   8.162  1.00 28.04     0.020 C 
HETATM   14  C32 BCR B 616     -34.513 126.926   8.545  1.00 25.30     0.020 C 
HETATM   15  C34 BCR B 616     -38.562 130.008   7.785  1.00 25.88     0.048 C 
HETATM   16  C12 BCR B 616     -38.441 134.056   8.693  1.00 27.03     0.007 C 
HETATM   17  C13 BCR B 616     -39.585 134.932   8.982  1.00 24.87    -0.062 C 
HETATM   18  C14 BCR B 616     -39.367 136.232   9.239  1.00 25.36     0.007 C 
HETATM   19  C15 BCR B 616     -40.460 137.167   9.487  1.00 24.12     0.001 C 
HETATM   20  C16 BCR B 616     -40.259 138.476   9.569  1.00 24.28     0.001 C 
HETATM   21  C17 BCR B 616     -41.383 139.372   9.778  1.00 25.58     0.007 C 
HETATM   22  C18 BCR B 616     -41.235 140.698   9.881  1.00 28.46    -0.062 C 
HETATM   23  C19 BCR B 616     -42.441 141.524  10.071  1.00 23.05     0.007 C 
HETATM   24  C20 BCR B 616     -42.485 142.848  10.010  1.00 21.86     0.001 C 
HETATM   25  C21 BCR B 616     -43.790 143.462  10.208  1.00 26.78     0.007 C 
HETATM   26  C22 BCR B 616     -44.085 144.751   9.993  1.00 25.31    -0.062 C 
HETATM   27  C23 BCR B 616     -45.461 145.230  10.236  1.00 19.67     0.007 C 
HETATM   28  C24 BCR B 616     -45.789 146.503  10.055  1.00 21.08     0.009 C 
HETATM   29  C25 BCR B 616     -47.135 147.072  10.293  1.00 24.69    -0.048 C 
HETATM   30  C26 BCR B 616     -48.224 146.575   9.712  1.00 24.70    -0.077 C 
HETATM   31  C27 BCR B 616     -49.590 146.864  10.269  1.00 28.87     0.034 C 
HETATM   32  C28 BCR B 616     -49.666 148.321  10.651  1.00 22.34     0.005 C 
HETATM   33  C29 BCR B 616     -48.640 148.546  11.734  1.00 23.43     0.014 C 
HETATM   34  C30 BCR B 616     -47.238 148.274  11.217  1.00 25.38    -0.020 C 
HETATM   35  C35 BCR B 616     -40.969 134.370   8.944  1.00 22.52     0.048 C 
HETATM   36  C36 BCR B 616     -39.878 141.326   9.808  1.00 21.22     0.048 C 
HETATM   37  C37 BCR B 616     -43.021 145.689   9.524  1.00 24.02     0.048 C 
HETATM   38  C38 BCR B 616     -48.171 145.730   8.479  1.00 26.85     0.044 C 
HETATM   39  C39 BCR B 616     -46.347 148.044  12.419  1.00 22.16     0.020 C 
HETATM   40  C40 BCR B 616     -46.761 149.515  10.499  1.00 23.21     0.020 C 
ENDROOT
TORSDOF 10
