REMARK VINA RESULT:    -7.639      2.504      3.692
REMARK INTER + INTRA:         -10.092
REMARK INTER:                  -6.737
REMARK INTRA:                  -3.356
REMARK UNBOUND:                -2.454
REMARK  0 active torsions:
REMARK  status: ('A' for Active; 'I' for Inactive)
REMARK       I    between atoms: C6_6  and  C7_7 
REMARK       I    between atoms: C8_8  and  C9_9 
REMARK       I    between atoms: C10_10  and  C11_11 
REMARK       I    between atoms: C12_16  and  C13_17 
REMARK       I    between atoms: C14_18  and  C15_19 
REMARK       I    between atoms: C16_20  and  C17_21 
REMARK       I    between atoms: C18_22  and  C19_23 
REMARK       I    between atoms: C20_24  and  C21_25 
REMARK       I    between atoms: C22_26  and  C23_27 
REMARK       I    between atoms: C24_28  and  C25_29 
ROOT
HETATM    1  C1  BCR C 514     -44.947 148.472  13.763  1.00 38.04    -0.020 C 
HETATM    2  C2  BCR C 514     -45.999 149.524  14.068  1.00 38.20     0.014 C 
HETATM    3  C3  BCR C 514     -47.393 149.079  13.666  1.00 33.25     0.005 C 
HETATM    4  C4  BCR C 514     -47.478 148.587  12.247  1.00 36.16     0.034 C 
HETATM    5  C5  BCR C 514     -46.275 147.851  11.724  1.00 38.48    -0.077 C 
HETATM    6  C6  BCR C 514     -45.115 147.808  12.409  1.00 37.46    -0.048 C 
HETATM    7  C7  BCR C 514     -43.923 147.092  11.885  1.00 42.89     0.009 C 
HETATM    8  C8  BCR C 514     -43.948 145.794  11.583  1.00 44.19     0.007 C 
HETATM    9  C9  BCR C 514     -42.739 145.095  11.099  1.00 46.71    -0.062 C 
HETATM   10  C10 BCR C 514     -42.807 143.760  11.016  1.00 41.97     0.007 C 
HETATM   11  C11 BCR C 514     -41.679 142.930  10.578  1.00 40.92     0.001 C 
HETATM   12  C33 BCR C 514     -46.450 147.211  10.377  1.00 41.56     0.044 C 
HETATM   13  C31 BCR C 514     -45.022 147.394  14.867  1.00 35.33     0.020 C 
HETATM   14  C32 BCR C 514     -43.615 149.247  13.783  1.00 38.77     0.020 C 
HETATM   15  C34 BCR C 514     -41.490 145.865  10.702  1.00 44.98     0.048 C 
HETATM   16  C12 BCR C 514     -41.914 141.678  10.166  1.00 44.53     0.007 C 
HETATM   17  C13 BCR C 514     -40.836 140.783   9.709  1.00 45.51    -0.062 C 
HETATM   18  C14 BCR C 514     -41.081 139.447   9.702  1.00 43.91     0.007 C 
HETATM   19  C15 BCR C 514     -40.117 138.416   9.268  1.00 44.35     0.001 C 
HETATM   20  C16 BCR C 514     -40.517 137.163   9.045  1.00 42.58     0.001 C 
HETATM   21  C17 BCR C 514     -39.600 136.106   8.610  1.00 41.40     0.007 C 
HETATM   22  C18 BCR C 514     -39.743 134.760   8.758  1.00 40.94    -0.062 C 
HETATM   23  C19 BCR C 514     -38.636 133.905   8.238  1.00 41.16     0.007 C 
HETATM   24  C20 BCR C 514     -38.719 132.587   8.039  1.00 41.17     0.001 C 
HETATM   25  C21 BCR C 514     -37.556 131.833   7.554  1.00 43.08     0.007 C 
HETATM   26  C22 BCR C 514     -37.353 130.500   7.766  1.00 46.47    -0.062 C 
HETATM   27  C23 BCR C 514     -36.104 129.943   7.169  1.00 43.42     0.007 C 
HETATM   28  C24 BCR C 514     -35.826 128.634   7.031  1.00 46.58     0.009 C 
HETATM   29  C25 BCR C 514     -34.569 128.109   6.396  1.00 45.04    -0.048 C 
HETATM   30  C26 BCR C 514     -34.436 128.080   5.038  1.00 43.97    -0.077 C 
HETATM   31  C27 BCR C 514     -33.203 127.543   4.294  1.00 42.37     0.034 C 
HETATM   32  C28 BCR C 514     -32.002 127.362   5.225  1.00 45.24     0.005 C 
HETATM   33  C29 BCR C 514     -32.380 126.801   6.594  1.00 45.27     0.014 C 
HETATM   34  C30 BCR C 514     -33.487 127.566   7.321  1.00 46.36    -0.020 C 
HETATM   35  C35 BCR C 514     -39.539 141.398   9.241  1.00 43.98     0.048 C 
HETATM   36  C36 BCR C 514     -40.905 134.091   9.467  1.00 37.85     0.048 C 
HETATM   37  C37 BCR C 514     -38.340 129.617   8.542  1.00 36.78     0.048 C 
HETATM   38  C38 BCR C 514     -35.506 128.584   4.123  1.00 35.37     0.044 C 
HETATM   39  C39 BCR C 514     -32.876 128.695   8.160  1.00 44.38     0.020 C 
HETATM   40  C40 BCR C 514     -34.170 126.563   8.250  1.00 45.05     0.020 C 
ENDROOT
TORSDOF 10
