REMARK VINA RESULT:   -10.033      1.211      1.603
REMARK INTER + INTRA:         -10.314
REMARK INTER:                  -7.887
REMARK INTRA:                  -2.427
REMARK UNBOUND:                -0.281
REMARK  0 active torsions:
REMARK  status: ('A' for Active; 'I' for Inactive)
REMARK       I    between atoms: C6_6  and  C7_7 
REMARK       I    between atoms: C8_8  and  C9_9 
REMARK       I    between atoms: C10_10  and  C11_11 
REMARK       I    between atoms: C12_16  and  C13_17 
REMARK       I    between atoms: C14_18  and  C15_19 
REMARK       I    between atoms: C16_20  and  C17_21 
REMARK       I    between atoms: C18_22  and  C19_23 
REMARK       I    between atoms: C20_24  and  C21_25 
REMARK       I    between atoms: C22_26  and  C23_27 
REMARK       I    between atoms: C24_28  and  C25_29 
ROOT
HETATM    1  C1  BCR F 101     -49.086 145.808  11.221  1.00 41.36    -0.020 C 
HETATM    2  C2  BCR F 101     -50.110 146.212  12.267  1.00 46.22     0.014 C 
HETATM    3  C3  BCR F 101     -51.105 145.127  12.537  1.00 40.40     0.005 C 
HETATM    4  C4  BCR F 101     -50.399 143.877  12.978  1.00 37.04     0.034 C 
HETATM    5  C5  BCR F 101     -49.371 143.478  11.987  1.00 43.37    -0.077 C 
HETATM    6  C6  BCR F 101     -48.759 144.359  11.194  1.00 36.67    -0.048 C 
HETATM    7  C7  BCR F 101     -47.763 143.970  10.215  1.00 37.51     0.009 C 
HETATM    8  C8  BCR F 101     -46.607 143.454  10.603  1.00 40.99     0.007 C 
HETATM    9  C9  BCR F 101     -45.651 142.934   9.652  1.00 37.99    -0.062 C 
HETATM   10  C10 BCR F 101     -44.686 142.128  10.113  1.00 32.67     0.007 C 
HETATM   11  C11 BCR F 101     -43.631 141.525   9.321  1.00 30.31     0.001 C 
HETATM   12  C33 BCR F 101     -49.096 142.005  11.937  1.00 36.33     0.044 C 
HETATM   13  C31 BCR F 101     -47.849 146.622  11.481  1.00 51.06     0.020 C 
HETATM   14  C32 BCR F 101     -49.602 146.265   9.869  1.00 43.35     0.020 C 
HETATM   15  C34 BCR F 101     -45.968 143.131   8.222  1.00 39.55     0.048 C 
HETATM   16  C12 BCR F 101     -42.788 140.662   9.917  1.00 29.21     0.007 C 
HETATM   17  C13 BCR F 101     -41.786 139.911   9.196  1.00 31.53    -0.062 C 
HETATM   18  C14 BCR F 101     -41.247 138.837   9.785  1.00 36.47     0.007 C 
HETATM   19  C15 BCR F 101     -40.125 138.075   9.278  1.00 33.10     0.001 C 
HETATM   20  C16 BCR F 101     -39.550 137.136  10.064  1.00 33.82     0.001 C 
HETATM   21  C17 BCR F 101     -38.676 136.141   9.466  1.00 36.91     0.007 C 
HETATM   22  C18 BCR F 101     -38.108 135.065  10.043  1.00 32.34    -0.062 C 
HETATM   23  C19 BCR F 101     -37.327 134.178   9.201  1.00 30.12     0.007 C 
HETATM   24  C20 BCR F 101     -36.745 133.063   9.658  1.00 37.50     0.001 C 
HETATM   25  C21 BCR F 101     -36.276 132.041   8.743  1.00 38.83     0.007 C 
HETATM   26  C22 BCR F 101     -35.458 131.016   9.059  1.00 38.49    -0.062 C 
HETATM   27  C23 BCR F 101     -34.883 130.215   8.003  1.00 39.36     0.007 C 
HETATM   28  C24 BCR F 101     -33.880 129.357   8.234  1.00 56.86     0.009 C 
HETATM   29  C25 BCR F 101     -33.489 128.267   7.344  1.00 57.44    -0.048 C 
HETATM   30  C26 BCR F 101     -33.674 126.999   7.697  1.00 61.92    -0.077 C 
HETATM   31  C27 BCR F 101     -33.330 125.850   6.857  1.00 63.69     0.034 C 
HETATM   32  C28 BCR F 101     -33.469 126.266   5.421  1.00 63.72     0.005 C 
HETATM   33  C29 BCR F 101     -32.524 127.407   5.191  1.00 59.25     0.014 C 
HETATM   34  C30 BCR F 101     -32.842 128.621   6.040  1.00 65.60    -0.020 C 
HETATM   35  C35 BCR F 101     -41.707 140.079   7.726  1.00 33.23     0.048 C 
HETATM   36  C36 BCR F 101     -38.385 134.616  11.417  1.00 21.57     0.048 C 
HETATM   37  C37 BCR F 101     -35.325 130.500  10.428  1.00 27.86     0.048 C 
HETATM   38  C38 BCR F 101     -34.284 126.594   8.978  1.00 68.49     0.044 C 
HETATM   39  C39 BCR F 101     -33.686 129.602   5.248  1.00 75.29     0.020 C 
HETATM   40  C40 BCR F 101     -31.491 129.292   6.278  1.00 67.84     0.020 C 
ENDROOT
TORSDOF 10
