REMARK VINA RESULT:    -9.362      0.000      0.000
REMARK INTER + INTRA:         -16.151
REMARK INTER:                  -9.362
REMARK INTRA:                  -6.789
REMARK UNBOUND:                -6.789
REMARK  0 active torsions:
REMARK  status: ('A' for Active; 'I' for Inactive)
REMARK       I    between atoms: C6_6  and  C7_7 
REMARK       I    between atoms: C8_8  and  C9_9 
REMARK       I    between atoms: C10_10  and  C11_11 
REMARK       I    between atoms: C12_16  and  C13_17 
REMARK       I    between atoms: C14_18  and  C15_19 
REMARK       I    between atoms: C16_20  and  C17_21 
REMARK       I    between atoms: C18_22  and  C19_23 
REMARK       I    between atoms: C20_24  and  C21_25 
REMARK       I    between atoms: C22_26  and  C23_27 
REMARK       I    between atoms: C24_28  and  C25_29 
ROOT
HETATM    1  C1  BCR C 516     -35.315 131.208   8.390  1.00 30.02    -0.020 C 
HETATM    2  C2  BCR C 516     -34.346 130.201   8.973  1.00 30.87     0.014 C 
HETATM    3  C3  BCR C 516     -33.826 130.682  10.306  1.00 30.68     0.005 C 
HETATM    4  C4  BCR C 516     -34.933 130.855  11.322  1.00 31.80     0.034 C 
HETATM    5  C5  BCR C 516     -36.194 131.376  10.694  1.00 32.46    -0.077 C 
HETATM    6  C6  BCR C 516     -36.292 131.684   9.412  1.00 30.66    -0.048 C 
HETATM    7  C7  BCR C 516     -37.425 132.473   8.926  1.00 30.01     0.009 C 
HETATM    8  C8  BCR C 516     -37.530 133.767   9.156  1.00 34.00     0.007 C 
HETATM    9  C9  BCR C 516     -38.706 134.471   8.639  1.00 33.37    -0.062 C 
HETATM   10  C10 BCR C 516     -39.052 135.628   9.192  1.00 32.41     0.007 C 
HETATM   11  C11 BCR C 516     -40.204 136.404   8.764  1.00 36.14     0.001 C 
HETATM   12  C33 BCR C 516     -37.384 131.517  11.584  1.00 28.57     0.044 C 
HETATM   13  C31 BCR C 516     -36.104 130.590   7.252  1.00 26.76     0.020 C 
HETATM   14  C32 BCR C 516     -34.568 132.418   7.870  1.00 31.67     0.020 C 
HETATM   15  C34 BCR C 516     -39.488 133.874   7.508  1.00 31.81     0.048 C 
HETATM   16  C12 BCR C 516     -40.387 137.546   9.403  1.00 35.77     0.007 C 
HETATM   17  C13 BCR C 516     -41.484 138.485   9.148  1.00 38.22    -0.062 C 
HETATM   18  C14 BCR C 516     -41.330 139.753   9.573  1.00 37.80     0.007 C 
HETATM   19  C15 BCR C 516     -42.354 140.779   9.395  1.00 32.13     0.001 C 
HETATM   20  C16 BCR C 516     -42.088 142.080   9.473  1.00 37.10     0.001 C 
HETATM   21  C17 BCR C 516     -43.204 143.002   9.293  1.00 38.20     0.007 C 
HETATM   22  C18 BCR C 516     -43.177 144.297   9.617  1.00 31.50    -0.062 C 
HETATM   23  C19 BCR C 516     -44.401 145.069   9.395  1.00 25.76     0.007 C 
HETATM   24  C20 BCR C 516     -44.556 146.362   9.616  1.00 25.99     0.001 C 
HETATM   25  C21 BCR C 516     -45.893 146.841   9.328  1.00 30.28     0.007 C 
HETATM   26  C22 BCR C 516     -46.333 148.066   9.571  1.00 28.61    -0.062 C 
HETATM   27  C23 BCR C 516     -47.725 148.388   9.246  1.00 24.47     0.007 C 
HETATM   28  C24 BCR C 516     -48.274 149.487   9.742  1.00 23.15     0.009 C 
HETATM   29  C25 BCR C 516     -49.661 149.917   9.510  1.00 23.34    -0.048 C 
HETATM   30  C26 BCR C 516     -50.158 150.169   8.296  1.00 21.26    -0.077 C 
HETATM   31  C27 BCR C 516     -51.583 150.594   8.089  1.00 23.10     0.034 C 
HETATM   32  C28 BCR C 516     -52.438 150.165   9.253  1.00 24.68     0.005 C 
HETATM   33  C29 BCR C 516     -51.845 150.689  10.534  1.00 25.94     0.014 C 
HETATM   34  C30 BCR C 516     -50.468 150.091  10.766  1.00 23.98    -0.020 C 
HETATM   35  C35 BCR C 516     -42.727 138.023   8.451  1.00 31.22     0.048 C 
HETATM   36  C36 BCR C 516     -41.961 144.920  10.210  1.00 33.32     0.048 C 
HETATM   37  C37 BCR C 516     -45.438 149.104  10.169  1.00 23.79     0.048 C 
HETATM   38  C38 BCR C 516     -49.331 150.065   7.053  1.00 23.96     0.044 C 
HETATM   39  C39 BCR C 516     -50.619 148.728  11.411  1.00 22.89     0.020 C 
HETATM   40  C40 BCR C 516     -49.674 150.980  11.703  1.00 22.73     0.020 C 
ENDROOT
TORSDOF 10
