REMARK VINA RESULT:    -7.479      2.837      4.867
REMARK INTER + INTRA:         -13.998
REMARK INTER:                 -11.078
REMARK INTRA:                  -2.920
REMARK UNBOUND:                -6.519
REMARK  0 active torsions:
REMARK  status: ('A' for Active; 'I' for Inactive)
REMARK       I    between atoms: C6_6  and  C7_7 
REMARK       I    between atoms: C8_8  and  C9_9 
REMARK       I    between atoms: C10_10  and  C11_11 
REMARK       I    between atoms: C12_16  and  C13_17 
REMARK       I    between atoms: C14_18  and  C15_19 
REMARK       I    between atoms: C16_20  and  C17_21 
REMARK       I    between atoms: C18_22  and  C19_23 
REMARK       I    between atoms: C20_24  and  C21_25 
REMARK       I    between atoms: C22_26  and  C23_27 
REMARK       I    between atoms: C24_28  and  C25_29 
ROOT
HETATM    1  C1  BCR B 620     -43.552 149.032  11.950  1.00 36.91    -0.020 C 
HETATM    2  C2  BCR B 620     -43.707 150.105  13.036  1.00 39.67     0.014 C 
HETATM    3  C3  BCR B 620     -43.624 149.603  14.463  1.00 41.86     0.005 C 
HETATM    4  C4  BCR B 620     -44.616 148.460  14.655  1.00 42.68     0.034 C 
HETATM    5  C5  BCR B 620     -44.586 147.408  13.550  1.00 42.22    -0.077 C 
HETATM    6  C6  BCR B 620     -44.096 147.654  12.314  1.00 36.96    -0.048 C 
HETATM    7  C7  BCR B 620     -44.093 146.587  11.256  1.00 35.00     0.009 C 
HETATM    8  C8  BCR B 620     -43.505 145.393  11.475  1.00 29.58     0.007 C 
HETATM    9  C9  BCR B 620     -43.437 144.347  10.453  1.00 30.24    -0.062 C 
HETATM   10  C10 BCR B 620     -42.699 143.244  10.731  1.00 30.65     0.007 C 
HETATM   11  C11 BCR B 620     -42.451 142.148   9.792  1.00 27.17     0.001 C 
HETATM   12  C33 BCR B 620     -45.152 146.061  13.902  1.00 41.60     0.044 C 
HETATM   13  C31 BCR B 620     -42.072 148.968  11.567  1.00 38.82     0.020 C 
HETATM   14  C32 BCR B 620     -44.388 149.519  10.790  1.00 34.87     0.020 C 
HETATM   15  C34 BCR B 620     -44.104 144.595   9.130  1.00 28.50     0.048 C 
HETATM   16  C12 BCR B 620     -41.716 141.129  10.250  1.00 26.65     0.007 C 
HETATM   17  C13 BCR B 620     -41.281 139.986   9.407  1.00 25.82    -0.062 C 
HETATM   18  C14 BCR B 620     -40.643 138.935  10.007  1.00 25.50     0.007 C 
HETATM   19  C15 BCR B 620     -40.078 137.783   9.291  1.00 29.12     0.001 C 
HETATM   20  C16 BCR B 620     -39.388 136.852   9.977  1.00 29.64     0.001 C 
HETATM   21  C17 BCR B 620     -38.729 135.743   9.284  1.00 26.95     0.007 C 
HETATM   22  C18 BCR B 620     -38.098 134.719   9.909  1.00 26.10    -0.062 C 
HETATM   23  C19 BCR B 620     -37.426 133.683   9.060  1.00 22.51     0.007 C 
HETATM   24  C20 BCR B 620     -36.747 132.639   9.588  1.00 23.80     0.001 C 
HETATM   25  C21 BCR B 620     -36.122 131.657   8.644  1.00 21.77     0.007 C 
HETATM   26  C22 BCR B 620     -35.433 130.536   8.956  1.00 22.57    -0.062 C 
HETATM   27  C23 BCR B 620     -34.907 129.734   7.810  1.00 24.96     0.007 C 
HETATM   28  C24 BCR B 620     -33.978 128.773   7.975  1.00 25.87     0.009 C 
HETATM   29  C25 BCR B 620     -33.517 128.041   6.779  1.00 29.04    -0.048 C 
HETATM   30  C26 BCR B 620     -32.741 128.717   5.882  1.00 31.10    -0.077 C 
HETATM   31  C27 BCR B 620     -32.208 128.081   4.591  1.00 33.58     0.034 C 
HETATM   32  C28 BCR B 620     -32.953 126.777   4.237  1.00 31.33     0.005 C 
HETATM   33  C29 BCR B 620     -33.139 125.903   5.484  1.00 32.97     0.014 C 
HETATM   34  C30 BCR B 620     -33.920 126.589   6.626  1.00 32.21    -0.020 C 
HETATM   35  C35 BCR B 620     -41.499 140.067   7.901  1.00 27.05     0.048 C 
HETATM   36  C36 BCR B 620     -38.054 134.604  11.433  1.00 25.62     0.048 C 
HETATM   37  C37 BCR B 620     -35.144 130.012  10.362  1.00 24.21     0.048 C 
HETATM   38  C38 BCR B 620     -32.388 130.172   6.148  1.00 29.41     0.044 C 
HETATM   39  C39 BCR B 620     -33.604 125.850   7.957  1.00 35.26     0.020 C 
HETATM   40  C40 BCR B 620     -35.439 126.537   6.364  1.00 30.43     0.020 C 
ENDROOT
TORSDOF 10
