REMARK VINA RESULT:    -5.437      0.341     16.080
REMARK INTER + INTRA:          -9.660
REMARK INTER:                  -6.076
REMARK INTRA:                  -3.584
REMARK UNBOUND:                -4.224
REMARK  0 active torsions:
REMARK  status: ('A' for Active; 'I' for Inactive)
REMARK       I    between atoms: C6_6  and  C7_7 
REMARK       I    between atoms: C8_8  and  C9_9 
REMARK       I    between atoms: C10_10  and  C11_11 
REMARK       I    between atoms: C12_16  and  C13_17 
REMARK       I    between atoms: C14_18  and  C15_19 
REMARK       I    between atoms: C16_20  and  C17_21 
REMARK       I    between atoms: C18_22  and  C19_23 
REMARK       I    between atoms: C20_24  and  C21_25 
REMARK       I    between atoms: C22_26  and  C23_27 
REMARK       I    between atoms: C24_28  and  C25_29 
ROOT
HETATM    1  C1  BCR C 530     -34.512 127.963   6.001  1.00 33.21    -0.020 C 
HETATM    2  C2  BCR C 530     -33.678 127.028   5.150  1.00 32.41     0.014 C 
HETATM    3  C3  BCR C 530     -32.442 127.720   4.628  1.00 36.02     0.005 C 
HETATM    4  C4  BCR C 530     -31.579 128.156   5.808  1.00 35.52     0.034 C 
HETATM    5  C5  BCR C 530     -32.354 128.837   6.935  1.00 34.68    -0.077 C 
HETATM    6  C6  BCR C 530     -33.676 128.739   7.044  1.00 31.56    -0.048 C 
HETATM    7  C7  BCR C 530     -34.493 129.411   8.082  1.00 33.72     0.009 C 
HETATM    8  C8  BCR C 530     -34.684 130.732   8.098  1.00 31.52     0.007 C 
HETATM    9  C9  BCR C 530     -35.617 131.381   9.038  1.00 34.03    -0.062 C 
HETATM   10  C10 BCR C 530     -35.879 132.710   8.900  1.00 32.90     0.007 C 
HETATM   11  C11 BCR C 530     -36.892 133.409   9.709  1.00 36.03     0.001 C 
HETATM   12  C33 BCR C 530     -31.541 129.611   7.961  1.00 35.42     0.044 C 
HETATM   13  C31 BCR C 530     -35.540 127.054   6.650  1.00 29.78     0.020 C 
HETATM   14  C32 BCR C 530     -35.230 128.978   5.092  1.00 30.50     0.020 C 
HETATM   15  C34 BCR C 530     -36.319 130.565  10.106  1.00 37.10     0.048 C 
HETATM   16  C12 BCR C 530     -37.383 134.587   9.257  1.00 33.34     0.007 C 
HETATM   17  C13 BCR C 530     -38.507 135.322   9.881  1.00 36.71    -0.062 C 
HETATM   18  C14 BCR C 530     -38.936 136.466   9.277  1.00 36.49     0.007 C 
HETATM   19  C15 BCR C 530     -40.061 137.323   9.693  1.00 36.03     0.001 C 
HETATM   20  C16 BCR C 530     -40.325 138.501   9.063  1.00 34.23     0.001 C 
HETATM   21  C17 BCR C 530     -41.463 139.331   9.472  1.00 30.97     0.007 C 
HETATM   22  C18 BCR C 530     -41.802 140.523   8.879  1.00 31.31    -0.062 C 
HETATM   23  C19 BCR C 530     -43.006 141.214   9.413  1.00 30.42     0.007 C 
HETATM   24  C20 BCR C 530     -43.637 142.262   8.871  1.00 29.22     0.001 C 
HETATM   25  C21 BCR C 530     -44.863 142.723   9.525  1.00 30.56     0.007 C 
HETATM   26  C22 BCR C 530     -45.761 143.545   8.936  1.00 31.69    -0.062 C 
HETATM   27  C23 BCR C 530     -46.985 143.936   9.676  1.00 30.90     0.007 C 
HETATM   28  C24 BCR C 530     -47.889 144.692   9.053  1.00 30.96     0.009 C 
HETATM   29  C25 BCR C 530     -49.155 145.155   9.675  1.00 33.85    -0.048 C 
HETATM   30  C26 BCR C 530     -49.123 146.088  10.662  1.00 31.45    -0.077 C 
HETATM   31  C27 BCR C 530     -50.389 146.595  11.316  1.00 29.19     0.034 C 
HETATM   32  C28 BCR C 530     -51.626 145.720  11.049  1.00 32.92     0.005 C 
HETATM   33  C29 BCR C 530     -51.685 145.382   9.553  1.00 34.47     0.014 C 
HETATM   34  C30 BCR C 530     -50.457 144.575   9.118  1.00 34.23    -0.020 C 
HETATM   35  C35 BCR C 530     -39.228 134.742  11.070  1.00 35.96     0.048 C 
HETATM   36  C36 BCR C 530     -41.052 141.108   7.694  1.00 27.59     0.048 C 
HETATM   37  C37 BCR C 530     -45.536 144.059   7.523  1.00 31.85     0.048 C 
HETATM   38  C38 BCR C 530     -47.813 146.662  11.147  1.00 30.55     0.044 C 
HETATM   39  C39 BCR C 530     -50.367 144.693   7.573  1.00 34.92     0.020 C 
HETATM   40  C40 BCR C 530     -50.631 143.116   9.531  1.00 32.99     0.020 C 
ENDROOT
TORSDOF 10
