REMARK VINA RESULT:    -6.122      0.000      0.000
REMARK INTER + INTRA:          -9.824
REMARK INTER:                  -6.122
REMARK INTRA:                  -3.702
REMARK UNBOUND:                -3.702
REMARK  0 active torsions:
REMARK  status: ('A' for Active; 'I' for Inactive)
REMARK       I    between atoms: C6_6  and  C7_7 
REMARK       I    between atoms: C8_8  and  C9_9 
REMARK       I    between atoms: C10_10  and  C11_11 
REMARK       I    between atoms: C12_16  and  C13_17 
REMARK       I    between atoms: C14_18  and  C15_19 
REMARK       I    between atoms: C16_20  and  C17_21 
REMARK       I    between atoms: C18_22  and  C19_23 
REMARK       I    between atoms: C20_24  and  C21_25 
REMARK       I    between atoms: C22_26  and  C23_27 
REMARK       I    between atoms: C24_28  and  C25_29 
ROOT
HETATM    1  C1  BCR D 404     -50.640 147.053   8.124  1.00 52.80    -0.020 C 
HETATM    2  C2  BCR D 404     -52.097 147.271   8.517  1.00 67.63     0.014 C 
HETATM    3  C3  BCR D 404     -52.496 146.440   9.719  1.00 57.68     0.005 C 
HETATM    4  C4  BCR D 404     -52.401 144.974   9.360  1.00 46.23     0.034 C 
HETATM    5  C5  BCR D 404     -51.038 144.666   8.786  1.00 56.25    -0.077 C 
HETATM    6  C6  BCR D 404     -50.228 145.590   8.222  1.00 49.41    -0.048 C 
HETATM    7  C7  BCR D 404     -48.917 145.097   7.692  1.00 51.33     0.009 C 
HETATM    8  C8  BCR D 404     -47.769 144.919   8.375  1.00 42.68     0.007 C 
HETATM    9  C9  BCR D 404     -46.588 144.359   7.672  1.00 49.43    -0.062 C 
HETATM   10  C10 BCR D 404     -45.697 143.636   8.380  1.00 48.79     0.007 C 
HETATM   11  C11 BCR D 404     -44.518 142.973   7.810  1.00 45.83     0.001 C 
HETATM   12  C33 BCR D 404     -50.609 143.230   8.854  1.00 38.15     0.044 C 
HETATM   13  C31 BCR D 404     -49.738 147.864   9.040  1.00 54.77     0.020 C 
HETATM   14  C32 BCR D 404     -50.512 147.576   6.699  1.00 49.36     0.020 C 
HETATM   15  C34 BCR D 404     -46.398 144.580   6.195  1.00 48.18     0.048 C 
HETATM   16  C12 BCR D 404     -43.810 142.178   8.622  1.00 46.75     0.007 C 
HETATM   17  C13 BCR D 404     -42.648 141.373   8.181  1.00 48.81    -0.062 C 
HETATM   18  C14 BCR D 404     -42.054 140.503   9.042  1.00 49.17     0.007 C 
HETATM   19  C15 BCR D 404     -40.954 139.597   8.678  1.00 46.20     0.001 C 
HETATM   20  C16 BCR D 404     -40.505 138.653   9.528  1.00 44.61     0.001 C 
HETATM   21  C17 BCR D 404     -39.460 137.682   9.140  1.00 52.55     0.007 C 
HETATM   22  C18 BCR D 404     -39.066 136.629   9.906  1.00 48.76    -0.062 C 
HETATM   23  C19 BCR D 404     -38.074 135.652   9.393  1.00 42.03     0.007 C 
HETATM   24  C20 BCR D 404     -37.590 134.595  10.073  1.00 44.86     0.001 C 
HETATM   25  C21 BCR D 404     -36.678 133.708   9.331  1.00 53.52     0.007 C 
HETATM   26  C22 BCR D 404     -36.201 132.507   9.728  1.00 55.83    -0.062 C 
HETATM   27  C23 BCR D 404     -35.423 131.802   8.871  1.00 57.08     0.007 C 
HETATM   28  C24 BCR D 404     -35.476 130.454   8.851  1.00 83.14     0.009 C 
HETATM   29  C25 BCR D 404     -34.718 129.552   7.925  1.00 93.70    -0.048 C 
HETATM   30  C26 BCR D 404     -35.218 129.326   6.701  1.00 98.17    -0.077 C 
HETATM   31  C27 BCR D 404     -34.521 128.426   5.708  1.00 88.54     0.034 C 
HETATM   32  C28 BCR D 404     -33.022 128.553   5.904  1.00 81.02     0.005 C 
HETATM   33  C29 BCR D 404     -32.710 128.073   7.307  1.00 74.51     0.014 C 
HETATM   34  C30 BCR D 404     -33.426 128.893   8.374  1.00 76.53    -0.020 C 
HETATM   35  C35 BCR D 404     -42.215 141.493   6.752  1.00 41.10     0.048 C 
HETATM   36  C36 BCR D 404     -39.671 136.384  11.256  1.00 43.88     0.048 C 
HETATM   37  C37 BCR D 404     -36.550 131.961  11.083  1.00 57.34     0.048 C 
HETATM   38  C38 BCR D 404     -36.503 129.974   6.269  1.00 99.96     0.044 C 
HETATM   39  C39 BCR D 404     -32.494 130.009   8.811  1.00 71.47     0.020 C 
HETATM   40  C40 BCR D 404     -33.749 127.948   9.518  1.00 72.90     0.020 C 
ENDROOT
TORSDOF 10
