REMARK VINA RESULT:    -8.664      2.239     16.385
REMARK INTER + INTRA:         -11.701
REMARK INTER:                 -10.068
REMARK INTRA:                  -1.634
REMARK UNBOUND:                -3.037
REMARK  0 active torsions:
REMARK  status: ('A' for Active; 'I' for Inactive)
REMARK       I    between atoms: C6_6  and  C7_7 
REMARK       I    between atoms: C8_8  and  C9_9 
REMARK       I    between atoms: C10_10  and  C11_11 
REMARK       I    between atoms: C12_16  and  C13_17 
REMARK       I    between atoms: C14_18  and  C15_19 
REMARK       I    between atoms: C16_20  and  C17_21 
REMARK       I    between atoms: C18_22  and  C19_23 
REMARK       I    between atoms: C20_24  and  C21_25 
REMARK       I    between atoms: C22_26  and  C23_27 
REMARK       I    between atoms: C24_28  and  C25_29 
ROOT
HETATM    1  C1  BCR A 407     -50.765 146.126   8.700  1.00 28.23    -0.020 C 
HETATM    2  C2  BCR A 407     -51.763 146.900   9.549  1.00 26.63     0.014 C 
HETATM    3  C3  BCR A 407     -51.336 146.932  11.001  1.00 25.93     0.005 C 
HETATM    4  C4  BCR A 407     -50.038 147.694  11.059  1.00 23.77     0.034 C 
HETATM    5  C5  BCR A 407     -48.999 146.992  10.239  1.00 26.68    -0.077 C 
HETATM    6  C6  BCR A 407     -49.329 146.262   9.159  1.00 30.50    -0.048 C 
HETATM    7  C7  BCR A 407     -48.269 145.596   8.369  1.00 26.48     0.009 C 
HETATM    8  C8  BCR A 407     -47.719 144.429   8.712  1.00 26.44     0.007 C 
HETATM    9  C9  BCR A 407     -46.646 143.805   7.899  1.00 31.91    -0.062 C 
HETATM   10  C10 BCR A 407     -45.860 142.862   8.446  1.00 26.39     0.007 C 
HETATM   11  C11 BCR A 407     -44.753 142.159   7.798  1.00 23.46     0.001 C 
HETATM   12  C33 BCR A 407     -47.577 147.167  10.658  1.00 20.48     0.044 C 
HETATM   13  C31 BCR A 407     -50.843 146.632   7.274  1.00 26.58     0.020 C 
HETATM   14  C32 BCR A 407     -51.159 144.666   8.780  1.00 24.38     0.020 C 
HETATM   15  C34 BCR A 407     -46.451 144.232   6.481  1.00 31.33     0.048 C 
HETATM   16  C12 BCR A 407     -44.210 141.133   8.450  1.00 19.64     0.007 C 
HETATM   17  C13 BCR A 407     -43.094 140.317   7.941  1.00 19.50    -0.062 C 
HETATM   18  C14 BCR A 407     -42.738 139.209   8.599  1.00 21.08     0.007 C 
HETATM   19  C15 BCR A 407     -41.664 138.316   8.180  1.00 20.35     0.001 C 
HETATM   20  C16 BCR A 407     -41.250 137.313   8.954  1.00 19.61     0.001 C 
HETATM   21  C17 BCR A 407     -40.205 136.414   8.475  1.00 24.39     0.007 C 
HETATM   22  C18 BCR A 407     -39.717 135.398   9.200  1.00 24.75    -0.062 C 
HETATM   23  C19 BCR A 407     -38.677 134.520   8.609  1.00 22.75     0.007 C 
HETATM   24  C20 BCR A 407     -38.074 133.504   9.228  1.00 20.02     0.001 C 
HETATM   25  C21 BCR A 407     -37.085 132.733   8.481  1.00 24.21     0.007 C 
HETATM   26  C22 BCR A 407     -36.192 131.849   8.960  1.00 23.81    -0.062 C 
HETATM   27  C23 BCR A 407     -35.278 131.145   8.013  1.00 24.49     0.007 C 
HETATM   28  C24 BCR A 407     -34.302 130.304   8.382  1.00 22.45     0.009 C 
HETATM   29  C25 BCR A 407     -33.398 129.574   7.455  1.00 22.37    -0.048 C 
HETATM   30  C26 BCR A 407     -33.811 128.411   6.935  1.00 25.07    -0.077 C 
HETATM   31  C27 BCR A 407     -32.893 127.551   6.104  1.00 22.42     0.034 C 
HETATM   32  C28 BCR A 407     -32.047 128.427   5.212  1.00 19.60     0.005 C 
HETATM   33  C29 BCR A 407     -31.231 129.387   6.045  1.00 23.51     0.014 C 
HETATM   34  C30 BCR A 407     -32.002 130.098   7.164  1.00 25.52    -0.020 C 
HETATM   35  C35 BCR A 407     -42.353 140.751   6.723  1.00 19.07     0.048 C 
HETATM   36  C36 BCR A 407     -40.228 135.186  10.588  1.00 14.49     0.048 C 
HETATM   37  C37 BCR A 407     -36.127 131.576  10.426  1.00 19.80     0.048 C 
HETATM   38  C38 BCR A 407     -35.196 127.898   7.168  1.00 20.56     0.044 C 
HETATM   39  C39 BCR A 407     -32.117 131.559   6.788  1.00 27.97     0.020 C 
HETATM   40  C40 BCR A 407     -31.132 129.974   8.391  1.00 17.98     0.020 C 
ENDROOT
TORSDOF 10
