REMARK VINA RESULT:    -9.877      0.000      0.000
REMARK INTER + INTRA:         -12.304
REMARK INTER:                  -9.877
REMARK INTRA:                  -2.428
REMARK UNBOUND:                -2.428
REMARK  0 active torsions:
REMARK  status: ('A' for Active; 'I' for Inactive)
REMARK       I    between atoms: C6_6  and  C7_7 
REMARK       I    between atoms: C8_8  and  C9_9 
REMARK       I    between atoms: C10_10  and  C11_11 
REMARK       I    between atoms: C12_16  and  C13_17 
REMARK       I    between atoms: C14_18  and  C15_19 
REMARK       I    between atoms: C16_20  and  C17_21 
REMARK       I    between atoms: C18_22  and  C19_23 
REMARK       I    between atoms: C20_24  and  C21_25 
REMARK       I    between atoms: C22_26  and  C23_27 
REMARK       I    between atoms: C24_28  and  C25_29 
ROOT
HETATM    1  C1  BCR C 515     -48.479 148.279  10.146  1.00 38.64    -0.020 C 
HETATM    2  C2  BCR C 515     -49.650 149.111  10.674  1.00 35.63     0.014 C 
HETATM    3  C3  BCR C 515     -50.429 148.423  11.782  1.00 36.63     0.005 C 
HETATM    4  C4  BCR C 515     -50.900 147.052  11.399  1.00 37.53     0.034 C 
HETATM    5  C5  BCR C 515     -49.959 146.299  10.481  1.00 37.33    -0.077 C 
HETATM    6  C6  BCR C 515     -48.869 146.842   9.908  1.00 36.93    -0.048 C 
HETATM    7  C7  BCR C 515     -47.991 146.052   8.990  1.00 39.97     0.009 C 
HETATM    8  C8  BCR C 515     -47.290 145.005   9.427  1.00 43.71     0.007 C 
HETATM    9  C9  BCR C 515     -46.407 144.186   8.574  1.00 46.26    -0.062 C 
HETATM   10  C10 BCR C 515     -45.670 143.247   9.204  1.00 44.64     0.007 C 
HETATM   11  C11 BCR C 515     -44.732 142.353   8.504  1.00 42.43     0.001 C 
HETATM   12  C33 BCR C 515     -50.352 144.875  10.226  1.00 39.04     0.044 C 
HETATM   13  C31 BCR C 515     -47.310 148.333  11.152  1.00 36.17     0.020 C 
HETATM   14  C32 BCR C 515     -48.094 148.831   8.761  1.00 37.04     0.020 C 
HETATM   15  C34 BCR C 515     -46.363 144.374   7.070  1.00 45.26     0.048 C 
HETATM   16  C12 BCR C 515     -44.364 141.210   9.084  1.00 41.87     0.007 C 
HETATM   17  C13 BCR C 515     -43.427 140.270   8.447  1.00 44.10    -0.062 C 
HETATM   18  C14 BCR C 515     -42.816 139.325   9.211  1.00 43.10     0.007 C 
HETATM   19  C15 BCR C 515     -41.856 138.350   8.661  1.00 44.95     0.001 C 
HETATM   20  C16 BCR C 515     -41.181 137.492   9.437  1.00 42.57     0.001 C 
HETATM   21  C17 BCR C 515     -40.208 136.563   8.851  1.00 44.11     0.007 C 
HETATM   22  C18 BCR C 515     -39.598 135.565   9.543  1.00 45.12    -0.062 C 
HETATM   23  C19 BCR C 515     -38.603 134.730   8.808  1.00 42.40     0.007 C 
HETATM   24  C20 BCR C 515     -37.897 133.744   9.366  1.00 44.25     0.001 C 
HETATM   25  C21 BCR C 515     -36.919 132.992   8.570  1.00 44.77     0.007 C 
HETATM   26  C22 BCR C 515     -35.981 132.143   9.063  1.00 45.45    -0.062 C 
HETATM   27  C23 BCR C 515     -35.081 131.468   8.090  1.00 43.97     0.007 C 
HETATM   28  C24 BCR C 515     -34.425 130.332   8.377  1.00 46.37     0.009 C 
HETATM   29  C25 BCR C 515     -33.549 129.657   7.370  1.00 44.97    -0.048 C 
HETATM   30  C26 BCR C 515     -34.121 128.708   6.604  1.00 43.46    -0.077 C 
HETATM   31  C27 BCR C 515     -33.382 127.922   5.529  1.00 42.55     0.034 C 
HETATM   32  C28 BCR C 515     -31.995 128.477   5.194  1.00 44.37     0.005 C 
HETATM   33  C29 BCR C 515     -31.276 129.015   6.430  1.00 46.88     0.014 C 
HETATM   34  C30 BCR C 515     -32.088 130.040   7.234  1.00 44.50    -0.020 C 
HETATM   35  C35 BCR C 515     -43.208 140.379   6.951  1.00 43.98     0.048 C 
HETATM   36  C36 BCR C 515     -39.878 135.334  11.019  1.00 37.46     0.048 C 
HETATM   37  C37 BCR C 515     -35.828 131.871  10.542  1.00 40.96     0.048 C 
HETATM   38  C38 BCR C 515     -35.574 128.379   6.818  1.00 36.94     0.044 C 
HETATM   39  C39 BCR C 515     -31.957 131.436   6.609  1.00 44.31     0.020 C 
HETATM   40  C40 BCR C 515     -31.478 130.062   8.632  1.00 48.67     0.020 C 
ENDROOT
TORSDOF 10
