REMARK VINA RESULT:    -6.690      2.150      4.224
REMARK INTER + INTRA:         -13.432
REMARK INTER:                 -10.132
REMARK INTRA:                  -3.300
REMARK UNBOUND:                -6.741
REMARK  0 active torsions:
REMARK  status: ('A' for Active; 'I' for Inactive)
REMARK       I    between atoms: C6_6  and  C7_7 
REMARK       I    between atoms: C8_8  and  C9_9 
REMARK       I    between atoms: C10_10  and  C11_11 
REMARK       I    between atoms: C12_16  and  C13_17 
REMARK       I    between atoms: C14_18  and  C15_19 
REMARK       I    between atoms: C16_20  and  C17_21 
REMARK       I    between atoms: C18_22  and  C19_23 
REMARK       I    between atoms: C20_24  and  C21_25 
REMARK       I    between atoms: C22_26  and  C23_27 
REMARK       I    between atoms: C24_28  and  C25_29 
ROOT
HETATM    1  C1  BCR A 409     -34.574 127.145   5.234  1.00 29.94    -0.020 C 
HETATM    2  C2  BCR A 409     -33.297 126.472   4.719  1.00 30.88     0.014 C 
HETATM    3  C3  BCR A 409     -32.095 127.399   4.672  1.00 32.43     0.005 C 
HETATM    4  C4  BCR A 409     -31.812 127.847   6.099  1.00 29.61     0.034 C 
HETATM    5  C5  BCR A 409     -33.053 128.366   6.818  1.00 28.91    -0.077 C 
HETATM    6  C6  BCR A 409     -34.301 128.046   6.419  1.00 28.39    -0.048 C 
HETATM    7  C7  BCR A 409     -35.525 128.559   7.131  1.00 26.60     0.009 C 
HETATM    8  C8  BCR A 409     -35.774 129.889   7.218  1.00 26.69     0.007 C 
HETATM    9  C9  BCR A 409     -37.027 130.387   7.890  1.00 26.50    -0.062 C 
HETATM   10  C10 BCR A 409     -37.258 131.732   7.842  1.00 23.70     0.007 C 
HETATM   11  C11 BCR A 409     -38.408 132.447   8.428  1.00 23.45     0.001 C 
HETATM   12  C33 BCR A 409     -32.789 129.258   8.001  1.00 28.66     0.044 C 
HETATM   13  C31 BCR A 409     -35.534 126.018   5.649  1.00 29.02     0.020 C 
HETATM   14  C32 BCR A 409     -35.269 127.904   4.094  1.00 26.94     0.020 C 
HETATM   15  C34 BCR A 409     -37.972 129.387   8.532  1.00 25.47     0.048 C 
HETATM   16  C12 BCR A 409     -38.458 133.790   8.182  1.00 22.47     0.007 C 
HETATM   17  C13 BCR A 409     -39.531 134.666   8.677  1.00 24.00    -0.062 C 
HETATM   18  C14 BCR A 409     -39.582 135.951   8.279  1.00 23.35     0.007 C 
HETATM   19  C15 BCR A 409     -40.621 136.927   8.704  1.00 23.49     0.001 C 
HETATM   20  C16 BCR A 409     -40.513 138.236   8.367  1.00 21.92     0.001 C 
HETATM   21  C17 BCR A 409     -41.617 139.112   8.755  1.00 20.40     0.007 C 
HETATM   22  C18 BCR A 409     -41.815 140.405   8.398  1.00 24.23    -0.062 C 
HETATM   23  C19 BCR A 409     -43.081 141.089   8.882  1.00 21.16     0.007 C 
HETATM   24  C20 BCR A 409     -43.172 142.409   8.863  1.00 20.36     0.001 C 
HETATM   25  C21 BCR A 409     -44.323 143.131   9.377  1.00 21.69     0.007 C 
HETATM   26  C22 BCR A 409     -44.443 144.438   9.691  1.00 22.36    -0.062 C 
HETATM   27  C23 BCR A 409     -45.774 144.929  10.175  1.00 21.97     0.007 C 
HETATM   28  C24 BCR A 409     -45.963 146.183  10.621  1.00 20.30     0.009 C 
HETATM   29  C25 BCR A 409     -47.263 146.672  11.122  1.00 19.83    -0.048 C 
HETATM   30  C26 BCR A 409     -48.376 146.636  10.317  1.00 20.22    -0.077 C 
HETATM   31  C27 BCR A 409     -49.761 147.101  10.753  1.00 20.64     0.034 C 
HETATM   32  C28 BCR A 409     -49.822 147.148  12.286  1.00 22.68     0.005 C 
HETATM   33  C29 BCR A 409     -48.643 147.994  12.781  1.00 20.94     0.014 C 
HETATM   34  C30 BCR A 409     -47.306 147.259  12.525  1.00 20.28    -0.020 C 
HETATM   35  C35 BCR A 409     -40.527 134.108   9.667  1.00 25.40     0.048 C 
HETATM   36  C36 BCR A 409     -40.779 141.181   7.606  1.00 22.76     0.048 C 
HETATM   37  C37 BCR A 409     -43.343 145.458   9.582  1.00 25.07     0.048 C 
HETATM   38  C38 BCR A 409     -48.269 146.131   8.920  1.00 20.82     0.044 C 
HETATM   39  C39 BCR A 409     -47.147 146.096  13.495  1.00 22.71     0.020 C 
HETATM   40  C40 BCR A 409     -46.160 148.277  12.709  1.00 21.64     0.020 C 
ENDROOT
TORSDOF 10
