REMARK VINA RESULT:    -4.193      2.082     16.204
REMARK INTER + INTRA:          -7.607
REMARK INTER:                  -6.557
REMARK INTRA:                  -1.050
REMARK UNBOUND:                -3.414
REMARK  0 active torsions:
REMARK  status: ('A' for Active; 'I' for Inactive)
REMARK       I    between atoms: C6_6  and  C7_7 
REMARK       I    between atoms: C8_8  and  C9_9 
REMARK       I    between atoms: C10_10  and  C11_11 
REMARK       I    between atoms: C12_16  and  C13_17 
REMARK       I    between atoms: C14_18  and  C15_19 
REMARK       I    between atoms: C16_20  and  C17_21 
REMARK       I    between atoms: C18_22  and  C19_23 
REMARK       I    between atoms: C20_24  and  C21_25 
REMARK       I    between atoms: C22_26  and  C23_27 
REMARK       I    between atoms: C24_28  and  C25_29 
ROOT
HETATM    1  C1  BCR D 403     -34.902 128.116   7.595  1.00 31.64    -0.020 C 
HETATM    2  C2  BCR D 403     -34.701 126.617   7.776  1.00 36.91     0.014 C 
HETATM    3  C3  BCR D 403     -35.994 125.850   7.552  1.00 34.30     0.005 C 
HETATM    4  C4  BCR D 403     -37.002 126.252   8.605  1.00 20.39     0.034 C 
HETATM    5  C5  BCR D 403     -37.117 127.751   8.736  1.00 30.73    -0.077 C 
HETATM    6  C6  BCR D 403     -36.172 128.608   8.278  1.00 34.13    -0.048 C 
HETATM    7  C7  BCR D 403     -36.342 130.080   8.455  1.00 22.47     0.009 C 
HETATM    8  C8  BCR D 403     -37.183 130.871   7.772  1.00 27.46     0.007 C 
HETATM    9  C9  BCR D 403     -37.241 132.315   8.099  1.00 32.57    -0.062 C 
HETATM   10  C10 BCR D 403     -38.349 133.024   7.826  1.00 21.68     0.007 C 
HETATM   11  C11 BCR D 403     -38.529 134.445   8.154  1.00 23.10     0.001 C 
HETATM   12  C33 BCR D 403     -38.359 128.242   9.432  1.00 25.91     0.044 C 
HETATM   13  C31 BCR D 403     -34.942 128.486   6.112  1.00 40.32     0.020 C 
HETATM   14  C32 BCR D 403     -33.706 128.796   8.251  1.00 29.64     0.020 C 
HETATM   15  C34 BCR D 403     -36.051 132.981   8.729  1.00 31.14     0.048 C 
HETATM   16  C12 BCR D 403     -39.746 134.945   7.914  1.00 20.09     0.007 C 
HETATM   17  C13 BCR D 403     -40.213 136.304   8.243  1.00 19.95    -0.062 C 
HETATM   18  C14 BCR D 403     -41.481 136.668   7.912  1.00 30.05     0.007 C 
HETATM   19  C15 BCR D 403     -42.060 137.968   8.288  1.00 30.83     0.001 C 
HETATM   20  C16 BCR D 403     -43.387 138.173   8.192  1.00 27.80     0.001 C 
HETATM   21  C17 BCR D 403     -44.017 139.422   8.656  1.00 19.50     0.007 C 
HETATM   22  C18 BCR D 403     -45.358 139.653   8.630  1.00 20.25    -0.062 C 
HETATM   23  C19 BCR D 403     -45.887 140.911   9.224  1.00 20.98     0.007 C 
HETATM   24  C20 BCR D 403     -47.177 141.270   9.257  1.00 19.16     0.001 C 
HETATM   25  C21 BCR D 403     -47.523 142.504   9.976  1.00 32.99     0.007 C 
HETATM   26  C22 BCR D 403     -48.767 143.000  10.128  1.00 28.53    -0.062 C 
HETATM   27  C23 BCR D 403     -48.929 144.108  10.884  1.00 31.07     0.007 C 
HETATM   28  C24 BCR D 403     -50.000 144.215  11.701  1.00 50.55     0.009 C 
HETATM   29  C25 BCR D 403     -50.259 145.353  12.636  1.00 52.69    -0.048 C 
HETATM   30  C26 BCR D 403     -49.664 145.315  13.834  1.00 59.17    -0.077 C 
HETATM   31  C27 BCR D 403     -49.857 146.412  14.848  1.00 58.46     0.034 C 
HETATM   32  C28 BCR D 403     -49.904 147.718  14.085  1.00 49.26     0.005 C 
HETATM   33  C29 BCR D 403     -51.166 147.664  13.253  1.00 44.20     0.014 C 
HETATM   34  C30 BCR D 403     -51.179 146.502  12.269  1.00 46.31    -0.020 C 
HETATM   35  C35 BCR D 403     -39.319 137.237   9.021  1.00 22.68     0.048 C 
HETATM   36  C36 BCR D 403     -46.316 138.633   8.083  1.00 19.40     0.048 C 
HETATM   37  C37 BCR D 403     -49.940 142.301   9.502  1.00 20.07     0.048 C 
HETATM   38  C38 BCR D 403     -48.766 144.171  14.203  1.00 70.87     0.044 C 
HETATM   39  C39 BCR D 403     -50.757 147.043  10.913  1.00 46.29     0.020 C 
HETATM   40  C40 BCR D 403     -52.600 145.963  12.217  1.00 32.90     0.020 C 
ENDROOT
TORSDOF 10
