REMARK VINA RESULT:    -6.200      2.305      4.150
REMARK INTER + INTRA:         -13.178
REMARK INTER:                 -10.552
REMARK INTRA:                  -2.625
REMARK UNBOUND:                -6.978
REMARK  0 active torsions:
REMARK  status: ('A' for Active; 'I' for Inactive)
REMARK       I    between atoms: C6_6  and  C7_7 
REMARK       I    between atoms: C8_8  and  C9_9 
REMARK       I    between atoms: C10_10  and  C11_11 
REMARK       I    between atoms: C12_16  and  C13_17 
REMARK       I    between atoms: C14_18  and  C15_19 
REMARK       I    between atoms: C16_20  and  C17_21 
REMARK       I    between atoms: C18_22  and  C19_23 
REMARK       I    between atoms: C20_24  and  C21_25 
REMARK       I    between atoms: C22_26  and  C23_27 
REMARK       I    between atoms: C24_28  and  C25_29 
ROOT
HETATM    1  C1  BCR A 409     -34.395 127.420   5.650  1.00 15.04    -0.020 C 
HETATM    2  C2  BCR A 409     -33.106 126.767   5.176  1.00 15.03     0.014 C 
HETATM    3  C3  BCR A 409     -31.980 127.752   5.126  1.00 15.05     0.005 C 
HETATM    4  C4  BCR A 409     -31.723 128.292   6.503  1.00 15.05     0.034 C 
HETATM    5  C5  BCR A 409     -32.971 128.776   7.135  1.00 15.05    -0.077 C 
HETATM    6  C6  BCR A 409     -34.206 128.414   6.757  1.00 15.04    -0.048 C 
HETATM    7  C7  BCR A 409     -35.412 128.927   7.433  1.00 15.04     0.009 C 
HETATM    8  C8  BCR A 409     -35.988 130.106   7.148  1.00 15.04     0.007 C 
HETATM    9  C9  BCR A 409     -37.125 130.675   7.856  1.00 15.05    -0.062 C 
HETATM   10  C10 BCR A 409     -37.440 131.961   7.661  1.00 15.04     0.007 C 
HETATM   11  C11 BCR A 409     -38.522 132.665   8.312  1.00 15.04     0.001 C 
HETATM   12  C33 BCR A 409     -32.719 129.721   8.236  1.00 15.05     0.044 C 
HETATM   13  C31 BCR A 409     -35.277 126.273   6.090  1.00 15.03     0.020 C 
HETATM   14  C32 BCR A 409     -35.046 128.058   4.439  1.00 15.04     0.020 C 
HETATM   15  C34 BCR A 409     -38.074 129.754   8.507  1.00 15.07     0.048 C 
HETATM   16  C12 BCR A 409     -38.901 133.854   7.835  1.00 15.03     0.007 C 
HETATM   17  C13 BCR A 409     -40.035 134.625   8.292  1.00 15.02    -0.062 C 
HETATM   18  C14 BCR A 409     -40.310 135.791   7.691  1.00 15.00     0.007 C 
HETATM   19  C15 BCR A 409     -41.375 136.668   8.099  1.00 14.99     0.001 C 
HETATM   20  C16 BCR A 409     -41.407 137.927   7.654  1.00 14.98     0.001 C 
HETATM   21  C17 BCR A 409     -42.529 138.749   8.005  1.00 14.98     0.007 C 
HETATM   22  C18 BCR A 409     -42.839 139.948   7.498  1.00 14.98    -0.062 C 
HETATM   23  C19 BCR A 409     -44.080 140.556   7.922  1.00 14.98     0.007 C 
HETATM   24  C20 BCR A 409     -44.292 141.869   7.849  1.00 15.00     0.001 C 
HETATM   25  C21 BCR A 409     -45.619 142.398   8.058  1.00 14.99     0.007 C 
HETATM   26  C22 BCR A 409     -45.875 143.647   8.453  1.00 14.99    -0.062 C 
HETATM   27  C23 BCR A 409     -47.187 143.978   8.981  1.00 14.97     0.007 C 
HETATM   28  C24 BCR A 409     -47.617 145.243   9.048  1.00 14.93     0.009 C 
HETATM   29  C25 BCR A 409     -48.933 145.713   9.461  1.00 14.90    -0.048 C 
HETATM   30  C26 BCR A 409     -49.981 145.722   8.631  1.00 14.90    -0.077 C 
HETATM   31  C27 BCR A 409     -51.340 146.191   8.944  1.00 14.89     0.034 C 
HETATM   32  C28 BCR A 409     -51.575 146.267  10.428  1.00 14.90     0.005 C 
HETATM   33  C29 BCR A 409     -50.402 146.925  11.101  1.00 14.91     0.014 C 
HETATM   34  C30 BCR A 409     -49.064 146.243  10.858  1.00 14.90    -0.020 C 
HETATM   35  C35 BCR A 409     -40.964 134.071   9.293  1.00 15.02     0.048 C 
HETATM   36  C36 BCR A 409     -41.909 140.748   6.678  1.00 14.95     0.048 C 
HETATM   37  C37 BCR A 409     -44.943 144.745   8.141  1.00 15.00     0.048 C 
HETATM   38  C38 BCR A 409     -49.927 145.248   7.237  1.00 14.89     0.044 C 
HETATM   39  C39 BCR A 409     -48.826 145.163  11.897  1.00 14.93     0.020 C 
HETATM   40  C40 BCR A 409     -48.029 147.318  11.129  1.00 14.91     0.020 C 
ENDROOT
TORSDOF 10
