REMARK VINA RESULT:    -5.235      0.516     16.123
REMARK INTER + INTRA:          -9.782
REMARK INTER:                  -6.148
REMARK INTRA:                  -3.634
REMARK UNBOUND:                -4.548
REMARK  0 active torsions:
REMARK  status: ('A' for Active; 'I' for Inactive)
REMARK       I    between atoms: C6_6  and  C7_7 
REMARK       I    between atoms: C8_8  and  C9_9 
REMARK       I    between atoms: C10_10  and  C11_11 
REMARK       I    between atoms: C12_16  and  C13_17 
REMARK       I    between atoms: C14_18  and  C15_19 
REMARK       I    between atoms: C16_20  and  C17_21 
REMARK       I    between atoms: C18_22  and  C19_23 
REMARK       I    between atoms: C20_24  and  C21_25 
REMARK       I    between atoms: C22_26  and  C23_27 
REMARK       I    between atoms: C24_28  and  C25_29 
ROOT
HETATM    1  C1  BCR K 103     -34.493 128.020   5.989  1.00 31.33    -0.020 C 
HETATM    2  C2  BCR K 103     -33.583 127.182   5.092  1.00 30.10     0.014 C 
HETATM    3  C3  BCR K 103     -32.241 127.856   4.834  1.00 28.21     0.005 C 
HETATM    4  C4  BCR K 103     -31.516 128.111   6.135  1.00 35.14     0.034 C 
HETATM    5  C5  BCR K 103     -32.395 128.862   7.105  1.00 40.40    -0.077 C 
HETATM    6  C6  BCR K 103     -33.742 128.820   7.038  1.00 35.44    -0.048 C 
HETATM    7  C7  BCR K 103     -34.648 129.541   7.968  1.00 31.58     0.009 C 
HETATM    8  C8  BCR K 103     -34.693 130.869   8.111  1.00 28.28     0.007 C 
HETATM    9  C9  BCR K 103     -35.692 131.448   9.021  1.00 28.29    -0.062 C 
HETATM   10  C10 BCR K 103     -36.116 132.710   8.791  1.00 35.18     0.007 C 
HETATM   11  C11 BCR K 103     -37.158 133.398   9.566  1.00 34.91     0.001 C 
HETATM   12  C33 BCR K 103     -31.671 129.655   8.154  1.00 42.08     0.044 C 
HETATM   13  C31 BCR K 103     -35.463 127.097   6.713  1.00 32.49     0.020 C 
HETATM   14  C32 BCR K 103     -35.296 129.014   5.149  1.00 30.89     0.020 C 
HETATM   15  C34 BCR K 103     -36.230 130.613  10.137  1.00 32.35     0.048 C 
HETATM   16  C12 BCR K 103     -37.599 134.570   9.092  1.00 43.00     0.007 C 
HETATM   17  C13 BCR K 103     -38.700 135.368   9.680  1.00 27.42    -0.062 C 
HETATM   18  C14 BCR K 103     -39.040 136.539   9.099  1.00 27.03     0.007 C 
HETATM   19  C15 BCR K 103     -40.160 137.378   9.554  1.00 26.89     0.001 C 
HETATM   20  C16 BCR K 103     -40.428 138.576   9.011  1.00 26.54     0.001 C 
HETATM   21  C17 BCR K 103     -41.589 139.358   9.473  1.00 26.43     0.007 C 
HETATM   22  C18 BCR K 103     -41.954 140.562   8.982  1.00 31.95    -0.062 C 
HETATM   23  C19 BCR K 103     -43.177 141.199   9.539  1.00 31.47     0.007 C 
HETATM   24  C20 BCR K 103     -43.817 142.233   8.975  1.00 26.23     0.001 C 
HETATM   25  C21 BCR K 103     -45.039 142.777   9.592  1.00 25.64     0.007 C 
HETATM   26  C22 BCR K 103     -45.898 143.587   8.910  1.00 26.67    -0.062 C 
HETATM   27  C23 BCR K 103     -47.025 144.042   9.506  1.00 34.76     0.007 C 
HETATM   28  C24 BCR K 103     -47.893 144.878   8.910  1.00 34.12     0.009 C 
HETATM   29  C25 BCR K 103     -49.148 145.371   9.559  1.00 32.06    -0.048 C 
HETATM   30  C26 BCR K 103     -49.106 146.230  10.602  1.00 27.37    -0.077 C 
HETATM   31  C27 BCR K 103     -50.343 146.771  11.289  1.00 31.26     0.034 C 
HETATM   32  C28 BCR K 103     -51.612 146.017  10.909  1.00 25.08     0.005 C 
HETATM   33  C29 BCR K 103     -51.658 145.718   9.420  1.00 31.88     0.014 C 
HETATM   34  C30 BCR K 103     -50.469 144.883   8.970  1.00 32.84    -0.020 C 
HETATM   35  C35 BCR K 103     -39.465 134.817  10.848  1.00 27.76     0.048 C 
HETATM   36  C36 BCR K 103     -41.148 141.248   7.904  1.00 25.82     0.048 C 
HETATM   37  C37 BCR K 103     -45.612 143.972   7.489  1.00 29.75     0.048 C 
HETATM   38  C38 BCR K 103     -47.808 146.727  11.163  1.00 27.96     0.044 C 
HETATM   39  C39 BCR K 103     -50.389 145.004   7.457  1.00 28.93     0.020 C 
HETATM   40  C40 BCR K 103     -50.725 143.416   9.298  1.00 24.62     0.020 C 
ENDROOT
TORSDOF 10
