REMARK VINA RESULT:    -8.201      1.639     16.399
REMARK INTER + INTRA:         -10.784
REMARK INTER:                  -7.815
REMARK INTRA:                  -2.968
REMARK UNBOUND:                -2.583
REMARK  0 active torsions:
REMARK  status: ('A' for Active; 'I' for Inactive)
REMARK       I    between atoms: C6_6  and  C7_7 
REMARK       I    between atoms: C8_8  and  C9_9 
REMARK       I    between atoms: C10_10  and  C11_11 
REMARK       I    between atoms: C12_16  and  C13_17 
REMARK       I    between atoms: C14_18  and  C15_19 
REMARK       I    between atoms: C16_20  and  C17_21 
REMARK       I    between atoms: C18_22  and  C19_23 
REMARK       I    between atoms: C20_24  and  C21_25 
REMARK       I    between atoms: C22_26  and  C23_27 
REMARK       I    between atoms: C24_28  and  C25_29 
ROOT
HETATM    1  C1  BCR C 515     -33.750 127.413   7.544  1.00 64.45    -0.020 C 
HETATM    2  C2  BCR C 515     -32.724 126.513   6.876  1.00 66.34     0.014 C 
HETATM    3  C3  BCR C 515     -32.177 127.177   5.626  1.00 64.94     0.005 C 
HETATM    4  C4  BCR C 515     -33.296 127.295   4.609  1.00 69.15     0.034 C 
HETATM    5  C5  BCR C 515     -34.508 127.973   5.215  1.00 67.88    -0.077 C 
HETATM    6  C6  BCR C 515     -34.719 128.026   6.547  1.00 62.48    -0.048 C 
HETATM    7  C7  BCR C 515     -35.938 128.699   7.071  1.00 58.32     0.009 C 
HETATM    8  C8  BCR C 515     -36.047 130.025   7.220  1.00 62.07     0.007 C 
HETATM    9  C9  BCR C 515     -37.299 130.623   7.734  1.00 70.38    -0.062 C 
HETATM   10  C10 BCR C 515     -37.472 131.956   7.648  1.00 58.20     0.007 C 
HETATM   11  C11 BCR C 515     -38.664 132.678   8.108  1.00 74.05     0.001 C 
HETATM   12  C33 BCR C 515     -35.487 128.589   4.254  1.00 58.01     0.044 C 
HETATM   13  C31 BCR C 515     -32.993 128.522   8.261  1.00 56.77     0.020 C 
HETATM   14  C32 BCR C 515     -34.553 126.598   8.550  1.00 77.72     0.020 C 
HETATM   15  C34 BCR C 515     -38.357 129.734   8.328  1.00 64.61     0.048 C 
HETATM   16  C12 BCR C 515     -38.684 134.015   7.999  1.00 68.22     0.007 C 
HETATM   17  C13 BCR C 515     -39.836 134.845   8.420  1.00 69.92    -0.062 C 
HETATM   18  C14 BCR C 515     -39.775 136.183   8.265  1.00 61.13     0.007 C 
HETATM   19  C15 BCR C 515     -40.887 137.057   8.658  1.00 67.07     0.001 C 
HETATM   20  C16 BCR C 515     -40.893 138.358   8.356  1.00 65.97     0.001 C 
HETATM   21  C17 BCR C 515     -42.018 139.204   8.765  1.00 63.92     0.007 C 
HETATM   22  C18 BCR C 515     -41.967 140.548   8.669  1.00 72.24    -0.062 C 
HETATM   23  C19 BCR C 515     -43.118 141.367   9.116  1.00 72.11     0.007 C 
HETATM   24  C20 BCR C 515     -43.076 142.703   9.148  1.00 62.37     0.001 C 
HETATM   25  C21 BCR C 515     -44.258 143.410   9.641  1.00 64.97     0.007 C 
HETATM   26  C22 BCR C 515     -44.259 144.712   9.995  1.00 64.05    -0.062 C 
HETATM   27  C23 BCR C 515     -45.420 145.221  10.449  1.00 66.35     0.007 C 
HETATM   28  C24 BCR C 515     -45.701 146.516  10.640  1.00 62.33     0.009 C 
HETATM   29  C25 BCR C 515     -47.042 146.966  11.127  1.00 72.77    -0.048 C 
HETATM   30  C26 BCR C 515     -48.152 146.817  10.371  1.00 78.06    -0.077 C 
HETATM   31  C27 BCR C 515     -49.527 147.263  10.825  1.00 80.00     0.034 C 
HETATM   32  C28 BCR C 515     -49.585 147.491  12.323  1.00 71.02     0.005 C 
HETATM   33  C29 BCR C 515     -48.412 148.371  12.703  1.00 72.75     0.014 C 
HETATM   34  C30 BCR C 515     -47.117 147.605  12.500  1.00 66.18    -0.020 C 
HETATM   35  C35 BCR C 515     -41.066 134.208   9.003  1.00 51.91     0.048 C 
HETATM   36  C36 BCR C 515     -40.731 141.225   8.150  1.00 60.56     0.048 C 
HETATM   37  C37 BCR C 515     -43.020 145.553   9.868  1.00 49.66     0.048 C 
HETATM   38  C38 BCR C 515     -48.105 146.193   9.006  1.00 83.49     0.044 C 
HETATM   39  C39 BCR C 515     -47.020 146.510  13.554  1.00 61.85     0.020 C 
HETATM   40  C40 BCR C 515     -45.965 148.589  12.635  1.00 69.80     0.020 C 
ENDROOT
TORSDOF 10
