REMARK VINA RESULT:    -6.235      0.980      1.465
REMARK INTER + INTRA:         -11.263
REMARK INTER:                  -7.102
REMARK INTRA:                  -4.161
REMARK UNBOUND:                -5.028
REMARK  0 active torsions:
REMARK  status: ('A' for Active; 'I' for Inactive)
REMARK       I    between atoms: C6_6  and  C7_7 
REMARK       I    between atoms: C8_8  and  C9_9 
REMARK       I    between atoms: C10_10  and  C11_11 
REMARK       I    between atoms: C12_16  and  C13_17 
REMARK       I    between atoms: C14_18  and  C15_19 
REMARK       I    between atoms: C16_20  and  C17_21 
REMARK       I    between atoms: C18_22  and  C19_23 
REMARK       I    between atoms: C20_24  and  C21_25 
REMARK       I    between atoms: C22_26  and  C23_27 
REMARK       I    between atoms: C24_28  and  C25_29 
ROOT
HETATM    1  C1  BCR K 101     -34.377 127.993   5.767  1.00 40.94    -0.020 C 
HETATM    2  C2  BCR K 101     -33.569 126.849   5.129  1.00 37.77     0.014 C 
HETATM    3  C3  BCR K 101     -32.316 127.361   4.451  1.00 38.82     0.005 C 
HETATM    4  C4  BCR K 101     -31.410 128.111   5.402  1.00 37.64     0.034 C 
HETATM    5  C5  BCR K 101     -32.138 128.790   6.558  1.00 40.78    -0.077 C 
HETATM    6  C6  BCR K 101     -33.472 128.768   6.728  1.00 38.56    -0.048 C 
HETATM    7  C7  BCR K 101     -34.088 129.567   7.810  1.00 34.80     0.009 C 
HETATM    8  C8  BCR K 101     -35.280 130.192   7.714  1.00 30.57     0.007 C 
HETATM    9  C9  BCR K 101     -35.821 131.091   8.774  1.00 32.13    -0.062 C 
HETATM   10  C10 BCR K 101     -36.958 131.752   8.443  1.00 32.81     0.007 C 
HETATM   11  C11 BCR K 101     -37.648 132.764   9.251  1.00 29.90     0.001 C 
HETATM   12  C33 BCR K 101     -31.193 129.490   7.473  1.00 40.24     0.044 C 
HETATM   13  C31 BCR K 101     -35.511 127.294   6.579  1.00 39.98     0.020 C 
HETATM   14  C32 BCR K 101     -34.919 128.897   4.643  1.00 47.94     0.020 C 
HETATM   15  C34 BCR K 101     -35.119 131.155  10.112  1.00 34.60     0.048 C 
HETATM   16  C12 BCR K 101     -38.581 133.476   8.641  1.00 27.83     0.007 C 
HETATM   17  C13 BCR K 101     -39.324 134.561   9.302  1.00 32.22    -0.062 C 
HETATM   18  C14 BCR K 101     -40.204 135.276   8.534  1.00 33.89     0.007 C 
HETATM   19  C15 BCR K 101     -41.006 136.422   8.972  1.00 31.94     0.001 C 
HETATM   20  C16 BCR K 101     -41.738 137.157   8.096  1.00 39.08     0.001 C 
HETATM   21  C17 BCR K 101     -42.482 138.314   8.601  1.00 33.76     0.007 C 
HETATM   22  C18 BCR K 101     -43.122 139.219   7.832  1.00 31.16    -0.062 C 
HETATM   23  C19 BCR K 101     -43.820 140.378   8.447  1.00 38.37     0.007 C 
HETATM   24  C20 BCR K 101     -44.281 141.482   7.806  1.00 30.97     0.001 C 
HETATM   25  C21 BCR K 101     -44.978 142.455   8.630  1.00 34.12     0.007 C 
HETATM   26  C22 BCR K 101     -45.689 143.522   8.161  1.00 31.09    -0.062 C 
HETATM   27  C23 BCR K 101     -46.458 144.312   9.170  1.00 35.26     0.007 C 
HETATM   28  C24 BCR K 101     -47.385 145.271   8.858  1.00 36.95     0.009 C 
HETATM   29  C25 BCR K 101     -48.133 145.982   9.922  1.00 37.34    -0.048 C 
HETATM   30  C26 BCR K 101     -48.695 145.332  10.977  1.00 39.16    -0.077 C 
HETATM   31  C27 BCR K 101     -49.256 146.042  12.178  1.00 44.81     0.034 C 
HETATM   32  C28 BCR K 101     -49.122 147.535  12.151  1.00 41.82     0.005 C 
HETATM   33  C29 BCR K 101     -49.248 148.083  10.746  1.00 38.72     0.014 C 
HETATM   34  C30 BCR K 101     -48.189 147.479   9.847  1.00 39.55    -0.020 C 
HETATM   35  C35 BCR K 101     -38.979 134.871  10.719  1.00 33.34     0.048 C 
HETATM   36  C36 BCR K 101     -43.244 138.996   6.375  1.00 38.68     0.048 C 
HETATM   37  C37 BCR K 101     -45.757 143.739   6.667  1.00 36.05     0.048 C 
HETATM   38  C38 BCR K 101     -48.966 143.843  10.932  1.00 35.63     0.044 C 
HETATM   39  C39 BCR K 101     -46.774 147.957  10.255  1.00 47.34     0.020 C 
HETATM   40  C40 BCR K 101     -48.514 147.883   8.428  1.00 45.01     0.020 C 
ENDROOT
TORSDOF 10
