REMARK VINA RESULT:    -7.440      0.000      0.000
REMARK INTER + INTRA:         -14.401
REMARK INTER:                  -7.440
REMARK INTRA:                  -6.961
REMARK UNBOUND:                -6.961
REMARK  0 active torsions:
REMARK  status: ('A' for Active; 'I' for Inactive)
REMARK       I    between atoms: C6_6  and  C7_7 
REMARK       I    between atoms: C8_8  and  C9_9 
REMARK       I    between atoms: C10_10  and  C11_11 
REMARK       I    between atoms: C12_16  and  C13_17 
REMARK       I    between atoms: C14_18  and  C15_19 
REMARK       I    between atoms: C16_20  and  C17_21 
REMARK       I    between atoms: C18_22  and  C19_23 
REMARK       I    between atoms: C20_24  and  C21_25 
REMARK       I    between atoms: C22_26  and  C23_27 
REMARK       I    between atoms: C24_28  and  C25_29 
ROOT
HETATM    1  C1  BCR A 411     -34.895 131.104   8.160  1.00 29.84    -0.020 C 
HETATM    2  C2  BCR A 411     -33.774 130.194   8.651  1.00 20.54     0.014 C 
HETATM    3  C3  BCR A 411     -33.382 130.527  10.080  1.00 26.03     0.005 C 
HETATM    4  C4  BCR A 411     -34.556 130.315  11.023  1.00 20.46     0.034 C 
HETATM    5  C5  BCR A 411     -35.837 130.905  10.481  1.00 19.96    -0.077 C 
HETATM    6  C6  BCR A 411     -36.001 131.270   9.192  1.00 20.82    -0.048 C 
HETATM    7  C7  BCR A 411     -37.286 131.860   8.704  1.00 29.43     0.009 C 
HETATM    8  C8  BCR A 411     -37.663 133.101   9.068  1.00 22.26     0.007 C 
HETATM    9  C9  BCR A 411     -38.902 133.752   8.584  1.00 27.77    -0.062 C 
HETATM   10  C10 BCR A 411     -39.197 134.992   9.015  1.00 20.59     0.007 C 
HETATM   11  C11 BCR A 411     -40.378 135.761   8.588  1.00 19.27     0.001 C 
HETATM   12  C33 BCR A 411     -36.933 131.059  11.483  1.00 23.62     0.044 C 
HETATM   13  C31 BCR A 411     -35.499 130.513   6.895  1.00 28.92     0.020 C 
HETATM   14  C32 BCR A 411     -34.303 132.456   7.783  1.00 24.51     0.020 C 
HETATM   15  C34 BCR A 411     -39.808 133.046   7.609  1.00 30.91     0.048 C 
HETATM   16  C12 BCR A 411     -40.596 136.974   9.133  1.00 28.37     0.007 C 
HETATM   17  C13 BCR A 411     -41.713 137.899   8.780  1.00 25.83    -0.062 C 
HETATM   18  C14 BCR A 411     -41.681 139.178   9.233  1.00 18.99     0.007 C 
HETATM   19  C15 BCR A 411     -42.679 140.210   8.932  1.00 23.50     0.001 C 
HETATM   20  C16 BCR A 411     -42.635 141.438   9.474  1.00 25.25     0.001 C 
HETATM   21  C17 BCR A 411     -43.644 142.435   9.089  1.00 31.30     0.007 C 
HETATM   22  C18 BCR A 411     -43.645 143.718   9.517  1.00 27.73    -0.062 C 
HETATM   23  C19 BCR A 411     -44.706 144.646   9.042  1.00 16.85     0.007 C 
HETATM   24  C20 BCR A 411     -45.056 145.779   9.676  1.00 16.39     0.001 C 
HETATM   25  C21 BCR A 411     -46.139 146.574   9.082  1.00 22.31     0.007 C 
HETATM   26  C22 BCR A 411     -46.737 147.636   9.662  1.00 26.64    -0.062 C 
HETATM   27  C23 BCR A 411     -47.745 148.269   9.008  1.00 23.69     0.007 C 
HETATM   28  C24 BCR A 411     -48.462 149.272   9.543  1.00 24.10     0.009 C 
HETATM   29  C25 BCR A 411     -49.578 149.983   8.853  1.00 19.96    -0.048 C 
HETATM   30  C26 BCR A 411     -49.401 150.624   7.678  1.00 22.82    -0.077 C 
HETATM   31  C27 BCR A 411     -50.519 151.349   6.962  1.00 17.59     0.034 C 
HETATM   32  C28 BCR A 411     -51.906 150.944   7.445  1.00 18.54     0.005 C 
HETATM   33  C29 BCR A 411     -51.946 150.913   8.963  1.00 23.49     0.014 C 
HETATM   34  C30 BCR A 411     -50.930 149.947   9.561  1.00 20.77    -0.020 C 
HETATM   35  C35 BCR A 411     -42.844 137.427   7.916  1.00 25.20     0.048 C 
HETATM   36  C36 BCR A 411     -42.595 144.196  10.477  1.00 17.87     0.048 C 
HETATM   37  C37 BCR A 411     -46.294 148.085  11.020  1.00 22.45     0.048 C 
HETATM   38  C38 BCR A 411     -48.072 150.685   6.970  1.00 18.48     0.044 C 
HETATM   39  C39 BCR A 411     -51.526 148.550   9.505  1.00 15.84     0.020 C 
HETATM   40  C40 BCR A 411     -50.690 150.326  11.021  1.00 18.97     0.020 C 
ENDROOT
TORSDOF 10
