REMARK VINA RESULT:    -8.503      2.815      4.988
REMARK INTER + INTRA:         -15.103
REMARK INTER:                 -12.435
REMARK INTRA:                  -2.668
REMARK UNBOUND:                -6.599
REMARK  0 active torsions:
REMARK  status: ('A' for Active; 'I' for Inactive)
REMARK       I    between atoms: C6_6  and  C7_7 
REMARK       I    between atoms: C8_8  and  C9_9 
REMARK       I    between atoms: C10_10  and  C11_11 
REMARK       I    between atoms: C12_16  and  C13_17 
REMARK       I    between atoms: C14_18  and  C15_19 
REMARK       I    between atoms: C16_20  and  C17_21 
REMARK       I    between atoms: C18_22  and  C19_23 
REMARK       I    between atoms: C20_24  and  C21_25 
REMARK       I    between atoms: C22_26  and  C23_27 
REMARK       I    between atoms: C24_28  and  C25_29 
ROOT
HETATM    1  C1  BCR B 618     -33.869 126.988   6.945  1.00 18.61    -0.020 C 
HETATM    2  C2  BCR B 618     -32.994 126.126   6.064  1.00 18.63     0.014 C 
HETATM    3  C3  BCR B 618     -32.724 126.813   4.760  1.00 18.62     0.005 C 
HETATM    4  C4  BCR B 618     -31.995 128.111   4.982  1.00 18.60     0.034 C 
HETATM    5  C5  BCR B 618     -32.522 128.886   6.131  1.00 18.57    -0.077 C 
HETATM    6  C6  BCR B 618     -33.386 128.403   7.044  1.00 18.52    -0.048 C 
HETATM    7  C7  BCR B 618     -33.881 129.191   8.185  1.00 18.34     0.009 C 
HETATM    8  C8  BCR B 618     -34.835 130.116   8.075  1.00 18.07     0.007 C 
HETATM    9  C9  BCR B 618     -35.337 130.972   9.132  1.00 17.93    -0.062 C 
HETATM   10  C10 BCR B 618     -36.009 132.074   8.770  1.00 17.77     0.007 C 
HETATM   11  C11 BCR B 618     -36.884 132.827   9.633  1.00 17.60     0.001 C 
HETATM   12  C33 BCR B 618     -31.986 130.265   6.170  1.00 18.57     0.044 C 
HETATM   13  C31 BCR B 618     -33.907 126.310   8.298  1.00 18.66     0.020 C 
HETATM   14  C32 BCR B 618     -35.263 126.954   6.349  1.00 18.64     0.020 C 
HETATM   15  C34 BCR B 618     -35.538 130.364  10.460  1.00 17.92     0.048 C 
HETATM   16  C12 BCR B 618     -37.527 133.902   9.155  1.00 17.46     0.007 C 
HETATM   17  C13 BCR B 618     -38.221 134.872   9.970  1.00 17.39    -0.062 C 
HETATM   18  C14 BCR B 618     -38.885 135.870   9.367  1.00 17.35     0.007 C 
HETATM   19  C15 BCR B 618     -39.714 136.822  10.053  1.00 17.33     0.001 C 
HETATM   20  C16 BCR B 618     -40.330 137.804   9.382  1.00 17.39     0.001 C 
HETATM   21  C17 BCR B 618     -40.931 138.890  10.110  1.00 17.40     0.007 C 
HETATM   22  C18 BCR B 618     -41.606 139.922   9.588  1.00 17.49    -0.062 C 
HETATM   23  C19 BCR B 618     -42.295 140.798  10.507  1.00 17.57     0.007 C 
HETATM   24  C20 BCR B 618     -42.797 141.983  10.172  1.00 17.71     0.001 C 
HETATM   25  C21 BCR B 618     -43.503 142.749  11.162  1.00 17.85     0.007 C 
HETATM   26  C22 BCR B 618     -43.981 143.985  11.003  1.00 18.00    -0.062 C 
HETATM   27  C23 BCR B 618     -44.802 144.529  12.067  1.00 18.11     0.007 C 
HETATM   28  C24 BCR B 618     -45.185 145.808  12.086  1.00 18.27     0.009 C 
HETATM   29  C25 BCR B 618     -46.027 146.466  13.088  1.00 18.38    -0.048 C 
HETATM   30  C26 BCR B 618     -45.598 146.807  14.311  1.00 18.39    -0.077 C 
HETATM   31  C27 BCR B 618     -46.380 147.468  15.381  1.00 18.43     0.034 C 
HETATM   32  C28 BCR B 618     -47.831 147.705  15.039  1.00 18.45     0.005 C 
HETATM   33  C29 BCR B 618     -48.326 146.844  13.909  1.00 18.46     0.014 C 
HETATM   34  C30 BCR B 618     -47.424 146.819  12.693  1.00 18.45    -0.020 C 
HETATM   35  C35 BCR B 618     -38.457 134.587  11.399  1.00 17.31     0.048 C 
HETATM   36  C36 BCR B 618     -41.318 140.424   8.229  1.00 17.49     0.048 C 
HETATM   37  C37 BCR B 618     -43.906 144.707   9.713  1.00 18.00     0.048 C 
HETATM   38  C38 BCR B 618     -44.246 146.531  14.831  1.00 18.43     0.044 C 
HETATM   39  C39 BCR B 618     -47.443 148.140  11.941  1.00 18.49     0.020 C 
HETATM   40  C40 BCR B 618     -48.066 145.813  11.754  1.00 18.48     0.020 C 
ENDROOT
TORSDOF 10
