REMARK VINA RESULT:   -11.648      0.511     16.618
REMARK INTER + INTRA:         -14.221
REMARK INTER:                 -10.791
REMARK INTRA:                  -3.430
REMARK UNBOUND:                -2.573
REMARK  0 active torsions:
REMARK  status: ('A' for Active; 'I' for Inactive)
REMARK       I    between atoms: C6_6  and  C7_7 
REMARK       I    between atoms: C8_8  and  C9_9 
REMARK       I    between atoms: C10_10  and  C11_11 
REMARK       I    between atoms: C12_16  and  C13_17 
REMARK       I    between atoms: C14_18  and  C15_19 
REMARK       I    between atoms: C16_20  and  C17_21 
REMARK       I    between atoms: C18_22  and  C19_23 
REMARK       I    between atoms: C20_24  and  C21_25 
REMARK       I    between atoms: C22_26  and  C23_27 
REMARK       I    between atoms: C24_28  and  C25_29 
ROOT
HETATM    1  C1  BCR B 619     -47.242 147.622  12.204  1.00 43.68    -0.020 C 
HETATM    2  C2  BCR B 619     -48.077 148.511  13.134  1.00 34.01     0.014 C 
HETATM    3  C3  BCR B 619     -47.978 148.019  14.572  1.00 39.82     0.005 C 
HETATM    4  C4  BCR B 619     -46.525 147.971  15.057  1.00 35.97     0.034 C 
HETATM    5  C5  BCR B 619     -45.569 147.339  14.061  1.00 51.08    -0.077 C 
HETATM    6  C6  BCR B 619     -45.894 147.179  12.762  1.00 43.37    -0.048 C 
HETATM    7  C7  BCR B 619     -44.961 146.558  11.773  1.00 41.21     0.009 C 
HETATM    8  C8  BCR B 619     -44.604 145.270  11.821  1.00 35.08     0.007 C 
HETATM    9  C9  BCR B 619     -43.722 144.607  10.840  1.00 45.29    -0.062 C 
HETATM   10  C10 BCR B 619     -43.202 143.398  11.178  1.00 31.51     0.007 C 
HETATM   11  C11 BCR B 619     -42.346 142.528  10.347  1.00 35.87     0.001 C 
HETATM   12  C33 BCR B 619     -44.230 146.902  14.599  1.00 49.04     0.044 C 
HETATM   13  C31 BCR B 619     -46.947 148.371  10.919  1.00 38.43     0.020 C 
HETATM   14  C32 BCR B 619     -48.062 146.373  11.908  1.00 45.87     0.020 C 
HETATM   15  C34 BCR B 619     -43.500 145.272   9.501  1.00 32.59     0.048 C 
HETATM   16  C12 BCR B 619     -42.168 141.229  10.698  1.00 32.79     0.007 C 
HETATM   17  C13 BCR B 619     -41.330 140.283   9.896  1.00 41.33    -0.062 C 
HETATM   18  C14 BCR B 619     -40.971 139.074  10.415  1.00 31.13     0.007 C 
HETATM   19  C15 BCR B 619     -40.155 138.015   9.775  1.00 39.90     0.001 C 
HETATM   20  C16 BCR B 619     -39.773 136.862  10.388  1.00 29.90     0.001 C 
HETATM   21  C17 BCR B 619     -38.966 135.866   9.647  1.00 33.57     0.007 C 
HETATM   22  C18 BCR B 619     -38.450 134.701  10.129  1.00 38.90    -0.062 C 
HETATM   23  C19 BCR B 619     -37.669 133.832   9.210  1.00 36.01     0.007 C 
HETATM   24  C20 BCR B 619     -36.937 132.761   9.575  1.00 41.69     0.001 C 
HETATM   25  C21 BCR B 619     -36.224 132.008   8.526  1.00 46.52     0.007 C 
HETATM   26  C22 BCR B 619     -35.538 130.859   8.725  1.00 47.59    -0.062 C 
HETATM   27  C23 BCR B 619     -34.919 130.237   7.686  1.00 54.77     0.007 C 
HETATM   28  C24 BCR B 619     -34.134 129.150   7.830  1.00 45.04     0.009 C 
HETATM   29  C25 BCR B 619     -33.411 128.388   6.749  1.00 40.91    -0.048 C 
HETATM   30  C26 BCR B 619     -32.362 128.876   6.065  1.00 51.20    -0.077 C 
HETATM   31  C27 BCR B 619     -31.681 128.048   5.013  1.00 53.77     0.034 C 
HETATM   32  C28 BCR B 619     -32.748 127.334   4.219  1.00 56.12     0.005 C 
HETATM   33  C29 BCR B 619     -33.435 126.366   5.158  1.00 60.15     0.014 C 
HETATM   34  C30 BCR B 619     -33.905 126.985   6.477  1.00 51.25    -0.020 C 
HETATM   35  C35 BCR B 619     -40.910 140.714   8.507  1.00 33.87     0.048 C 
HETATM   36  C36 BCR B 619     -38.655 134.274  11.567  1.00 33.91     0.048 C 
HETATM   37  C37 BCR B 619     -35.490 130.277  10.106  1.00 55.50     0.048 C 
HETATM   38  C38 BCR B 619     -31.815 130.252   6.283  1.00 45.25     0.044 C 
HETATM   39  C39 BCR B 619     -33.460 126.110   7.653  1.00 56.99     0.020 C 
HETATM   40  C40 BCR B 619     -35.422 127.027   6.450  1.00 53.04     0.020 C 
ENDROOT
TORSDOF 10
