REMARK VINA RESULT:    -7.920      0.000      0.000
REMARK INTER + INTRA:         -12.272
REMARK INTER:                  -7.920
REMARK INTRA:                  -4.353
REMARK UNBOUND:                -4.353
REMARK  0 active torsions:
REMARK  status: ('A' for Active; 'I' for Inactive)
REMARK       I    between atoms: C6_6  and  C7_7 
REMARK       I    between atoms: C8_8  and  C9_9 
REMARK       I    between atoms: C10_10  and  C11_11 
REMARK       I    between atoms: C12_16  and  C13_17 
REMARK       I    between atoms: C14_18  and  C15_19 
REMARK       I    between atoms: C16_20  and  C17_21 
REMARK       I    between atoms: C18_22  and  C19_23 
REMARK       I    between atoms: C20_24  and  C21_25 
REMARK       I    between atoms: C22_26  and  C23_27 
REMARK       I    between atoms: C24_28  and  C25_29 
ROOT
HETATM    1  C1  BCR T 102     -33.807 128.675   5.980  1.00 34.19    -0.020 C 
HETATM    2  C2  BCR T 102     -32.716 127.724   5.476  1.00 31.05     0.014 C 
HETATM    3  C3  BCR T 102     -32.313 126.679   6.503  1.00 29.41     0.005 C 
HETATM    4  C4  BCR T 102     -33.508 125.850   6.921  1.00 30.85     0.034 C 
HETATM    5  C5  BCR T 102     -34.635 126.747   7.376  1.00 27.12    -0.077 C 
HETATM    6  C6  BCR T 102     -34.784 128.019   6.961  1.00 27.96    -0.048 C 
HETATM    7  C7  BCR T 102     -35.964 128.740   7.533  1.00 26.87     0.009 C 
HETATM    8  C8  BCR T 102     -36.285 130.028   7.353  1.00 27.18     0.007 C 
HETATM    9  C9  BCR T 102     -37.467 130.662   7.978  1.00 30.62    -0.062 C 
HETATM   10  C10 BCR T 102     -37.706 131.973   7.750  1.00 30.16     0.007 C 
HETATM   11  C11 BCR T 102     -38.811 132.717   8.357  1.00 28.29     0.001 C 
HETATM   12  C33 BCR T 102     -35.618 126.150   8.339  1.00 35.59     0.044 C 
HETATM   13  C31 BCR T 102     -34.558 129.198   4.758  1.00 18.19     0.020 C 
HETATM   14  C32 BCR T 102     -33.086 129.840   6.665  1.00 42.41     0.020 C 
HETATM   15  C34 BCR T 102     -38.370 129.848   8.862  1.00 37.30     0.048 C 
HETATM   16  C12 BCR T 102     -38.869 134.036   8.151  1.00 32.33     0.007 C 
HETATM   17  C13 BCR T 102     -39.871 134.924   8.784  1.00 37.30    -0.062 C 
HETATM   18  C14 BCR T 102     -39.696 136.249   8.592  1.00 30.82     0.007 C 
HETATM   19  C15 BCR T 102     -40.445 137.364   9.182  1.00 19.09     0.001 C 
HETATM   20  C16 BCR T 102     -40.534 138.595   8.636  1.00 25.22     0.001 C 
HETATM   21  C17 BCR T 102     -41.205 139.665   9.391  1.00 26.84     0.007 C 
HETATM   22  C18 BCR T 102     -41.408 140.948   8.976  1.00 21.71    -0.062 C 
HETATM   23  C19 BCR T 102     -41.983 141.905   9.948  1.00 29.36     0.007 C 
HETATM   24  C20 BCR T 102     -42.241 143.206   9.751  1.00 22.88     0.001 C 
HETATM   25  C21 BCR T 102     -42.701 143.936  10.942  1.00 23.49     0.007 C 
HETATM   26  C22 BCR T 102     -42.864 145.272  11.009  1.00 22.88    -0.062 C 
HETATM   27  C23 BCR T 102     -43.214 145.825  12.199  1.00 19.61     0.007 C 
HETATM   28  C24 BCR T 102     -43.392 147.137  12.440  1.00 16.86     0.009 C 
HETATM   29  C25 BCR T 102     -43.735 147.683  13.799  1.00 24.91    -0.048 C 
HETATM   30  C26 BCR T 102     -44.750 147.214  14.560  1.00 26.40    -0.077 C 
HETATM   31  C27 BCR T 102     -45.061 147.778  15.934  1.00 13.58     0.034 C 
HETATM   32  C28 BCR T 102     -43.843 148.418  16.564  1.00 15.86     0.005 C 
HETATM   33  C29 BCR T 102     -43.344 149.457  15.580  1.00 17.31     0.014 C 
HETATM   34  C30 BCR T 102     -42.851 148.843  14.274  1.00 34.25    -0.020 C 
HETATM   35  C35 BCR T 102     -40.982 134.360   9.633  1.00 22.35     0.048 C 
HETATM   36  C36 BCR T 102     -40.991 141.434   7.617  1.00 20.74     0.048 C 
HETATM   37  C37 BCR T 102     -42.624 146.116   9.791  1.00 18.69     0.048 C 
HETATM   38  C38 BCR T 102     -45.672 146.097  14.119  1.00 17.22     0.044 C 
HETATM   39  C39 BCR T 102     -41.397 148.384  14.399  1.00 23.16     0.020 C 
HETATM   40  C40 BCR T 102     -42.904 149.969  13.242  1.00 17.04     0.020 C 
ENDROOT
TORSDOF 10
