REMARK VINA RESULT:    -8.088      3.336      4.341
REMARK INTER + INTRA:         -10.883
REMARK INTER:                  -9.552
REMARK INTRA:                  -1.331
REMARK UNBOUND:                -2.795
REMARK  0 active torsions:
REMARK  status: ('A' for Active; 'I' for Inactive)
REMARK       I    between atoms: C6_6  and  C7_7 
REMARK       I    between atoms: C8_8  and  C9_9 
REMARK       I    between atoms: C10_10  and  C11_11 
REMARK       I    between atoms: C12_16  and  C13_17 
REMARK       I    between atoms: C14_18  and  C15_19 
REMARK       I    between atoms: C16_20  and  C17_21 
REMARK       I    between atoms: C18_22  and  C19_23 
REMARK       I    between atoms: C20_24  and  C21_25 
REMARK       I    between atoms: C22_26  and  C23_27 
REMARK       I    between atoms: C24_28  and  C25_29 
ROOT
HETATM    1  C1  BCR B 618     -51.185 147.078   9.890  1.00 52.27    -0.020 C 
HETATM    2  C2  BCR B 618     -51.707 148.401  10.449  1.00 40.31     0.014 C 
HETATM    3  C3  BCR B 618     -50.746 149.020  11.455  1.00 36.34     0.005 C 
HETATM    4  C4  BCR B 618     -50.557 148.083  12.636  1.00 43.90     0.034 C 
HETATM    5  C5  BCR B 618     -50.331 146.648  12.205  1.00 42.39    -0.077 C 
HETATM    6  C6  BCR B 618     -50.610 146.187  10.977  1.00 41.32    -0.048 C 
HETATM    7  C7  BCR B 618     -50.349 144.755  10.686  1.00 37.02     0.009 C 
HETATM    8  C8  BCR B 618     -49.174 144.297  10.232  1.00 40.38     0.007 C 
HETATM    9  C9  BCR B 618     -48.957 142.850   9.980  1.00 43.44    -0.062 C 
HETATM   10  C10 BCR B 618     -47.715 142.401   9.732  1.00 33.05     0.007 C 
HETATM   11  C11 BCR B 618     -47.370 140.992   9.500  1.00 38.44     0.001 C 
HETATM   12  C33 BCR B 618     -49.772 145.711  13.227  1.00 43.01     0.044 C 
HETATM   13  C31 BCR B 618     -50.080 147.338   8.868  1.00 47.24     0.020 C 
HETATM   14  C32 BCR B 618     -52.359 146.353   9.236  1.00 46.10     0.020 C 
HETATM   15  C34 BCR B 618     -50.105 141.891  10.008  1.00 38.09     0.048 C 
HETATM   16  C12 BCR B 618     -46.102 140.712   9.164  1.00 45.48     0.007 C 
HETATM   17  C13 BCR B 618     -45.622 139.330   8.957  1.00 46.67    -0.062 C 
HETATM   18  C14 BCR B 618     -44.319 139.121   8.631  1.00 36.87     0.007 C 
HETATM   19  C15 BCR B 618     -43.723 137.791   8.424  1.00 33.54     0.001 C 
HETATM   20  C16 BCR B 618     -42.395 137.615   8.435  1.00 30.58     0.001 C 
HETATM   21  C17 BCR B 618     -41.781 136.281   8.248  1.00 36.03     0.007 C 
HETATM   22  C18 BCR B 618     -40.447 136.066   8.137  1.00 37.55    -0.062 C 
HETATM   23  C19 BCR B 618     -39.949 134.675   7.951  1.00 41.57     0.007 C 
HETATM   24  C20 BCR B 618     -38.677 134.254   8.039  1.00 44.50     0.001 C 
HETATM   25  C21 BCR B 618     -38.439 132.814   7.826  1.00 27.16     0.007 C 
HETATM   26  C22 BCR B 618     -37.298 132.135   8.082  1.00 45.91    -0.062 C 
HETATM   27  C23 BCR B 618     -37.256 130.799   7.835  1.00 42.15     0.007 C 
HETATM   28  C24 BCR B 618     -36.196 130.057   8.194  1.00 36.90     0.009 C 
HETATM   29  C25 BCR B 618     -36.028 128.598   7.973  1.00 40.99    -0.048 C 
HETATM   30  C26 BCR B 618     -36.832 127.687   8.581  1.00 43.47    -0.077 C 
HETATM   31  C27 BCR B 618     -36.664 126.194   8.376  1.00 44.02     0.034 C 
HETATM   32  C28 BCR B 618     -35.297 125.850   7.792  1.00 46.97     0.005 C 
HETATM   33  C29 BCR B 618     -34.953 126.738   6.603  1.00 50.46     0.014 C 
HETATM   34  C30 BCR B 618     -34.871 128.194   7.041  1.00 44.40    -0.020 C 
HETATM   35  C35 BCR B 618     -46.598 138.211   9.190  1.00 29.80     0.048 C 
HETATM   36  C36 BCR B 618     -39.475 137.210   8.196  1.00 38.94     0.048 C 
HETATM   37  C37 BCR B 618     -36.069 132.835   8.604  1.00 32.34     0.048 C 
HETATM   38  C38 BCR B 618     -37.963 128.070   9.500  1.00 35.16     0.044 C 
HETATM   39  C39 BCR B 618     -34.860 129.076   5.798  1.00 36.65     0.020 C 
HETATM   40  C40 BCR B 618     -33.525 128.416   7.715  1.00 45.60     0.020 C 
ENDROOT
TORSDOF 10
