REMARK VINA RESULT:   -11.065      0.000      0.000
REMARK INTER + INTRA:         -13.366
REMARK INTER:                 -11.065
REMARK INTRA:                  -2.302
REMARK UNBOUND:                -2.302
REMARK  0 active torsions:
REMARK  status: ('A' for Active; 'I' for Inactive)
REMARK       I    between atoms: C6_6  and  C7_7 
REMARK       I    between atoms: C8_8  and  C9_9 
REMARK       I    between atoms: C10_10  and  C11_11 
REMARK       I    between atoms: C12_16  and  C13_17 
REMARK       I    between atoms: C14_18  and  C15_19 
REMARK       I    between atoms: C16_20  and  C17_21 
REMARK       I    between atoms: C18_22  and  C19_23 
REMARK       I    between atoms: C20_24  and  C21_25 
REMARK       I    between atoms: C22_26  and  C23_27 
REMARK       I    between atoms: C24_28  and  C25_29 
ROOT
HETATM    1  C1  BCR C 515     -49.229 147.864   9.651  1.00 43.74    -0.020 C 
HETATM    2  C2  BCR C 515     -50.386 148.664  10.233  1.00 33.04     0.014 C 
HETATM    3  C3  BCR C 515     -51.127 147.848  11.274  1.00 39.49     0.005 C 
HETATM    4  C4  BCR C 515     -51.737 146.623  10.620  1.00 35.85     0.034 C 
HETATM    5  C5  BCR C 515     -50.684 145.820   9.894  1.00 30.47    -0.077 C 
HETATM    6  C6  BCR C 515     -49.541 146.380   9.447  1.00 45.08    -0.048 C 
HETATM    7  C7  BCR C 515     -48.527 145.556   8.723  1.00 35.93     0.009 C 
HETATM    8  C8  BCR C 515     -47.771 144.583   9.255  1.00 40.16     0.007 C 
HETATM    9  C9  BCR C 515     -46.800 143.841   8.408  1.00 37.91    -0.062 C 
HETATM   10  C10 BCR C 515     -46.153 142.754   8.891  1.00 40.13     0.007 C 
HETATM   11  C11 BCR C 515     -45.167 141.959   8.133  1.00 37.53     0.001 C 
HETATM   12  C33 BCR C 515     -50.983 144.359   9.688  1.00 32.24     0.044 C 
HETATM   13  C31 BCR C 515     -48.057 147.961  10.616  1.00 38.68     0.020 C 
HETATM   14  C32 BCR C 515     -48.854 148.513   8.322  1.00 37.12     0.020 C 
HETATM   15  C34 BCR C 515     -46.541 144.317   7.007  1.00 53.32     0.048 C 
HETATM   16  C12 BCR C 515     -44.567 140.913   8.728  1.00 49.88     0.007 C 
HETATM   17  C13 BCR C 515     -43.559 140.040   8.072  1.00 44.94    -0.062 C 
HETATM   18  C14 BCR C 515     -42.982 139.026   8.773  1.00 48.13     0.007 C 
HETATM   19  C15 BCR C 515     -41.973 138.091   8.234  1.00 45.78     0.001 C 
HETATM   20  C16 BCR C 515     -41.464 137.094   8.984  1.00 42.98     0.001 C 
HETATM   21  C17 BCR C 515     -40.465 136.144   8.471  1.00 35.18     0.007 C 
HETATM   22  C18 BCR C 515     -39.790 135.241   9.231  1.00 46.37    -0.062 C 
HETATM   23  C19 BCR C 515     -38.800 134.347   8.577  1.00 46.12     0.007 C 
HETATM   24  C20 BCR C 515     -37.987 133.519   9.245  1.00 39.74     0.001 C 
HETATM   25  C21 BCR C 515     -37.048 132.700   8.469  1.00 40.38     0.007 C 
HETATM   26  C22 BCR C 515     -36.062 131.941   8.997  1.00 42.03    -0.062 C 
HETATM   27  C23 BCR C 515     -35.272 131.251   8.144  1.00 46.40     0.007 C 
HETATM   28  C24 BCR C 515     -34.366 130.325   8.512  1.00 51.13     0.009 C 
HETATM   29  C25 BCR C 515     -33.526 129.602   7.509  1.00 38.87    -0.048 C 
HETATM   30  C26 BCR C 515     -34.049 128.634   6.731  1.00 44.05    -0.077 C 
HETATM   31  C27 BCR C 515     -33.240 127.871   5.693  1.00 33.55     0.034 C 
HETATM   32  C28 BCR C 515     -31.896 128.526   5.401  1.00 33.51     0.005 C 
HETATM   33  C29 BCR C 515     -31.235 128.917   6.711  1.00 35.48     0.014 C 
HETATM   34  C30 BCR C 515     -32.067 129.996   7.392  1.00 38.75    -0.020 C 
HETATM   35  C35 BCR C 515     -43.187 140.300   6.641  1.00 34.72     0.048 C 
HETATM   36  C36 BCR C 515     -40.002 135.127  10.720  1.00 29.10     0.048 C 
HETATM   37  C37 BCR C 515     -35.850 131.864  10.487  1.00 29.31     0.048 C 
HETATM   38  C38 BCR C 515     -35.500 128.251   6.854  1.00 41.01     0.044 C 
HETATM   39  C39 BCR C 515     -31.989 131.269   6.558  1.00 38.61     0.020 C 
HETATM   40  C40 BCR C 515     -31.513 130.244   8.785  1.00 30.77     0.020 C 
ENDROOT
TORSDOF 10
