REMARK VINA RESULT:    -8.773      0.000      0.000
REMARK INTER + INTRA:         -11.580
REMARK INTER:                  -8.773
REMARK INTRA:                  -2.807
REMARK UNBOUND:                -2.807
REMARK  0 active torsions:
REMARK  status: ('A' for Active; 'I' for Inactive)
REMARK       I    between atoms: C6_6  and  C7_7 
REMARK       I    between atoms: C8_8  and  C9_9 
REMARK       I    between atoms: C10_10  and  C11_11 
REMARK       I    between atoms: C12_16  and  C13_17 
REMARK       I    between atoms: C14_18  and  C15_19 
REMARK       I    between atoms: C16_20  and  C17_21 
REMARK       I    between atoms: C18_22  and  C19_23 
REMARK       I    between atoms: C20_24  and  C21_25 
REMARK       I    between atoms: C22_26  and  C23_27 
REMARK       I    between atoms: C24_28  and  C25_29 
ROOT
HETATM    1  C1  BCR B 617     -32.398 130.216   7.522  1.00 41.49    -0.020 C 
HETATM    2  C2  BCR B 617     -31.644 129.334   6.540  1.00 45.09     0.014 C 
HETATM    3  C3  BCR B 617     -32.391 128.080   6.186  1.00 46.22     0.005 C 
HETATM    4  C4  BCR B 617     -33.762 128.420   5.681  1.00 43.15     0.034 C 
HETATM    5  C5  BCR B 617     -34.475 129.177   6.718  1.00 45.30    -0.077 C 
HETATM    6  C6  BCR B 617     -33.876 130.004   7.577  1.00 38.15    -0.048 C 
HETATM    7  C7  BCR B 617     -34.616 130.730   8.621  1.00 41.50     0.009 C 
HETATM    8  C8  BCR B 617     -35.165 131.942   8.427  1.00 33.63     0.007 C 
HETATM    9  C9  BCR B 617     -36.283 132.442   9.225  1.00 35.19    -0.062 C 
HETATM   10  C10 BCR B 617     -36.979 133.514   8.826  1.00 33.22     0.007 C 
HETATM   11  C11 BCR B 617     -37.657 134.437   9.722  1.00 24.33     0.001 C 
HETATM   12  C33 BCR B 617     -35.924 128.904   6.727  1.00 50.16     0.044 C 
HETATM   13  C31 BCR B 617     -32.082 131.657   7.167  1.00 49.85     0.020 C 
HETATM   14  C32 BCR B 617     -31.771 129.972   8.870  1.00 44.59     0.020 C 
HETATM   15  C34 BCR B 617     -36.391 131.959  10.621  1.00 35.95     0.048 C 
HETATM   16  C12 BCR B 617     -38.345 135.483   9.232  1.00 33.21     0.007 C 
HETATM   17  C13 BCR B 617     -39.328 136.266   9.966  1.00 33.12    -0.062 C 
HETATM   18  C14 BCR B 617     -39.768 137.413   9.414  1.00 31.10     0.007 C 
HETATM   19  C15 BCR B 617     -41.079 137.992   9.635  1.00 35.99     0.001 C 
HETATM   20  C16 BCR B 617     -41.385 139.238   9.220  1.00 30.49     0.001 C 
HETATM   21  C17 BCR B 617     -42.657 139.810   9.582  1.00 28.48     0.007 C 
HETATM   22  C18 BCR B 617     -43.299 140.856   9.009  1.00 29.63    -0.062 C 
HETATM   23  C19 BCR B 617     -44.522 141.327   9.627  1.00 31.91     0.007 C 
HETATM   24  C20 BCR B 617     -45.173 142.422   9.234  1.00 29.87     0.001 C 
HETATM   25  C21 BCR B 617     -46.334 142.845   9.985  1.00 34.48     0.007 C 
HETATM   26  C22 BCR B 617     -47.317 143.647   9.551  1.00 29.89    -0.062 C 
HETATM   27  C23 BCR B 617     -48.260 144.114  10.552  1.00 31.70     0.007 C 
HETATM   28  C24 BCR B 617     -49.334 144.838  10.269  1.00 26.71     0.009 C 
HETATM   29  C25 BCR B 617     -50.265 145.394  11.230  1.00 32.74    -0.048 C 
HETATM   30  C26 BCR B 617     -50.891 144.661  12.158  1.00 34.19    -0.077 C 
HETATM   31  C27 BCR B 617     -51.874 145.175  13.136  1.00 36.44     0.034 C 
HETATM   32  C28 BCR B 617     -51.775 146.672  13.308  1.00 33.65     0.005 C 
HETATM   33  C29 BCR B 617     -51.709 147.294  11.961  1.00 31.35     0.014 C 
HETATM   34  C30 BCR B 617     -50.545 146.851  11.098  1.00 33.77    -0.020 C 
HETATM   35  C35 BCR B 617     -39.656 135.926  11.382  1.00 35.31     0.048 C 
HETATM   36  C36 BCR B 617     -42.956 141.421   7.693  1.00 27.23     0.048 C 
HETATM   37  C37 BCR B 617     -47.489 143.987   8.108  1.00 28.60     0.048 C 
HETATM   38  C38 BCR B 617     -50.651 143.213  12.351  1.00 33.66     0.044 C 
HETATM   39  C39 BCR B 617     -49.285 147.658  11.337  1.00 31.39     0.020 C 
HETATM   40  C40 BCR B 617     -50.998 147.234   9.705  1.00 32.27     0.020 C 
ENDROOT
TORSDOF 10
