REMARK VINA RESULT:    -8.891      0.000      0.000
REMARK INTER + INTRA:         -11.767
REMARK INTER:                  -8.891
REMARK INTRA:                  -2.876
REMARK UNBOUND:                -2.876
REMARK  0 active torsions:
REMARK  status: ('A' for Active; 'I' for Inactive)
REMARK       I    between atoms: C6_6  and  C7_7 
REMARK       I    between atoms: C8_8  and  C9_9 
REMARK       I    between atoms: C10_10  and  C11_11 
REMARK       I    between atoms: C12_16  and  C13_17 
REMARK       I    between atoms: C14_18  and  C15_19 
REMARK       I    between atoms: C16_20  and  C17_21 
REMARK       I    between atoms: C18_22  and  C19_23 
REMARK       I    between atoms: C20_24  and  C21_25 
REMARK       I    between atoms: C22_26  and  C23_27 
REMARK       I    between atoms: C24_28  and  C25_29 
ROOT
HETATM    1  C1  BCR B 618     -32.289 130.039   7.529  1.00 29.97    -0.020 C 
HETATM    2  C2  BCR B 618     -31.472 128.926   6.853  1.00 30.11     0.014 C 
HETATM    3  C3  BCR B 618     -32.011 128.461   5.494  1.00 28.88     0.005 C 
HETATM    4  C4  BCR B 618     -33.485 128.096   5.500  1.00 28.77     0.034 C 
HETATM    5  C5  BCR B 618     -34.292 128.870   6.525  1.00 28.24    -0.077 C 
HETATM    6  C6  BCR B 618     -33.758 129.720   7.443  1.00 26.72    -0.048 C 
HETATM    7  C7  BCR B 618     -34.675 130.407   8.380  1.00 26.16     0.009 C 
HETATM    8  C8  BCR B 618     -35.133 131.654   8.185  1.00 23.90     0.007 C 
HETATM    9  C9  BCR B 618     -36.078 132.267   9.170  1.00 22.06    -0.062 C 
HETATM   10  C10 BCR B 618     -36.712 133.411   8.852  1.00 23.67     0.007 C 
HETATM   11  C11 BCR B 618     -37.704 134.116   9.662  1.00 23.73     0.001 C 
HETATM   12  C33 BCR B 618     -35.761 128.581   6.489  1.00 30.53     0.044 C 
HETATM   13  C31 BCR B 618     -32.041 131.429   6.907  1.00 30.85     0.020 C 
HETATM   14  C32 BCR B 618     -31.794 130.069   8.993  1.00 30.08     0.020 C 
HETATM   15  C34 BCR B 618     -36.292 131.638  10.526  1.00 25.71     0.048 C 
HETATM   16  C12 BCR B 618     -38.142 135.318   9.203  1.00 24.44     0.007 C 
HETATM   17  C13 BCR B 618     -39.198 136.098   9.881  1.00 23.39    -0.062 C 
HETATM   18  C14 BCR B 618     -39.660 137.255   9.261  1.00 20.98     0.007 C 
HETATM   19  C15 BCR B 618     -40.803 138.003   9.818  1.00 21.06     0.001 C 
HETATM   20  C16 BCR B 618     -41.325 139.023   9.101  1.00 22.19     0.001 C 
HETATM   21  C17 BCR B 618     -42.480 139.768   9.620  1.00 21.58     0.007 C 
HETATM   22  C18 BCR B 618     -43.159 140.760   8.957  1.00 20.96    -0.062 C 
HETATM   23  C19 BCR B 618     -44.288 141.405   9.650  1.00 19.82     0.007 C 
HETATM   24  C20 BCR B 618     -45.117 142.360   9.122  1.00 20.56     0.001 C 
HETATM   25  C21 BCR B 618     -46.156 142.903  10.026  1.00 20.57     0.007 C 
HETATM   26  C22 BCR B 618     -47.175 143.714   9.623  1.00 19.60    -0.062 C 
HETATM   27  C23 BCR B 618     -48.119 144.189  10.642  1.00 22.92     0.007 C 
HETATM   28  C24 BCR B 618     -49.050 145.133  10.390  1.00 24.17     0.009 C 
HETATM   29  C25 BCR B 618     -50.019 145.647  11.417  1.00 26.94    -0.048 C 
HETATM   30  C26 BCR B 618     -50.689 144.894  12.335  1.00 28.75    -0.077 C 
HETATM   31  C27 BCR B 618     -51.680 145.480  13.361  1.00 30.75     0.034 C 
HETATM   32  C28 BCR B 618     -52.087 146.927  13.066  1.00 33.35     0.005 C 
HETATM   33  C29 BCR B 618     -50.906 147.755  12.567  1.00 31.28     0.014 C 
HETATM   34  C30 BCR B 618     -50.234 147.161  11.316  1.00 29.59    -0.020 C 
HETATM   35  C35 BCR B 618     -39.726 135.537  11.180  1.00 23.27     0.048 C 
HETATM   36  C36 BCR B 618     -42.770 141.231   7.604  1.00 21.00     0.048 C 
HETATM   37  C37 BCR B 618     -47.343 144.084   8.148  1.00 20.72     0.048 C 
HETATM   38  C38 BCR B 618     -50.527 143.403  12.487  1.00 30.08     0.044 C 
HETATM   39  C39 BCR B 618     -48.879 147.864  11.194  1.00 28.53     0.020 C 
HETATM   40  C40 BCR B 618     -51.079 147.419  10.073  1.00 29.57     0.020 C 
ENDROOT
TORSDOF 10
