REMARK VINA RESULT:    -8.966      0.786     16.419
REMARK INTER + INTRA:         -12.003
REMARK INTER:                  -8.376
REMARK INTRA:                  -3.627
REMARK UNBOUND:                -3.037
REMARK  0 active torsions:
REMARK  status: ('A' for Active; 'I' for Inactive)
REMARK       I    between atoms: C6_6  and  C7_7 
REMARK       I    between atoms: C8_8  and  C9_9 
REMARK       I    between atoms: C10_10  and  C11_11 
REMARK       I    between atoms: C12_16  and  C13_17 
REMARK       I    between atoms: C14_18  and  C15_19 
REMARK       I    between atoms: C16_20  and  C17_21 
REMARK       I    between atoms: C18_22  and  C19_23 
REMARK       I    between atoms: C20_24  and  C21_25 
REMARK       I    between atoms: C22_26  and  C23_27 
REMARK       I    between atoms: C24_28  and  C25_29 
ROOT
HETATM    1  C1  BCR A 407     -47.083 146.694  12.815  1.00 28.23    -0.020 C 
HETATM    2  C2  BCR A 407     -47.647 147.564  13.928  1.00 26.63     0.014 C 
HETATM    3  C3  BCR A 407     -46.799 147.466  15.179  1.00 25.93     0.005 C 
HETATM    4  C4  BCR A 407     -45.446 148.030  14.836  1.00 23.77     0.034 C 
HETATM    5  C5  BCR A 407     -44.824 147.223  13.737  1.00 26.68    -0.077 C 
HETATM    6  C6  BCR A 407     -45.572 146.599  12.810  1.00 30.50    -0.048 C 
HETATM    7  C7  BCR A 407     -44.916 145.825  11.734  1.00 26.48     0.009 C 
HETATM    8  C8  BCR A 407     -44.472 144.576  11.891  1.00 26.44     0.007 C 
HETATM    9  C9  BCR A 407     -43.804 143.842  10.789  1.00 31.91    -0.062 C 
HETATM   10  C10 BCR A 407     -43.042 142.770  11.068  1.00 26.39     0.007 C 
HETATM   11  C11 BCR A 407     -42.304 141.946  10.112  1.00 23.46     0.001 C 
HETATM   12  C33 BCR A 407     -43.332 147.171  13.699  1.00 20.48     0.044 C 
HETATM   13  C31 BCR A 407     -47.513 147.271  11.481  1.00 26.58     0.020 C 
HETATM   14  C32 BCR A 407     -47.651 145.304  13.012  1.00 24.38     0.020 C 
HETATM   15  C34 BCR A 407     -43.986 144.301   9.379  1.00 31.33     0.048 C 
HETATM   16  C12 BCR A 407     -41.751 140.822  10.566  1.00 19.64     0.007 C 
HETATM   17  C13 BCR A 407     -40.979 139.878   9.740  1.00 19.50    -0.062 C 
HETATM   18  C14 BCR A 407     -40.613 138.701  10.257  1.00 21.08     0.007 C 
HETATM   19  C15 BCR A 407     -39.866 137.682   9.529  1.00 20.35     0.001 C 
HETATM   20  C16 BCR A 407     -39.393 136.596  10.139  1.00 19.61     0.001 C 
HETATM   21  C17 BCR A 407     -38.693 135.578   9.362  1.00 24.39     0.007 C 
HETATM   22  C18 BCR A 407     -38.168 134.469   9.902  1.00 24.75    -0.062 C 
HETATM   23  C19 BCR A 407     -37.503 133.479   9.021  1.00 22.75     0.007 C 
HETATM   24  C20 BCR A 407     -36.902 132.358   9.426  1.00 20.02     0.001 C 
HETATM   25  C21 BCR A 407     -36.315 131.488   8.411  1.00 24.21     0.007 C 
HETATM   26  C22 BCR A 407     -35.464 130.463   8.593  1.00 23.81    -0.062 C 
HETATM   27  C23 BCR A 407     -34.998 129.679   7.412  1.00 24.49     0.007 C 
HETATM   28  C24 BCR A 407     -34.096 128.689   7.464  1.00 22.45     0.009 C 
HETATM   29  C25 BCR A 407     -33.637 127.880   6.305  1.00 22.37    -0.048 C 
HETATM   30  C26 BCR A 407     -34.360 126.815   5.936  1.00 25.07    -0.077 C 
HETATM   31  C27 BCR A 407     -33.879 125.870   4.865  1.00 22.42     0.034 C 
HETATM   32  C28 BCR A 407     -33.221 126.655   3.756  1.00 19.60     0.005 C 
HETATM   33  C29 BCR A 407     -32.055 127.446   4.298  1.00 23.51     0.014 C 
HETATM   34  C30 BCR A 407     -32.332 128.209   5.598  1.00 25.52    -0.020 C 
HETATM   35  C35 BCR A 407     -40.586 140.256   8.352  1.00 19.07     0.048 C 
HETATM   36  C36 BCR A 407     -38.260 134.270  11.381  1.00 14.49     0.048 C 
HETATM   37  C37 BCR A 407     -34.999 130.116   9.969  1.00 19.80     0.048 C 
HETATM   38  C38 BCR A 407     -35.670 126.496   6.584  1.00 20.56     0.044 C 
HETATM   39  C39 BCR A 407     -32.333 129.687   5.276  1.00 27.97     0.020 C 
HETATM   40  C40 BCR A 407     -31.161 127.904   6.500  1.00 17.98     0.020 C 
ENDROOT
TORSDOF 10
