REMARK VINA RESULT:    -7.339      3.352      5.118
REMARK INTER + INTRA:         -14.135
REMARK INTER:                 -11.841
REMARK INTRA:                  -2.295
REMARK UNBOUND:                -6.796
REMARK  0 active torsions:
REMARK  status: ('A' for Active; 'I' for Inactive)
REMARK       I    between atoms: C6_6  and  C7_7 
REMARK       I    between atoms: C8_8  and  C9_9 
REMARK       I    between atoms: C10_10  and  C11_11 
REMARK       I    between atoms: C12_16  and  C13_17 
REMARK       I    between atoms: C14_18  and  C15_19 
REMARK       I    between atoms: C16_20  and  C17_21 
REMARK       I    between atoms: C18_22  and  C19_23 
REMARK       I    between atoms: C20_24  and  C21_25 
REMARK       I    between atoms: C22_26  and  C23_27 
REMARK       I    between atoms: C24_28  and  C25_29 
ROOT
HETATM    1  C1  BCR B 619     -44.435 148.106  14.327  1.00 42.12    -0.020 C 
HETATM    2  C2  BCR B 619     -45.324 148.548  15.464  1.00 44.03     0.014 C 
HETATM    3  C3  BCR B 619     -46.748 148.624  15.021  1.00 50.07     0.005 C 
HETATM    4  C4  BCR B 619     -47.181 147.263  14.556  1.00 50.24     0.034 C 
HETATM    5  C5  BCR B 619     -46.282 146.767  13.486  1.00 48.46    -0.077 C 
HETATM    6  C6  BCR B 619     -45.020 147.127  13.375  1.00 42.37    -0.048 C 
HETATM    7  C7  BCR B 619     -44.150 146.625  12.293  1.00 45.45     0.009 C 
HETATM    8  C8  BCR B 619     -43.883 145.322  12.139  1.00 42.13     0.007 C 
HETATM    9  C9  BCR B 619     -42.945 144.765  11.170  1.00 40.32    -0.062 C 
HETATM   10  C10 BCR B 619     -42.807 143.437  11.127  1.00 42.22     0.007 C 
HETATM   11  C11 BCR B 619     -41.826 142.752  10.331  1.00 37.87     0.001 C 
HETATM   12  C33 BCR B 619     -46.919 145.812  12.552  1.00 60.09     0.044 C 
HETATM   13  C31 BCR B 619     -43.198 147.533  14.958  1.00 42.93     0.020 C 
HETATM   14  C32 BCR B 619     -44.062 149.374  13.590  1.00 43.16     0.020 C 
HETATM   15  C34 BCR B 619     -42.492 145.591  10.041  1.00 35.96     0.048 C 
HETATM   16  C12 BCR B 619     -41.706 141.438  10.490  1.00 36.26     0.007 C 
HETATM   17  C13 BCR B 619     -41.056 140.580   9.534  1.00 36.16    -0.062 C 
HETATM   18  C14 BCR B 619     -41.082 139.261   9.780  1.00 32.11     0.007 C 
HETATM   19  C15 BCR B 619     -40.159 138.303   9.220  1.00 30.20     0.001 C 
HETATM   20  C16 BCR B 619     -40.281 137.005   9.522  1.00 25.50     0.001 C 
HETATM   21  C17 BCR B 619     -39.434 136.065   8.840  1.00 29.93     0.007 C 
HETATM   22  C18 BCR B 619     -39.548 134.730   8.885  1.00 33.52    -0.062 C 
HETATM   23  C19 BCR B 619     -38.405 133.909   8.475  1.00 31.39     0.007 C 
HETATM   24  C20 BCR B 619     -38.376 132.570   8.542  1.00 33.08     0.001 C 
HETATM   25  C21 BCR B 619     -37.241 131.861   8.006  1.00 29.74     0.007 C 
HETATM   26  C22 BCR B 619     -37.149 130.542   7.779  1.00 34.33    -0.062 C 
HETATM   27  C23 BCR B 619     -35.912 130.030   7.182  1.00 29.24     0.007 C 
HETATM   28  C24 BCR B 619     -35.566 128.738   7.135  1.00 34.82     0.009 C 
HETATM   29  C25 BCR B 619     -34.360 128.260   6.459  1.00 36.91    -0.048 C 
HETATM   30  C26 BCR B 619     -33.167 128.678   6.872  1.00 42.58    -0.077 C 
HETATM   31  C27 BCR B 619     -31.877 128.274   6.275  1.00 34.32     0.034 C 
HETATM   32  C28 BCR B 619     -31.985 126.880   5.714  1.00 33.19     0.005 C 
HETATM   33  C29 BCR B 619     -33.139 126.793   4.764  1.00 42.41     0.014 C 
HETATM   34  C30 BCR B 619     -34.472 127.319   5.287  1.00 41.48    -0.020 C 
HETATM   35  C35 BCR B 619     -40.081 141.189   8.613  1.00 29.99     0.048 C 
HETATM   36  C36 BCR B 619     -40.597 134.136   9.745  1.00 37.35     0.048 C 
HETATM   37  C37 BCR B 619     -38.043 129.616   8.499  1.00 37.12     0.048 C 
HETATM   38  C38 BCR B 619     -33.024 129.621   7.995  1.00 40.40     0.044 C 
HETATM   39  C39 BCR B 619     -35.449 126.193   5.599  1.00 51.26     0.020 C 
HETATM   40  C40 BCR B 619     -34.981 128.033   4.039  1.00 40.72     0.020 C 
ENDROOT
TORSDOF 10
