REMARK VINA RESULT:    -5.110      0.690     16.149
REMARK INTER + INTRA:          -8.618
REMARK INTER:                  -4.744
REMARK INTRA:                  -3.874
REMARK UNBOUND:                -3.508
REMARK  0 active torsions:
REMARK  status: ('A' for Active; 'I' for Inactive)
REMARK       I    between atoms: C6_6  and  C7_7 
REMARK       I    between atoms: C8_8  and  C9_9 
REMARK       I    between atoms: C10_10  and  C11_11 
REMARK       I    between atoms: C12_16  and  C13_17 
REMARK       I    between atoms: C14_18  and  C15_19 
REMARK       I    between atoms: C16_20  and  C17_21 
REMARK       I    between atoms: C18_22  and  C19_23 
REMARK       I    between atoms: C20_24  and  C21_25 
REMARK       I    between atoms: C22_26  and  C23_27 
REMARK       I    between atoms: C24_28  and  C25_29 
ROOT
HETATM    1  C1  BCR D 404     -33.406 129.035   8.390  1.00 32.35    -0.020 C 
HETATM    2  C2  BCR D 404     -33.013 127.888   7.455  1.00 35.21     0.014 C 
HETATM    3  C3  BCR D 404     -33.320 127.945   5.970  1.00 30.49     0.005 C 
HETATM    4  C4  BCR D 404     -34.743 128.495   5.662  1.00 29.98     0.034 C 
HETATM    5  C5  BCR D 404     -35.306 129.401   6.722  1.00 28.73    -0.077 C 
HETATM    6  C6  BCR D 404     -34.719 129.660   7.951  1.00 29.98    -0.048 C 
HETATM    7  C7  BCR D 404     -35.412 130.565   8.908  1.00 28.21     0.009 C 
HETATM    8  C8  BCR D 404     -35.726 131.860   8.632  1.00 26.47     0.007 C 
HETATM    9  C9  BCR D 404     -36.498 132.609   9.630  1.00 27.48    -0.062 C 
HETATM   10  C10 BCR D 404     -36.960 133.809   9.278  1.00 25.45     0.007 C 
HETATM   11  C11 BCR D 404     -37.841 134.644  10.094  1.00 24.55     0.001 C 
HETATM   12  C33 BCR D 404     -36.650 130.010   6.310  1.00 26.94     0.044 C 
HETATM   13  C31 BCR D 404     -32.369 130.171   8.581  1.00 34.86     0.020 C 
HETATM   14  C32 BCR D 404     -33.475 128.298   9.712  1.00 34.02     0.020 C 
HETATM   15  C34 BCR D 404     -36.783 132.033  11.001  1.00 28.88     0.048 C 
HETATM   16  C12 BCR D 404     -38.227 135.773   9.480  1.00 25.39     0.007 C 
HETATM   17  C13 BCR D 404     -39.228 136.720  10.088  1.00 26.11    -0.062 C 
HETATM   18  C14 BCR D 404     -39.667 137.764   9.330  1.00 25.50     0.007 C 
HETATM   19  C15 BCR D 404     -40.707 138.717   9.770  1.00 25.53     0.001 C 
HETATM   20  C16 BCR D 404     -41.184 139.651   8.939  1.00 28.34     0.001 C 
HETATM   21  C17 BCR D 404     -42.305 140.516   9.326  1.00 25.13     0.007 C 
HETATM   22  C18 BCR D 404     -43.001 141.372   8.509  1.00 24.53    -0.062 C 
HETATM   23  C19 BCR D 404     -44.173 142.069   9.110  1.00 25.17     0.007 C 
HETATM   24  C20 BCR D 404     -44.881 142.987   8.430  1.00 27.12     0.001 C 
HETATM   25  C21 BCR D 404     -46.079 143.506   9.118  1.00 29.28     0.007 C 
HETATM   26  C22 BCR D 404     -46.950 144.419   8.602  1.00 33.93    -0.062 C 
HETATM   27  C23 BCR D 404     -48.162 144.770   9.398  1.00 38.17     0.007 C 
HETATM   28  C24 BCR D 404     -49.279 145.225   8.781  1.00 46.63     0.009 C 
HETATM   29  C25 BCR D 404     -50.595 145.492   9.483  1.00 52.79    -0.048 C 
HETATM   30  C26 BCR D 404     -51.278 144.436   9.965  1.00 55.25    -0.077 C 
HETATM   31  C27 BCR D 404     -52.600 144.599  10.696  1.00 57.58     0.034 C 
HETATM   32  C28 BCR D 404     -52.546 145.904  11.472  1.00 53.18     0.005 C 
HETATM   33  C29 BCR D 404     -52.491 146.969  10.411  1.00 51.54     0.014 C 
HETATM   34  C30 BCR D 404     -51.193 146.860   9.619  1.00 47.55    -0.020 C 
HETATM   35  C35 BCR D 404     -39.720 136.482  11.500  1.00 27.35     0.048 C 
HETATM   36  C36 BCR D 404     -42.698 141.615   7.044  1.00 24.12     0.048 C 
HETATM   37  C37 BCR D 404     -46.736 145.004   7.237  1.00 31.42     0.048 C 
HETATM   38  C38 BCR D 404     -50.721 143.051   9.833  1.00 57.67     0.044 C 
HETATM   39  C39 BCR D 404     -50.167 147.720  10.334  1.00 52.80     0.020 C 
HETATM   40  C40 BCR D 404     -51.500 147.249   8.191  1.00 45.94     0.020 C 
ENDROOT
TORSDOF 10
