REMARK VINA RESULT:    -5.143      1.114      1.822
REMARK INTER + INTRA:          -9.691
REMARK INTER:                  -7.188
REMARK INTRA:                  -2.503
REMARK UNBOUND:                -4.548
REMARK  0 active torsions:
REMARK  status: ('A' for Active; 'I' for Inactive)
REMARK       I    between atoms: C6_6  and  C7_7 
REMARK       I    between atoms: C8_8  and  C9_9 
REMARK       I    between atoms: C10_10  and  C11_11 
REMARK       I    between atoms: C12_16  and  C13_17 
REMARK       I    between atoms: C14_18  and  C15_19 
REMARK       I    between atoms: C16_20  and  C17_21 
REMARK       I    between atoms: C18_22  and  C19_23 
REMARK       I    between atoms: C20_24  and  C21_25 
REMARK       I    between atoms: C22_26  and  C23_27 
REMARK       I    between atoms: C24_28  and  C25_29 
ROOT
HETATM    1  C1  BCR K 103     -50.221 144.680   8.399  1.00 31.33    -0.020 C 
HETATM    2  C2  BCR K 103     -51.593 145.201   8.823  1.00 30.10     0.014 C 
HETATM    3  C3  BCR K 103     -51.681 145.450  10.324  1.00 28.21     0.005 C 
HETATM    4  C4  BCR K 103     -50.640 146.455  10.758  1.00 35.14     0.034 C 
HETATM    5  C5  BCR K 103     -49.265 146.043  10.290  1.00 40.40    -0.077 C 
HETATM    6  C6  BCR K 103     -49.077 145.240   9.223  1.00 35.44    -0.048 C 
HETATM    7  C7  BCR K 103     -47.745 144.809   8.727  1.00 31.58     0.009 C 
HETATM    8  C8  BCR K 103     -46.869 144.086   9.429  1.00 28.28     0.007 C 
HETATM    9  C9  BCR K 103     -45.615 143.671   8.782  1.00 28.29    -0.062 C 
HETATM   10  C10 BCR K 103     -44.998 142.556   9.230  1.00 35.18     0.007 C 
HETATM   11  C11 BCR K 103     -43.784 141.976   8.641  1.00 34.91     0.001 C 
HETATM   12  C33 BCR K 103     -48.119 146.593  11.089  1.00 42.08     0.044 C 
HETATM   13  C31 BCR K 103     -49.976 145.055   6.944  1.00 32.49     0.020 C 
HETATM   14  C32 BCR K 103     -50.169 143.157   8.526  1.00 30.89     0.020 C 
HETATM   15  C34 BCR K 103     -45.091 144.468   7.631  1.00 32.35     0.048 C 
HETATM   16  C12 BCR K 103     -43.409 140.767   9.077  1.00 43.00     0.007 C 
HETATM   17  C13 BCR K 103     -42.270 139.983   8.546  1.00 27.42    -0.062 C 
HETATM   18  C14 BCR K 103     -42.001 138.773   9.084  1.00 27.03     0.007 C 
HETATM   19  C15 BCR K 103     -40.940 137.881   8.591  1.00 26.89     0.001 C 
HETATM   20  C16 BCR K 103     -40.641 136.719   9.194  1.00 26.54     0.001 C 
HETATM   21  C17 BCR K 103     -39.599 135.840   8.634  1.00 26.43     0.007 C 
HETATM   22  C18 BCR K 103     -39.236 134.646   9.152  1.00 31.95    -0.062 C 
HETATM   23  C19 BCR K 103     -38.187 133.868   8.439  1.00 31.47     0.007 C 
HETATM   24  C20 BCR K 103     -37.925 132.572   8.659  1.00 26.23     0.001 C 
HETATM   25  C21 BCR K 103     -36.882 131.883   7.880  1.00 25.64     0.007 C 
HETATM   26  C22 BCR K 103     -36.798 130.523   7.823  1.00 26.67    -0.062 C 
HETATM   27  C23 BCR K 103     -35.841 129.929   7.071  1.00 34.76     0.007 C 
HETATM   28  C24 BCR K 103     -35.671 128.598   7.004  1.00 34.12     0.009 C 
HETATM   29  C25 BCR K 103     -34.626 127.936   6.163  1.00 32.06    -0.048 C 
HETATM   30  C26 BCR K 103     -33.312 128.043   6.465  1.00 27.37    -0.077 C 
HETATM   31  C27 BCR K 103     -32.212 127.386   5.658  1.00 31.26     0.034 C 
HETATM   32  C28 BCR K 103     -32.694 126.869   4.307  1.00 25.08     0.005 C 
HETATM   33  C29 BCR K 103     -34.045 126.183   4.423  1.00 31.88     0.014 C 
HETATM   34  C30 BCR K 103     -35.113 127.117   4.971  1.00 32.84    -0.020 C 
HETATM   35  C35 BCR K 103     -41.498 140.511   7.371  1.00 27.76     0.048 C 
HETATM   36  C36 BCR K 103     -39.866 134.114  10.417  1.00 25.82     0.048 C 
HETATM   37  C37 BCR K 103     -37.770 129.670   8.581  1.00 29.75     0.048 C 
HETATM   38  C38 BCR K 103     -32.838 128.829   7.651  1.00 27.96     0.044 C 
HETATM   39  C39 BCR K 103     -36.270 126.245   5.434  1.00 28.93     0.020 C 
HETATM   40  C40 BCR K 103     -35.633 128.008   3.848  1.00 24.62     0.020 C 
ENDROOT
TORSDOF 10
