REMARK VINA RESULT:    -7.072      3.584     16.404
REMARK INTER + INTRA:          -9.866
REMARK INTER:                  -9.037
REMARK INTRA:                  -0.829
REMARK UNBOUND:                -2.795
REMARK  0 active torsions:
REMARK  status: ('A' for Active; 'I' for Inactive)
REMARK       I    between atoms: C6_6  and  C7_7 
REMARK       I    between atoms: C8_8  and  C9_9 
REMARK       I    between atoms: C10_10  and  C11_11 
REMARK       I    between atoms: C12_16  and  C13_17 
REMARK       I    between atoms: C14_18  and  C15_19 
REMARK       I    between atoms: C16_20  and  C17_21 
REMARK       I    between atoms: C18_22  and  C19_23 
REMARK       I    between atoms: C20_24  and  C21_25 
REMARK       I    between atoms: C22_26  and  C23_27 
REMARK       I    between atoms: C24_28  and  C25_29 
ROOT
HETATM    1  C1  BCR B 618     -33.422 128.324   6.346  1.00 52.27    -0.020 C 
HETATM    2  C2  BCR B 618     -32.828 126.918   6.273  1.00 40.31     0.014 C 
HETATM    3  C3  BCR B 618     -33.820 125.850   6.713  1.00 36.34     0.005 C 
HETATM    4  C4  BCR B 618     -34.228 126.085   8.157  1.00 43.90     0.034 C 
HETATM    5  C5  BCR B 618     -34.556 127.538   8.437  1.00 42.39    -0.077 C 
HETATM    6  C6  BCR B 618     -34.198 128.550   7.631  1.00 41.32    -0.048 C 
HETATM    7  C7  BCR B 618     -34.574 129.930   8.026  1.00 37.02     0.009 C 
HETATM    8  C8  BCR B 618     -35.737 130.504   7.683  1.00 40.38     0.007 C 
HETATM    9  C9  BCR B 618     -36.075 131.881   8.124  1.00 43.44    -0.062 C 
HETATM   10  C10 BCR B 618     -37.323 132.344   7.946  1.00 33.05     0.007 C 
HETATM   11  C11 BCR B 618     -37.787 133.673   8.368  1.00 38.44     0.001 C 
HETATM   12  C33 BCR B 618     -35.313 127.837   9.690  1.00 43.01     0.044 C 
HETATM   13  C31 BCR B 618     -34.380 128.551   5.178  1.00 47.24     0.020 C 
HETATM   14  C32 BCR B 618     -32.268 129.321   6.291  1.00 46.10     0.020 C 
HETATM   15  C34 BCR B 618     -35.042 132.750   8.769  1.00 38.09     0.048 C 
HETATM   16  C12 BCR B 618     -39.034 134.030   8.030  1.00 45.48     0.007 C 
HETATM   17  C13 BCR B 618     -39.631 135.317   8.441  1.00 46.67    -0.062 C 
HETATM   18  C14 BCR B 618     -40.907 135.607   8.073  1.00 36.87     0.007 C 
HETATM   19  C15 BCR B 618     -41.612 136.845   8.444  1.00 33.54     0.001 C 
HETATM   20  C16 BCR B 618     -42.945 136.939   8.348  1.00 30.58     0.001 C 
HETATM   21  C17 BCR B 618     -43.672 138.171   8.735  1.00 36.03     0.007 C 
HETATM   22  C18 BCR B 618     -45.001 138.358   8.551  1.00 37.55    -0.062 C 
HETATM   23  C19 BCR B 618     -45.619 139.644   8.983  1.00 41.57     0.007 C 
HETATM   24  C20 BCR B 618     -46.930 139.918   9.079  1.00 44.50     0.001 C 
HETATM   25  C21 BCR B 618     -47.292 141.269   9.547  1.00 27.16     0.007 C 
HETATM   26  C22 BCR B 618     -48.519 141.691   9.931  1.00 45.91    -0.062 C 
HETATM   27  C23 BCR B 618     -48.673 142.975  10.348  1.00 42.15     0.007 C 
HETATM   28  C24 BCR B 618     -49.836 143.405  10.862  1.00 36.90     0.009 C 
HETATM   29  C25 BCR B 618     -50.130 144.780  11.343  1.00 40.99    -0.048 C 
HETATM   30  C26 BCR B 618     -49.494 145.311  12.419  1.00 43.47    -0.077 C 
HETATM   31  C27 BCR B 618     -49.794 146.707  12.930  1.00 44.02     0.034 C 
HETATM   32  C28 BCR B 618     -51.120 147.237  12.393  1.00 46.97     0.005 C 
HETATM   33  C29 BCR B 618     -51.243 147.027  10.890  1.00 50.46     0.014 C 
HETATM   34  C30 BCR B 618     -51.218 145.540  10.564  1.00 44.40    -0.020 C 
HETATM   35  C35 BCR B 618     -38.806 136.220   9.316  1.00 29.80     0.048 C 
HETATM   36  C36 BCR B 618     -45.850 137.293   7.918  1.00 38.94     0.048 C 
HETATM   37  C37 BCR B 618     -49.716 140.777   9.874  1.00 32.34     0.048 C 
HETATM   38  C38 BCR B 618     -48.432 144.575  13.195  1.00 35.16     0.044 C 
HETATM   39  C39 BCR B 618     -51.007 145.374   9.063  1.00 36.65     0.020 C 
HETATM   40  C40 BCR B 618     -52.598 144.965  10.850  1.00 45.60     0.020 C 
ENDROOT
TORSDOF 10
