REMARK VINA RESULT:    -5.912      3.586      4.965
REMARK INTER + INTRA:         -10.322
REMARK INTER:                  -3.956
REMARK INTRA:                  -6.366
REMARK UNBOUND:                -4.410
REMARK  0 active torsions:
REMARK  status: ('A' for Active; 'I' for Inactive)
REMARK       I    between atoms: C6_6  and  C7_7 
REMARK       I    between atoms: C8_8  and  C9_9 
REMARK       I    between atoms: C10_10  and  C11_11 
REMARK       I    between atoms: C12_16  and  C13_17 
REMARK       I    between atoms: C14_18  and  C15_19 
REMARK       I    between atoms: C16_20  and  C17_21 
REMARK       I    between atoms: C18_22  and  C19_23 
REMARK       I    between atoms: C20_24  and  C21_25 
REMARK       I    between atoms: C22_26  and  C23_27 
REMARK       I    between atoms: C24_28  and  C25_29 
ROOT
HETATM    1  C1  BCR T 103     -34.500 127.251   4.699  1.00 55.01    -0.020 C 
HETATM    2  C2  BCR T 103     -33.773 126.141   3.943  1.00 54.78     0.014 C 
HETATM    3  C3  BCR T 103     -32.397 126.562   3.480  1.00 56.23     0.005 C 
HETATM    4  C4  BCR T 103     -31.549 126.921   4.685  1.00 54.38     0.034 C 
HETATM    5  C5  BCR T 103     -32.255 127.900   5.592  1.00 47.44    -0.077 C 
HETATM    6  C6  BCR T 103     -33.592 128.069   5.612  1.00 47.96    -0.048 C 
HETATM    7  C7  BCR T 103     -34.159 129.075   6.573  1.00 51.80     0.009 C 
HETATM    8  C8  BCR T 103     -35.337 129.726   6.458  1.00 51.28     0.007 C 
HETATM    9  C9  BCR T 103     -35.825 130.716   7.457  1.00 64.16    -0.062 C 
HETATM   10  C10 BCR T 103     -37.082 131.197   7.391  1.00 67.33     0.007 C 
HETATM   11  C11 BCR T 103     -37.568 132.203   8.340  1.00 59.85     0.001 C 
HETATM   12  C33 BCR T 103     -31.370 128.685   6.516  1.00 48.69     0.044 C 
HETATM   13  C31 BCR T 103     -35.567 126.567   5.547  1.00 45.31     0.020 C 
HETATM   14  C32 BCR T 103     -35.146 128.149   3.649  1.00 61.46     0.020 C 
HETATM   15  C34 BCR T 103     -34.926 131.202   8.558  1.00 54.20     0.048 C 
HETATM   16  C12 BCR T 103     -38.729 132.785   8.041  1.00 68.58     0.007 C 
HETATM   17  C13 BCR T 103     -39.402 133.876   8.785  1.00 64.03    -0.062 C 
HETATM   18  C14 BCR T 103     -40.562 134.298   8.246  1.00 47.03     0.007 C 
HETATM   19  C15 BCR T 103     -41.425 135.419   8.642  1.00 51.60     0.001 C 
HETATM   20  C16 BCR T 103     -42.750 135.427   8.803  1.00 44.47     0.001 C 
HETATM   21  C17 BCR T 103     -43.351 136.739   9.073  1.00 54.46     0.007 C 
HETATM   22  C18 BCR T 103     -44.679 136.991   9.029  1.00 50.22    -0.062 C 
HETATM   23  C19 BCR T 103     -45.127 138.395   9.222  1.00 41.36     0.007 C 
HETATM   24  C20 BCR T 103     -46.389 138.852   9.232  1.00 48.04     0.001 C 
HETATM   25  C21 BCR T 103     -46.550 140.312   9.356  1.00 44.16     0.007 C 
HETATM   26  C22 BCR T 103     -47.695 141.006   9.169  1.00 49.78    -0.062 C 
HETATM   27  C23 BCR T 103     -47.627 142.350   9.260  1.00 42.38     0.007 C 
HETATM   28  C24 BCR T 103     -48.660 143.199   9.102  1.00 34.76     0.009 C 
HETATM   29  C25 BCR T 103     -48.509 144.689   9.187  1.00 40.00    -0.048 C 
HETATM   30  C26 BCR T 103     -47.851 145.296  10.201  1.00 28.46    -0.077 C 
HETATM   31  C27 BCR T 103     -47.693 146.811  10.280  1.00 34.96     0.034 C 
HETATM   32  C28 BCR T 103     -47.842 147.452   8.903  1.00 30.67     0.005 C 
HETATM   33  C29 BCR T 103     -49.191 147.006   8.353  1.00 31.82     0.014 C 
HETATM   34  C30 BCR T 103     -49.152 145.512   8.056  1.00 43.83    -0.020 C 
HETATM   35  C35 BCR T 103     -38.825 134.478  10.040  1.00 48.93     0.048 C 
HETATM   36  C36 BCR T 103     -45.655 135.885   8.727  1.00 42.51     0.048 C 
HETATM   37  C37 BCR T 103     -49.001 140.322   8.844  1.00 33.12     0.048 C 
HETATM   38  C38 BCR T 103     -47.221 144.577  11.365  1.00 31.70     0.044 C 
HETATM   39  C39 BCR T 103     -48.395 145.344   6.742  1.00 33.53     0.020 C 
HETATM   40  C40 BCR T 103     -50.589 145.030   7.860  1.00 32.47     0.020 C 
ENDROOT
TORSDOF 10
