REMARK VINA RESULT:   -12.095      3.317      5.120
REMARK INTER + INTRA:         -14.907
REMARK INTER:                  -7.952
REMARK INTRA:                  -6.956
REMARK UNBOUND:                -2.813
REMARK  0 active torsions:
REMARK  status: ('A' for Active; 'I' for Inactive)
REMARK       I    between atoms: C6_6  and  C7_7 
REMARK       I    between atoms: C8_8  and  C9_9 
REMARK       I    between atoms: C10_10  and  C11_11 
REMARK       I    between atoms: C12_16  and  C13_17 
REMARK       I    between atoms: C14_18  and  C15_19 
REMARK       I    between atoms: C16_20  and  C17_21 
REMARK       I    between atoms: C18_22  and  C19_23 
REMARK       I    between atoms: C20_24  and  C21_25 
REMARK       I    between atoms: C22_26  and  C23_27 
REMARK       I    between atoms: C24_28  and  C25_29 
ROOT
HETATM    1  C1  BCR A 410     -34.901 131.022   8.085  1.00 50.64    -0.020 C 
HETATM    2  C2  BCR A 410     -33.769 130.182   8.656  1.00 44.64     0.014 C 
HETATM    3  C3  BCR A 410     -33.400 130.688  10.033  1.00 41.78     0.005 C 
HETATM    4  C4  BCR A 410     -34.554 130.388  10.962  1.00 42.03     0.034 C 
HETATM    5  C5  BCR A 410     -35.834 130.971  10.407  1.00 39.65    -0.077 C 
HETATM    6  C6  BCR A 410     -36.000 131.270   9.103  1.00 44.55    -0.048 C 
HETATM    7  C7  BCR A 410     -37.282 131.844   8.601  1.00 44.34     0.009 C 
HETATM    8  C8  BCR A 410     -37.676 133.076   8.951  1.00 45.94     0.007 C 
HETATM    9  C9  BCR A 410     -38.921 133.721   8.487  1.00 39.93    -0.062 C 
HETATM   10  C10 BCR A 410     -39.206 134.955   8.941  1.00 44.48     0.007 C 
HETATM   11  C11 BCR A 410     -40.379 135.739   8.560  1.00 36.88     0.001 C 
HETATM   12  C33 BCR A 410     -36.919 131.192  11.410  1.00 34.70     0.044 C 
HETATM   13  C31 BCR A 410     -35.504 130.280   6.897  1.00 36.72     0.020 C 
HETATM   14  C32 BCR A 410     -34.300 132.346   7.622  1.00 32.71     0.020 C 
HETATM   15  C34 BCR A 410     -39.830 133.017   7.525  1.00 43.39     0.048 C 
HETATM   16  C12 BCR A 410     -40.534 136.958   9.095  1.00 44.33     0.007 C 
HETATM   17  C13 BCR A 410     -41.658 137.867   8.765  1.00 40.83    -0.062 C 
HETATM   18  C14 BCR A 410     -41.610 139.145   9.220  1.00 44.56     0.007 C 
HETATM   19  C15 BCR A 410     -42.620 140.188   8.958  1.00 44.82     0.001 C 
HETATM   20  C16 BCR A 410     -42.519 141.428   9.486  1.00 40.83     0.001 C 
HETATM   21  C17 BCR A 410     -43.525 142.456   9.170  1.00 39.03     0.007 C 
HETATM   22  C18 BCR A 410     -43.541 143.750   9.583  1.00 45.07    -0.062 C 
HETATM   23  C19 BCR A 410     -44.650 144.614   9.112  1.00 37.89     0.007 C 
HETATM   24  C20 BCR A 410     -44.935 145.825   9.597  1.00 33.16     0.001 C 
HETATM   25  C21 BCR A 410     -46.089 146.533   9.013  1.00 38.89     0.007 C 
HETATM   26  C22 BCR A 410     -46.723 147.572   9.599  1.00 47.65    -0.062 C 
HETATM   27  C23 BCR A 410     -47.786 148.159   8.986  1.00 36.20     0.007 C 
HETATM   28  C24 BCR A 410     -48.390 149.252   9.473  1.00 32.05     0.009 C 
HETATM   29  C25 BCR A 410     -49.549 149.967   8.852  1.00 34.54    -0.048 C 
HETATM   30  C26 BCR A 410     -49.418 150.613   7.667  1.00 38.36    -0.077 C 
HETATM   31  C27 BCR A 410     -50.574 151.349   7.011  1.00 39.17     0.034 C 
HETATM   32  C28 BCR A 410     -51.934 150.926   7.573  1.00 35.95     0.005 C 
HETATM   33  C29 BCR A 410     -51.847 151.004   9.088  1.00 35.50     0.014 C 
HETATM   34  C30 BCR A 410     -50.868 149.962   9.615  1.00 37.31    -0.020 C 
HETATM   35  C35 BCR A 410     -42.806 137.350   7.937  1.00 35.03     0.048 C 
HETATM   36  C36 BCR A 410     -42.499 144.331  10.495  1.00 40.96     0.048 C 
HETATM   37  C37 BCR A 410     -46.236 148.072  10.925  1.00 31.89     0.048 C 
HETATM   38  C38 BCR A 410     -48.105 150.633   6.921  1.00 30.43     0.044 C 
HETATM   39  C39 BCR A 410     -51.531 148.589   9.519  1.00 34.95     0.020 C 
HETATM   40  C40 BCR A 410     -50.584 150.297  11.074  1.00 30.42     0.020 C 
ENDROOT
TORSDOF 10
