REMARK VINA RESULT:    -6.260      0.000      0.000
REMARK INTER + INTRA:         -10.086
REMARK INTER:                  -6.260
REMARK INTRA:                  -3.826
REMARK UNBOUND:                -3.826
REMARK  0 active torsions:
REMARK  status: ('A' for Active; 'I' for Inactive)
REMARK       I    between atoms: C6_6  and  C7_7 
REMARK       I    between atoms: C8_8  and  C9_9 
REMARK       I    between atoms: C10_10  and  C11_11 
REMARK       I    between atoms: C12_16  and  C13_17 
REMARK       I    between atoms: C14_18  and  C15_19 
REMARK       I    between atoms: C16_20  and  C17_21 
REMARK       I    between atoms: C18_22  and  C19_23 
REMARK       I    between atoms: C20_24  and  C21_25 
REMARK       I    between atoms: C22_26  and  C23_27 
REMARK       I    between atoms: C24_28  and  C25_29 
ROOT
HETATM    1  C1  BCR D 405     -33.370 129.256   8.193  1.00 23.81    -0.020 C 
HETATM    2  C2  BCR D 405     -32.947 128.007   7.440  1.00 23.81     0.014 C 
HETATM    3  C3  BCR D 405     -33.288 128.062   5.986  1.00 23.79     0.005 C 
HETATM    4  C4  BCR D 405     -34.746 128.368   5.760  1.00 23.78     0.034 C 
HETATM    5  C5  BCR D 405     -35.345 129.273   6.763  1.00 23.75    -0.077 C 
HETATM    6  C6  BCR D 405     -34.744 129.720   7.875  1.00 23.76    -0.048 C 
HETATM    7  C7  BCR D 405     -35.382 130.605   8.867  1.00 23.73     0.009 C 
HETATM    8  C8  BCR D 405     -35.559 131.925   8.743  1.00 23.75     0.007 C 
HETATM    9  C9  BCR D 405     -36.478 132.694   9.576  1.00 23.73    -0.062 C 
HETATM   10  C10 BCR D 405     -36.848 133.935   9.223  1.00 23.72     0.007 C 
HETATM   11  C11 BCR D 405     -37.649 134.832  10.028  1.00 23.71     0.001 C 
HETATM   12  C33 BCR D 405     -36.707 129.657   6.381  1.00 23.71     0.044 C 
HETATM   13  C31 BCR D 405     -32.347 130.339   7.928  1.00 23.82     0.020 C 
HETATM   14  C32 BCR D 405     -33.282 128.888   9.657  1.00 23.83     0.020 C 
HETATM   15  C34 BCR D 405     -36.770 132.161  10.920  1.00 23.71     0.048 C 
HETATM   16  C12 BCR D 405     -38.248 135.890   9.460  1.00 23.80     0.007 C 
HETATM   17  C13 BCR D 405     -39.211 136.771  10.096  1.00 23.88    -0.062 C 
HETATM   18  C14 BCR D 405     -39.715 137.792   9.385  1.00 24.05     0.007 C 
HETATM   19  C15 BCR D 405     -40.647 138.787   9.852  1.00 24.33     0.001 C 
HETATM   20  C16 BCR D 405     -41.367 139.506   8.971  1.00 24.74     0.001 C 
HETATM   21  C17 BCR D 405     -42.304 140.505   9.415  1.00 25.24     0.007 C 
HETATM   22  C18 BCR D 405     -43.168 141.184   8.645  1.00 25.66    -0.062 C 
HETATM   23  C19 BCR D 405     -44.152 142.035   9.279  1.00 26.14     0.007 C 
HETATM   24  C20 BCR D 405     -45.085 142.730   8.625  1.00 26.76     0.001 C 
HETATM   25  C21 BCR D 405     -46.016 143.491   9.421  1.00 27.46     0.007 C 
HETATM   26  C22 BCR D 405     -47.031 144.245   8.986  1.00 28.07    -0.062 C 
HETATM   27  C23 BCR D 405     -48.094 144.595   9.920  1.00 28.67     0.007 C 
HETATM   28  C24 BCR D 405     -49.372 144.750   9.542  1.00 29.42     0.009 C 
HETATM   29  C25 BCR D 405     -50.556 144.775  10.414  1.00 29.98    -0.048 C 
HETATM   30  C26 BCR D 405     -51.112 143.665  10.922  1.00 30.20    -0.077 C 
HETATM   31  C27 BCR D 405     -52.299 143.608  11.803  1.00 30.31     0.034 C 
HETATM   32  C28 BCR D 405     -52.600 144.942  12.436  1.00 30.34     0.005 C 
HETATM   33  C29 BCR D 405     -52.516 146.018  11.387  1.00 30.21     0.014 C 
HETATM   34  C30 BCR D 405     -51.152 146.114  10.724  1.00 30.10    -0.020 C 
HETATM   35  C35 BCR D 405     -39.667 136.499  11.474  1.00 23.85     0.048 C 
HETATM   36  C36 BCR D 405     -43.179 141.061   7.177  1.00 25.62     0.048 C 
HETATM   37  C37 BCR D 405     -47.172 144.605   7.561  1.00 28.05     0.048 C 
HETATM   38  C38 BCR D 405     -50.608 142.297  10.679  1.00 30.33     0.044 C 
HETATM   39  C39 BCR D 405     -50.202 146.913  11.595  1.00 30.14     0.020 C 
HETATM   40  C40 BCR D 405     -51.418 146.922   9.463  1.00 30.12     0.020 C 
ENDROOT
TORSDOF 10
