REMARK VINA RESULT:    -8.188      2.838      4.859
REMARK INTER + INTRA:         -14.466
REMARK INTER:                 -11.748
REMARK INTRA:                  -2.718
REMARK UNBOUND:                -6.278
REMARK  0 active torsions:
REMARK  status: ('A' for Active; 'I' for Inactive)
REMARK       I    between atoms: C6_6  and  C7_7 
REMARK       I    between atoms: C8_8  and  C9_9 
REMARK       I    between atoms: C10_10  and  C11_11 
REMARK       I    between atoms: C12_16  and  C13_17 
REMARK       I    between atoms: C14_18  and  C15_19 
REMARK       I    between atoms: C16_20  and  C17_21 
REMARK       I    between atoms: C18_22  and  C19_23 
REMARK       I    between atoms: C20_24  and  C21_25 
REMARK       I    between atoms: C22_26  and  C23_27 
REMARK       I    between atoms: C24_28  and  C25_29 
ROOT
HETATM    1  C1  BCR B 619     -33.931 126.871   6.856  1.00 27.66    -0.020 C 
HETATM    2  C2  BCR B 619     -33.100 126.051   5.872  1.00 27.98     0.014 C 
HETATM    3  C3  BCR B 619     -32.779 126.853   4.625  1.00 25.52     0.005 C 
HETATM    4  C4  BCR B 619     -31.987 128.100   5.000  1.00 19.63     0.034 C 
HETATM    5  C5  BCR B 619     -32.632 128.897   6.118  1.00 32.40    -0.077 C 
HETATM    6  C6  BCR B 619     -33.521 128.340   6.970  1.00 20.68    -0.048 C 
HETATM    7  C7  BCR B 619     -34.167 129.117   8.089  1.00 20.08     0.009 C 
HETATM    8  C8  BCR B 619     -34.895 130.231   7.884  1.00 22.81     0.007 C 
HETATM    9  C9  BCR B 619     -35.568 131.001   8.949  1.00 20.22    -0.062 C 
HETATM   10  C10 BCR B 619     -36.198 132.149   8.615  1.00 19.06     0.007 C 
HETATM   11  C11 BCR B 619     -36.939 133.000   9.556  1.00 16.29     0.001 C 
HETATM   12  C33 BCR B 619     -32.205 130.346   6.226  1.00 23.77     0.044 C 
HETATM   13  C31 BCR B 619     -33.822 126.212   8.228  1.00 21.20     0.020 C 
HETATM   14  C32 BCR B 619     -35.377 126.845   6.397  1.00 23.33     0.020 C 
HETATM   15  C34 BCR B 619     -35.587 130.452  10.348  1.00 16.40     0.048 C 
HETATM   16  C12 BCR B 619     -37.700 133.995   9.068  1.00 25.63     0.007 C 
HETATM   17  C13 BCR B 619     -38.512 134.924   9.903  1.00 24.60    -0.062 C 
HETATM   18  C14 BCR B 619     -38.990 136.075   9.344  1.00 21.11     0.007 C 
HETATM   19  C15 BCR B 619     -39.816 137.098  10.015  1.00 20.94     0.001 C 
HETATM   20  C16 BCR B 619     -40.133 138.299   9.477  1.00 19.81     0.001 C 
HETATM   21  C17 BCR B 619     -40.984 139.225  10.251  1.00 20.06     0.007 C 
HETATM   22  C18 BCR B 619     -41.469 140.409   9.810  1.00 27.17    -0.062 C 
HETATM   23  C19 BCR B 619     -42.322 141.228  10.706  1.00 20.29     0.007 C 
HETATM   24  C20 BCR B 619     -42.785 142.467  10.436  1.00 21.61     0.001 C 
HETATM   25  C21 BCR B 619     -43.617 143.140  11.454  1.00 24.02     0.007 C 
HETATM   26  C22 BCR B 619     -43.956 144.449  11.428  1.00 35.60    -0.062 C 
HETATM   27  C23 BCR B 619     -44.720 144.974  12.422  1.00 23.38     0.007 C 
HETATM   28  C24 BCR B 619     -45.102 146.261  12.466  1.00 28.64     0.009 C 
HETATM   29  C25 BCR B 619     -45.959 146.912  13.515  1.00 39.14    -0.048 C 
HETATM   30  C26 BCR B 619     -45.535 147.149  14.777  1.00 29.93    -0.077 C 
HETATM   31  C27 BCR B 619     -46.418 147.827  15.786  1.00 21.81     0.034 C 
HETATM   32  C28 BCR B 619     -47.851 147.388  15.588  1.00 31.07     0.005 C 
HETATM   33  C29 BCR B 619     -48.314 147.728  14.188  1.00 46.92     0.014 C 
HETATM   34  C30 BCR B 619     -47.349 147.333  13.069  1.00 37.04    -0.020 C 
HETATM   35  C35 BCR B 619     -38.778 134.557  11.340  1.00 15.93     0.048 C 
HETATM   36  C36 BCR B 619     -41.142 140.937   8.446  1.00 15.91     0.048 C 
HETATM   37  C37 BCR B 619     -43.490 145.304  10.286  1.00 38.85     0.048 C 
HETATM   38  C38 BCR B 619     -44.175 146.757  15.262  1.00 32.51     0.044 C 
HETATM   39  C39 BCR B 619     -47.199 148.536  12.143  1.00 49.08     0.020 C 
HETATM   40  C40 BCR B 619     -47.979 146.192  12.286  1.00 46.61     0.020 C 
ENDROOT
TORSDOF 10
