REMARK VINA RESULT:   -10.198      0.000      0.000
REMARK INTER + INTRA:         -17.028
REMARK INTER:                 -10.198
REMARK INTRA:                  -6.830
REMARK UNBOUND:                -6.830
REMARK  0 active torsions:
REMARK  status: ('A' for Active; 'I' for Inactive)
REMARK       I    between atoms: C6_6  and  C7_7 
REMARK       I    between atoms: C8_8  and  C9_9 
REMARK       I    between atoms: C10_10  and  C11_11 
REMARK       I    between atoms: C12_16  and  C13_17 
REMARK       I    between atoms: C14_18  and  C15_19 
REMARK       I    between atoms: C16_20  and  C17_21 
REMARK       I    between atoms: C18_22  and  C19_23 
REMARK       I    between atoms: C20_24  and  C21_25 
REMARK       I    between atoms: C22_26  and  C23_27 
REMARK       I    between atoms: C24_28  and  C25_29 
ROOT
HETATM    1  C1  BCR C 515     -35.200 131.082   8.392  1.00 32.23    -0.020 C 
HETATM    2  C2  BCR C 515     -34.262 130.091   9.049  1.00 37.78     0.014 C 
HETATM    3  C3  BCR C 515     -34.154 130.224  10.569  1.00 45.00     0.005 C 
HETATM    4  C4  BCR C 515     -34.725 131.441  11.230  1.00 59.48     0.034 C 
HETATM    5  C5  BCR C 515     -36.085 131.634  10.651  1.00 57.44    -0.077 C 
HETATM    6  C6  BCR C 515     -36.242 131.650   9.320  1.00 39.14    -0.048 C 
HETATM    7  C7  BCR C 515     -37.381 132.415   8.779  1.00 38.26     0.009 C 
HETATM    8  C8  BCR C 515     -37.664 133.667   9.248  1.00 38.22     0.007 C 
HETATM    9  C9  BCR C 515     -38.766 134.464   8.672  1.00 35.71    -0.062 C 
HETATM   10  C10 BCR C 515     -39.057 135.693   9.220  1.00 34.83     0.007 C 
HETATM   11  C11 BCR C 515     -40.141 136.595   8.839  1.00 34.31     0.001 C 
HETATM   12  C33 BCR C 515     -37.235 131.710  11.653  1.00 52.94     0.044 C 
HETATM   13  C31 BCR C 515     -35.785 130.440   7.165  1.00 31.56     0.020 C 
HETATM   14  C32 BCR C 515     -34.357 132.256   7.921  1.00 40.32     0.020 C 
HETATM   15  C34 BCR C 515     -39.605 133.853   7.586  1.00 33.98     0.048 C 
HETATM   16  C12 BCR C 515     -40.323 137.805   9.492  1.00 35.08     0.007 C 
HETATM   17  C13 BCR C 515     -41.413 138.784   9.155  1.00 29.52    -0.062 C 
HETATM   18  C14 BCR C 515     -41.342 140.067   9.561  1.00 31.26     0.007 C 
HETATM   19  C15 BCR C 515     -42.298 141.120   9.284  1.00 33.53     0.001 C 
HETATM   20  C16 BCR C 515     -42.143 142.376   9.738  1.00 33.16     0.001 C 
HETATM   21  C17 BCR C 515     -43.193 143.314   9.411  1.00 28.73     0.007 C 
HETATM   22  C18 BCR C 515     -43.182 144.631   9.748  1.00 39.95    -0.062 C 
HETATM   23  C19 BCR C 515     -44.379 145.432   9.356  1.00 34.36     0.007 C 
HETATM   24  C20 BCR C 515     -44.628 146.667   9.782  1.00 34.09     0.001 C 
HETATM   25  C21 BCR C 515     -45.834 147.349   9.376  1.00 39.52     0.007 C 
HETATM   26  C22 BCR C 515     -46.192 148.601   9.741  1.00 32.90    -0.062 C 
HETATM   27  C23 BCR C 515     -47.498 149.093   9.298  1.00 33.38     0.007 C 
HETATM   28  C24 BCR C 515     -48.159 150.032   9.984  1.00 33.00     0.009 C 
HETATM   29  C25 BCR C 515     -49.561 150.378   9.675  1.00 30.17    -0.048 C 
HETATM   30  C26 BCR C 515     -50.034 150.571   8.425  1.00 29.00    -0.077 C 
HETATM   31  C27 BCR C 515     -51.502 150.845   8.145  1.00 31.78     0.034 C 
HETATM   32  C28 BCR C 515     -52.396 150.478   9.294  1.00 32.86     0.005 C 
HETATM   33  C29 BCR C 515     -51.858 151.020  10.596  1.00 30.76     0.014 C 
HETATM   34  C30 BCR C 515     -50.490 150.396  10.888  1.00 31.35    -0.020 C 
HETATM   35  C35 BCR C 515     -42.546 138.228   8.322  1.00 32.99     0.048 C 
HETATM   36  C36 BCR C 515     -42.028 145.216  10.511  1.00 36.35     0.048 C 
HETATM   37  C37 BCR C 515     -45.355 149.497  10.596  1.00 35.38     0.048 C 
HETATM   38  C38 BCR C 515     -49.176 150.659   7.156  1.00 28.66     0.044 C 
HETATM   39  C39 BCR C 515     -50.602 148.949  11.340  1.00 30.19     0.020 C 
HETATM   40  C40 BCR C 515     -49.896 151.214  12.005  1.00 33.01     0.020 C 
ENDROOT
TORSDOF 10
