MODEL 1
REMARK VINA RESULT:   -10.739      0.000      0.000
REMARK INTER + INTRA:         -11.299
REMARK INTER:                 -10.739
REMARK INTRA:                  -0.560
REMARK UNBOUND:                -0.560
REMARK  0 active torsions:
REMARK  status: ('A' for Active; 'I' for Inactive)
REMARK       I    between atoms: C3_3  and  O3_21 
REMARK       I    between atoms: C6_6  and  C7_7 
REMARK       I    between atoms: C8_8  and  C9_9 
REMARK       I    between atoms: C10_10  and  C11_11 
REMARK       I    between atoms: C12_12  and  C13_13 
REMARK       I    between atoms: C14_14  and  C15_15 
REMARK       I    between atoms: C23_25  and  O23_43 
REMARK       I    between atoms: C26_28  and  C27_29 
REMARK       I    between atoms: C28_30  and  C29_31 
REMARK       I    between atoms: C30_32  and  C31_33 
REMARK       I    between atoms: C32_34  and  C33_35 
REMARK       I    between atoms: C34_36  and  C35_37 
ROOT
HETATM    1  C1  STQ G1621     -34.118 128.487   7.000  1.00 57.46    -0.018 C 
HETATM    2  C2  STQ G1621     -33.335 128.161   5.737  1.00 54.62     0.045 C 
HETATM    3  C3  STQ G1621     -31.818 128.363   5.751  1.00 54.91     0.123 C 
HETATM    4  C4  STQ G1621     -31.262 129.152   6.928  1.00 56.99     0.066 C 
HETATM    5  C5  STQ G1621     -32.291 130.087   7.502  1.00 60.65    -0.074 C 
HETATM    6  C6  STQ G1621     -33.541 129.680   7.727  1.00 60.28    -0.048 C 
HETATM    7  C7  STQ G1621     -34.405 130.350   8.723  1.00 57.11     0.009 C 
HETATM    8  C8  STQ G1621     -35.047 131.478   8.447  1.00 53.31     0.007 C 
HETATM    9  C9  STQ G1621     -35.928 132.104   9.436  1.00 51.73    -0.062 C 
HETATM   10  C10 STQ G1621     -36.538 133.223   9.061  1.00 51.58     0.007 C 
HETATM   11  C11 STQ G1621     -37.485 133.954   9.874  1.00 50.17     0.001 C 
HETATM   12  C12 STQ G1621     -38.165 134.842   9.170  1.00 45.86     0.007 C 
HETATM   13  C13 STQ G1621     -39.235 135.672   9.718  1.00 47.23    -0.062 C 
HETATM   14  C14 STQ G1621     -39.826 136.545   8.898  1.00 50.33     0.007 C 
HETATM   15  C15 STQ G1621     -40.929 137.365   9.367  1.00 51.13     0.001 C 
HETATM   16  C16 STQ G1621     -34.201 127.261   7.909  1.00 59.48     0.020 C 
HETATM   17  C17 STQ G1621     -35.537 128.836   6.589  1.00 57.14     0.020 C 
HETATM   18  C18 STQ G1621     -31.548 130.900   8.515  1.00 65.36     0.044 C 
HETATM   19  C19 STQ G1621     -36.148 131.500  10.785  1.00 51.90     0.048 C 
HETATM   20  C20 STQ G1621     -39.684 135.492  11.135  1.00 47.72     0.048 C 
HETATM   21  O3  STQ G1621     -31.218 127.066   5.756  1.00 51.54    -0.395 OA
ATOM     22  H3  STQ G1621     -30.277 127.192   5.764  1.00  0.00     0.210 HD
HETATM   23  C21 STQ G1621     -50.615 145.292   9.076  1.00 40.30    -0.035 C 
HETATM   24  C22 STQ G1621     -51.781 145.996   9.731  1.00 42.73     0.045 C 
HETATM   25  C23 STQ G1621     -51.514 147.450  10.069  1.00 45.73     0.142 C 
HETATM   26  C24 STQ G1621     -50.223 147.564  10.829  1.00 49.58     0.007 C 
HETATM   27  C25 STQ G1621     -49.205 146.712  10.645  1.00 43.92    -0.077 C 
HETATM   28  C26 STQ G1621     -49.359 145.385   9.951  1.00 40.16     0.044 C 
HETATM   29  C27 STQ G1621     -48.138 145.074   9.120  1.00 36.17    -0.016 C 
HETATM   30  C28 STQ G1621     -47.554 143.904   9.299  1.00 36.75     0.003 C 
HETATM   31  C29 STQ G1621     -46.391 143.469   8.536  1.00 40.23    -0.062 C 
HETATM   32  C30 STQ G1621     -46.099 142.177   8.654  1.00 39.98     0.007 C 
HETATM   33  C31 STQ G1621     -44.986 141.544   7.986  1.00 42.92     0.001 C 
HETATM   34  C32 STQ G1621     -44.407 140.592   8.696  1.00 46.60     0.007 C 
HETATM   35  C33 STQ G1621     -43.266 139.840   8.177  1.00 46.94    -0.062 C 
HETATM   36  C34 STQ G1621     -42.681 138.939   8.966  1.00 47.30     0.007 C 
HETATM   37  C35 STQ G1621     -41.556 138.146   8.502  1.00 48.75     0.001 C 
HETATM   38  C36 STQ G1621     -50.391 145.882   7.688  1.00 38.79     0.016 C 
HETATM   39  C37 STQ G1621     -51.052 143.845   8.925  1.00 41.68     0.016 C 
HETATM   40  C38 STQ G1621     -47.864 147.076  11.176  1.00 43.23     0.044 C 
HETATM   41  C39 STQ G1621     -45.612 144.416   7.676  1.00 39.26     0.048 C 
HETATM   42  C40 STQ G1621     -42.787 140.101   6.790  1.00 47.22     0.048 C 
HETATM   43  O23 STQ G1621     -52.582 147.892  10.906  1.00 48.27    -0.392 OA
ATOM     44  H23 STQ G1621     -53.399 147.820  10.425  1.00  0.00     0.210 HD
ENDROOT
TORSDOF 12
BEGIN_RES PHE A  61
REMARK  2 active torsions:
REMARK  status: ('A' for Active; 'I' for Inactive)
REMARK    1  A    between atoms: CA   and  CB  
REMARK    2  A    between atoms: CB   and  CG  
ROOT
ATOM      1  CA  PHE A  61     -36.237 128.293  12.768  1.00 39.40     0.164 C 
ENDROOT
BRANCH   1   2
ATOM      2  CB  PHE A  61     -36.813 128.951  11.509  1.00 39.41     0.058 C 
BRANCH   2   3
ATOM      3  CG  PHE A  61     -36.989 128.012  10.339  1.00 39.01    -0.020 A 
ATOM      4  CD2 PHE A  61     -36.243 126.849  10.242  1.00 40.32    -0.004 A 
ATOM      5  CE2 PHE A  61     -36.404 125.988   9.163  1.00 40.20    -0.000 A 
ATOM      6  CZ  PHE A  61     -37.315 126.278   8.174  1.00 40.34    -0.000 A 
ATOM      7  CE1 PHE A  61     -38.066 127.429   8.257  1.00 41.51    -0.000 A 
ATOM      8  CD1 PHE A  61     -37.901 128.294   9.332  1.00 39.94    -0.004 A 
ENDBRANCH   2   3
ENDBRANCH   1   2
END_RES PHE A  61
BEGIN_RES VAL A 134
REMARK  1 active torsions:
REMARK  status: ('A' for Active; 'I' for Inactive)
REMARK    3  A    between atoms: CA   and  CB  
ROOT
ATOM      9  CA  VAL A 134     -29.766 132.051   9.815  1.00 40.75     0.159 C 
ENDROOT
BRANCH   9  10
ATOM     10  CB  VAL A 134     -30.864 132.765   9.009  1.00 40.76     0.029 C 
ATOM     11  CG1 VAL A 134     -32.059 133.085   9.894  1.00 41.76     0.002 C 
ATOM     12  CG2 VAL A 134     -30.338 134.023   8.336  1.00 40.56     0.002 C 
ENDBRANCH   9  10
END_RES VAL A 134
BEGIN_RES TYR A 338
REMARK  3 active torsions:
REMARK  status: ('A' for Active; 'I' for Inactive)
REMARK    4  A    between atoms: CA   and  CB  
REMARK    5  A    between atoms: CB   and  CG  
REMARK    6  A    between atoms: CZ   and  OH  
ROOT
ATOM     13  CA  TYR A 338     -41.631 124.950   6.058  1.00 38.23     0.164 C 
ENDROOT
BRANCH  13  14
ATOM     14  CB  TYR A 338     -41.621 126.456   6.339  1.00 39.15     0.058 C 
BRANCH  14  15
ATOM     15  CG  TYR A 338     -40.420 127.212   5.820  1.00 39.03    -0.020 A 
ATOM     16  CD2 TYR A 338     -40.283 128.567   6.070  1.00 40.65    -0.002 A 
ATOM     17  CE2 TYR A 338     -39.203 129.295   5.596  1.00 40.91     0.024 A 
ATOM     18  CZ  TYR A 338     -38.225 128.665   4.850  1.00 42.33     0.089 A 
ATOM     19  CE1 TYR A 338     -38.337 127.311   4.591  1.00 40.63     0.024 A 
ATOM     20  CD1 TYR A 338     -39.432 126.603   5.062  1.00 39.27    -0.002 A 
BRANCH  18  21
ATOM     21  OH  TYR A 338     -37.153 129.372   4.381  1.00 43.36    -0.359 OA
ATOM     22  HH  TYR A 338     -36.928 129.349   3.458  1.00  0.00     0.217 HD
ENDBRANCH  18  21
ENDBRANCH  14  15
ENDBRANCH  13  14
END_RES TYR A 338
ENDMDL
MODEL 2
REMARK VINA RESULT:    -8.652      1.932     16.752
REMARK INTER + INTRA:          -9.212
REMARK INTER:                  -8.732
REMARK INTRA:                  -0.479
REMARK UNBOUND:                -0.560
REMARK  0 active torsions:
REMARK  status: ('A' for Active; 'I' for Inactive)
REMARK       I    between atoms: C3_3  and  O3_21 
REMARK       I    between atoms: C6_6  and  C7_7 
REMARK       I    between atoms: C8_8  and  C9_9 
REMARK       I    between atoms: C10_10  and  C11_11 
REMARK       I    between atoms: C12_12  and  C13_13 
REMARK       I    between atoms: C14_14  and  C15_15 
REMARK       I    between atoms: C23_25  and  O23_43 
REMARK       I    between atoms: C26_28  and  C27_29 
REMARK       I    between atoms: C28_30  and  C29_31 
REMARK       I    between atoms: C30_32  and  C31_33 
REMARK       I    between atoms: C32_34  and  C33_35 
REMARK       I    between atoms: C34_36  and  C35_37 
ROOT
HETATM    1  C1  STQ G1621     -49.039 145.801  13.197  1.00 57.46    -0.018 C 
HETATM    2  C2  STQ G1621     -49.712 145.947  14.554  1.00 54.62     0.045 C 
HETATM    3  C3  STQ G1621     -49.372 147.173  15.405  1.00 54.91     0.123 C 
HETATM    4  C4  STQ G1621     -48.168 147.986  14.951  1.00 56.99     0.066 C 
HETATM    5  C5  STQ G1621     -47.196 147.144  14.172  1.00 60.65    -0.074 C 
HETATM    6  C6  STQ G1621     -47.617 146.310  13.219  1.00 60.28    -0.048 C 
HETATM    7  C7  STQ G1621     -46.724 145.878  12.121  1.00 57.11     0.009 C 
HETATM    8  C8  STQ G1621     -45.835 144.907  12.283  1.00 53.31     0.007 C 
HETATM    9  C9  STQ G1621     -44.988 144.469  11.170  1.00 51.73    -0.062 C 
HETATM   10  C10 STQ G1621     -44.140 143.480  11.427  1.00 51.58     0.007 C 
HETATM   11  C11 STQ G1621     -43.264 142.874  10.447  1.00 50.17     0.001 C 
HETATM   12  C12 STQ G1621     -42.753 141.733  10.874  1.00 45.86     0.007 C 
HETATM   13  C13 STQ G1621     -41.891 140.872  10.066  1.00 47.23    -0.062 C 
HETATM   14  C14 STQ G1621     -41.426 139.755  10.630  1.00 50.33     0.007 C 
HETATM   15  C15 STQ G1621     -40.604 138.832   9.867  1.00 51.13     0.001 C 
HETATM   16  C16 STQ G1621     -49.867 146.490  12.113  1.00 59.48     0.020 C 
HETATM   17  C17 STQ G1621     -48.998 144.322  12.857  1.00 57.14     0.020 C 
HETATM   18  C18 STQ G1621     -46.009 148.029  13.956  1.00 65.36     0.044 C 
HETATM   19  C19 STQ G1621     -45.096 145.085   9.813  1.00 51.90     0.048 C 
HETATM   20  C20 STQ G1621     -41.601 141.216   8.638  1.00 47.72     0.048 C 
HETATM   21  O3  STQ G1621     -50.519 148.025  15.398  1.00 51.54    -0.395 OA
ATOM     22  H3  STQ G1621     -50.308 148.785  15.927  1.00  0.00     0.210 HD
HETATM   23  C21 STQ G1621     -34.273 128.446   6.903  1.00 40.30    -0.035 C 
HETATM   24  C22 STQ G1621     -33.499 127.590   5.927  1.00 42.73     0.045 C 
HETATM   25  C23 STQ G1621     -32.001 127.586   6.161  1.00 45.73     0.142 C 
HETATM   26  C24 STQ G1621     -31.501 128.998   6.268  1.00 49.58     0.007 C 
HETATM   27  C25 STQ G1621     -32.260 129.993   6.748  1.00 43.92    -0.077 C 
HETATM   28  C26 STQ G1621     -33.755 129.890   6.892  1.00 40.16     0.044 C 
HETATM   29  C27 STQ G1621     -34.219 130.604   8.138  1.00 36.17    -0.016 C 
HETATM   30  C28 STQ G1621     -35.187 131.491   8.013  1.00 36.75     0.003 C 
HETATM   31  C29 STQ G1621     -35.750 132.223   9.142  1.00 40.23    -0.062 C 
HETATM   32  C30 STQ G1621     -36.881 132.869   8.880  1.00 39.98     0.007 C 
HETATM   33  C31 STQ G1621     -37.598 133.656   9.856  1.00 42.92     0.001 C 
HETATM   34  C32 STQ G1621     -38.177 134.733   9.355  1.00 46.60     0.007 C 
HETATM   35  C33 STQ G1621     -38.948 135.646  10.196  1.00 46.94    -0.062 C 
HETATM   36  C34 STQ G1621     -39.452 136.751   9.647  1.00 47.30     0.007 C 
HETATM   37  C35 STQ G1621     -40.244 137.688  10.424  1.00 48.75     0.001 C 
HETATM   38  C36 STQ G1621     -34.192 127.819   8.290  1.00 38.79     0.016 C 
HETATM   39  C37 STQ G1621     -35.715 128.396   6.428  1.00 41.68     0.016 C 
HETATM   40  C38 STQ G1621     -31.604 131.272   7.128  1.00 43.23     0.044 C 
HETATM   41  C39 STQ G1621     -35.097 132.215  10.491  1.00 39.26     0.048 C 
HETATM   42  C40 STQ G1621     -39.150 135.320  11.636  1.00 47.22     0.048 C 
HETATM   43  O23 STQ G1621     -31.398 126.967   5.025  1.00 48.27    -0.392 OA
ATOM     44  H23 STQ G1621     -31.714 126.074   4.957  1.00  0.00     0.210 HD
ENDROOT
TORSDOF 12
BEGIN_RES PHE A  61
REMARK  2 active torsions:
REMARK  status: ('A' for Active; 'I' for Inactive)
REMARK    1  A    between atoms: CA   and  CB  
REMARK    2  A    between atoms: CB   and  CG  
ROOT
ATOM      1  CA  PHE A  61     -36.237 128.293  12.768  1.00 39.40     0.164 C 
ENDROOT
BRANCH   1   2
ATOM      2  CB  PHE A  61     -36.813 128.951  11.509  1.00 39.41     0.058 C 
BRANCH   2   3
ATOM      3  CG  PHE A  61     -37.009 128.008  10.346  1.00 39.01    -0.020 A 
ATOM      4  CD2 PHE A  61     -36.235 126.865  10.218  1.00 40.32    -0.004 A 
ATOM      5  CE2 PHE A  61     -36.415 126.000   9.146  1.00 40.20    -0.000 A 
ATOM      6  CZ  PHE A  61     -37.371 126.266   8.193  1.00 40.34    -0.000 A 
ATOM      7  CE1 PHE A  61     -38.150 127.396   8.306  1.00 41.51    -0.000 A 
ATOM      8  CD1 PHE A  61     -37.966 128.265   9.375  1.00 39.94    -0.004 A 
ENDBRANCH   2   3
ENDBRANCH   1   2
END_RES PHE A  61
BEGIN_RES VAL A 134
REMARK  1 active torsions:
REMARK  status: ('A' for Active; 'I' for Inactive)
REMARK    3  A    between atoms: CA   and  CB  
ROOT
ATOM      9  CA  VAL A 134     -29.766 132.051   9.815  1.00 40.75     0.159 C 
ENDROOT
BRANCH   9  10
ATOM     10  CB  VAL A 134     -30.864 132.765   9.009  1.00 40.76     0.029 C 
ATOM     11  CG1 VAL A 134     -32.107 132.975   9.862  1.00 41.76     0.002 C 
ATOM     12  CG2 VAL A 134     -30.371 134.085   8.437  1.00 40.56     0.002 C 
ENDBRANCH   9  10
END_RES VAL A 134
BEGIN_RES TYR A 338
REMARK  3 active torsions:
REMARK  status: ('A' for Active; 'I' for Inactive)
REMARK    4  A    between atoms: CA   and  CB  
REMARK    5  A    between atoms: CB   and  CG  
REMARK    6  A    between atoms: CZ   and  OH  
ROOT
ATOM     13  CA  TYR A 338     -41.631 124.950   6.058  1.00 38.23     0.164 C 
ENDROOT
BRANCH  13  14
ATOM     14  CB  TYR A 338     -41.621 126.456   6.339  1.00 39.15     0.058 C 
BRANCH  14  15
ATOM     15  CG  TYR A 338     -40.426 127.215   5.808  1.00 39.03    -0.020 A 
ATOM     16  CD2 TYR A 338     -40.260 128.557   6.105  1.00 40.65    -0.002 A 
ATOM     17  CE2 TYR A 338     -39.185 129.287   5.623  1.00 40.91     0.024 A 
ATOM     18  CZ  TYR A 338     -38.243 128.672   4.820  1.00 42.33     0.089 A 
ATOM     19  CE1 TYR A 338     -38.385 127.330   4.513  1.00 40.63     0.024 A 
ATOM     20  CD1 TYR A 338     -39.474 126.621   4.994  1.00 39.27    -0.002 A 
BRANCH  18  21
ATOM     21  OH  TYR A 338     -37.176 129.381   4.342  1.00 43.36    -0.359 OA
ATOM     22  HH  TYR A 338     -36.917 129.304   3.431  1.00  0.00     0.217 HD
ENDBRANCH  18  21
ENDBRANCH  14  15
ENDBRANCH  13  14
END_RES TYR A 338
ENDMDL
