MODEL 1
REMARK VINA RESULT:    -8.965      0.000      0.000
REMARK INTER + INTRA:         -11.584
REMARK INTER:                  -8.965
REMARK INTRA:                  -2.620
REMARK UNBOUND:                -2.620
REMARK  0 active torsions:
REMARK  status: ('A' for Active; 'I' for Inactive)
REMARK       I    between atoms: C3_3  and  O3_21 
REMARK       I    between atoms: C6_6  and  C7_7 
REMARK       I    between atoms: C8_8  and  C9_9 
REMARK       I    between atoms: C10_10  and  C11_11 
REMARK       I    between atoms: C12_12  and  C13_13 
REMARK       I    between atoms: C14_14  and  C15_15 
REMARK       I    between atoms: C23_25  and  O23_43 
REMARK       I    between atoms: C26_28  and  C27_29 
REMARK       I    between atoms: C28_30  and  C29_31 
REMARK       I    between atoms: C30_32  and  C31_33 
REMARK       I    between atoms: C32_34  and  C33_35 
REMARK       I    between atoms: C34_36  and  C35_37 
ROOT
HETATM    1  C1  STQ C2620     -34.518 126.957   6.346  1.00 23.07    -0.018 C 
HETATM    2  C2  STQ C2620     -34.096 126.242   5.049  1.00 21.39     0.045 C 
HETATM    3  C3  STQ C2620     -33.023 126.901   4.189  1.00 23.10     0.123 C 
HETATM    4  C4  STQ C2620     -32.021 127.757   4.969  1.00 23.25     0.066 C 
HETATM    5  C5  STQ C2620     -32.536 128.559   6.122  1.00 22.57    -0.074 C 
HETATM    6  C6  STQ C2620     -33.692 128.210   6.780  1.00 22.63    -0.048 C 
HETATM    7  C7  STQ C2620     -34.197 128.996   7.916  1.00 23.01     0.009 C 
HETATM    8  C8  STQ C2620     -34.857 130.166   7.832  1.00 21.85     0.007 C 
HETATM    9  C9  STQ C2620     -35.272 131.039   8.925  1.00 21.21    -0.062 C 
HETATM   10  C10 STQ C2620     -36.023 132.118   8.613  1.00 18.43     0.007 C 
HETATM   11  C11 STQ C2620     -36.560 133.084   9.528  1.00 19.90     0.001 C 
HETATM   12  C12 STQ C2620     -37.431 134.020   9.100  1.00 21.34     0.007 C 
HETATM   13  C13 STQ C2620     -38.121 135.051   9.888  1.00 23.03    -0.062 C 
HETATM   14  C14 STQ C2620     -39.033 135.818   9.251  1.00 23.84     0.007 C 
HETATM   15  C15 STQ C2620     -39.881 136.821   9.830  1.00 23.61     0.001 C 
HETATM   16  C16 STQ C2620     -34.385 125.850   7.409  1.00 21.40     0.020 C 
HETATM   17  C17 STQ C2620     -36.014 127.318   6.211  1.00 21.74     0.020 C 
HETATM   18  C18 STQ C2620     -31.597 129.686   6.371  1.00 21.99     0.044 C 
HETATM   19  C19 STQ C2620     -34.880 130.641  10.326  1.00 18.93     0.048 C 
HETATM   20  C20 STQ C2620     -37.822 135.144  11.356  1.00 19.82     0.048 C 
HETATM   21  O3  STQ C2620     -32.339 125.926   3.425  1.00 24.94    -0.395 OA
ATOM     22  H3  STQ C2620     -31.670 126.337   2.890  1.00  0.00     0.210 HD
HETATM   23  C21 STQ C2620     -49.753 144.662  12.434  1.00 28.10    -0.035 C 
HETATM   24  C22 STQ C2620     -50.621 145.664  13.241  1.00 27.06     0.045 C 
HETATM   25  C23 STQ C2620     -50.447 147.141  12.857  1.00 27.20     0.142 C 
HETATM   26  C24 STQ C2620     -48.992 147.496  12.517  1.00 26.01     0.007 C 
HETATM   27  C25 STQ C2620     -48.045 146.574  12.239  1.00 26.36    -0.077 C 
HETATM   28  C26 STQ C2620     -48.262 145.069  12.225  1.00 26.43     0.044 C 
HETATM   29  C27 STQ C2620     -47.561 144.430  11.042  1.00 27.89    -0.016 C 
HETATM   30  C28 STQ C2620     -46.621 143.452  11.143  1.00 28.38     0.003 C 
HETATM   31  C29 STQ C2620     -45.948 142.746  10.035  1.00 28.48    -0.062 C 
HETATM   32  C30 STQ C2620     -45.030 141.804  10.334  1.00 28.77     0.007 C 
HETATM   33  C31 STQ C2620     -44.307 140.990   9.397  1.00 29.15     0.001 C 
HETATM   34  C32 STQ C2620     -43.371 140.113   9.796  1.00 28.55     0.007 C 
HETATM   35  C33 STQ C2620     -42.541 139.218   8.986  1.00 27.96    -0.062 C 
HETATM   36  C34 STQ C2620     -41.644 138.444   9.634  1.00 26.60     0.007 C 
HETATM   37  C35 STQ C2620     -40.742 137.489   9.071  1.00 25.80     0.001 C 
HETATM   38  C36 STQ C2620     -50.461 144.449  11.059  1.00 25.16     0.016 C 
HETATM   39  C37 STQ C2620     -49.797 143.324  13.191  1.00 25.18     0.016 C 
HETATM   40  C38 STQ C2620     -46.696 147.139  11.969  1.00 26.12     0.044 C 
HETATM   41  C39 STQ C2620     -46.312 143.126   8.632  1.00 27.66     0.048 C 
HETATM   42  C40 STQ C2620     -42.739 139.232   7.495  1.00 25.55     0.048 C 
HETATM   43  O23 STQ C2620     -50.943 147.986  13.890  1.00 23.90    -0.392 OA
ATOM     44  H23 STQ C2620     -51.843 147.766  14.100  1.00  0.00     0.210 HD
ENDROOT
TORSDOF 12
BEGIN_RES PHE A  61
REMARK  2 active torsions:
REMARK  status: ('A' for Active; 'I' for Inactive)
REMARK    1  A    between atoms: CA   and  CB  
REMARK    2  A    between atoms: CB   and  CG  
ROOT
ATOM      1  CA  PHE A  61     -36.237 128.293  12.768  1.00 39.40     0.164 C 
ENDROOT
BRANCH   1   2
ATOM      2  CB  PHE A  61     -36.813 128.951  11.509  1.00 39.41     0.058 C 
BRANCH   2   3
ATOM      3  CG  PHE A  61     -37.077 127.995  10.371  1.00 39.01    -0.020 A 
ATOM      4  CD2 PHE A  61     -36.359 126.816  10.250  1.00 40.32    -0.004 A 
ATOM      5  CE2 PHE A  61     -36.601 125.938   9.200  1.00 40.20    -0.000 A 
ATOM      6  CZ  PHE A  61     -37.566 126.228   8.262  1.00 40.34    -0.000 A 
ATOM      7  CE1 PHE A  61     -38.289 127.395   8.369  1.00 41.51    -0.000 A 
ATOM      8  CD1 PHE A  61     -38.043 128.276   9.414  1.00 39.94    -0.004 A 
ENDBRANCH   2   3
ENDBRANCH   1   2
END_RES PHE A  61
BEGIN_RES VAL A 134
REMARK  1 active torsions:
REMARK  status: ('A' for Active; 'I' for Inactive)
REMARK    3  A    between atoms: CA   and  CB  
ROOT
ATOM      9  CA  VAL A 134     -29.766 132.051   9.815  1.00 40.75     0.159 C 
ENDROOT
BRANCH   9  10
ATOM     10  CB  VAL A 134     -30.864 132.765   9.009  1.00 40.76     0.029 C 
ATOM     11  CG1 VAL A 134     -31.175 132.002   7.730  1.00 41.76     0.002 C 
ATOM     12  CG2 VAL A 134     -32.124 132.970   9.836  1.00 40.56     0.002 C 
ENDBRANCH   9  10
END_RES VAL A 134
BEGIN_RES TYR A 338
REMARK  3 active torsions:
REMARK  status: ('A' for Active; 'I' for Inactive)
REMARK    4  A    between atoms: CA   and  CB  
REMARK    5  A    between atoms: CB   and  CG  
REMARK    6  A    between atoms: CZ   and  OH  
ROOT
ATOM     13  CA  TYR A 338     -41.631 124.950   6.058  1.00 38.23     0.164 C 
ENDROOT
BRANCH  13  14
ATOM     14  CB  TYR A 338     -41.621 126.456   6.339  1.00 39.15     0.058 C 
BRANCH  14  15
ATOM     15  CG  TYR A 338     -40.423 127.214   5.814  1.00 39.03    -0.020 A 
ATOM     16  CD2 TYR A 338     -40.248 128.551   6.126  1.00 40.65    -0.002 A 
ATOM     17  CE2 TYR A 338     -39.170 129.280   5.649  1.00 40.91     0.024 A 
ATOM     18  CZ  TYR A 338     -38.234 128.670   4.835  1.00 42.33     0.089 A 
ATOM     19  CE1 TYR A 338     -38.385 127.333   4.513  1.00 40.63     0.024 A 
ATOM     20  CD1 TYR A 338     -39.477 126.624   4.989  1.00 39.27    -0.002 A 
BRANCH  18  21
ATOM     21  OH  TYR A 338     -37.165 129.378   4.362  1.00 43.36    -0.359 OA
ATOM     22  HH  TYR A 338     -36.571 128.988   3.732  1.00  0.00     0.217 HD
ENDBRANCH  18  21
ENDBRANCH  14  15
ENDBRANCH  13  14
END_RES TYR A 338
ENDMDL
