MODEL 1
REMARK VINA RESULT:   -10.198      0.000      0.000
REMARK INTER + INTRA:         -10.569
REMARK INTER:                 -10.198
REMARK INTRA:                  -0.371
REMARK UNBOUND:                -0.371
REMARK  0 active torsions:
REMARK  status: ('A' for Active; 'I' for Inactive)
REMARK       I    between atoms: C3_3  and  O3_21 
REMARK       I    between atoms: C6_6  and  C7_7 
REMARK       I    between atoms: C8_8  and  C9_9 
REMARK       I    between atoms: C10_10  and  C11_11 
REMARK       I    between atoms: C12_12  and  C13_13 
REMARK       I    between atoms: C14_14  and  C15_15 
REMARK       I    between atoms: C23_25  and  O23_43 
REMARK       I    between atoms: C26_28  and  C27_29 
REMARK       I    between atoms: C28_30  and  C29_31 
REMARK       I    between atoms: C30_32  and  C31_33 
REMARK       I    between atoms: C32_34  and  C33_35 
REMARK       I    between atoms: C34_36  and  C35_37 
ROOT
HETATM    1  C1  STQ S1620     -50.216 144.326  13.163  1.00 71.46    -0.018 C 
HETATM    2  C2  STQ S1620     -51.023 144.847  14.339  1.00 75.98     0.045 C 
HETATM    3  C3  STQ S1620     -50.346 145.826  15.272  1.00 84.37     0.123 C 
HETATM    4  C4  STQ S1620     -49.612 146.887  14.502  1.00 79.68     0.066 C 
HETATM    5  C5  STQ S1620     -48.648 146.242  13.554  1.00 81.86    -0.074 C 
HETATM    6  C6  STQ S1620     -48.973 145.148  12.848  1.00 72.92    -0.048 C 
HETATM    7  C7  STQ S1620     -48.127 144.735  11.702  1.00 76.42     0.009 C 
HETATM    8  C8  STQ S1620     -47.029 144.004  11.882  1.00 69.46     0.007 C 
HETATM    9  C9  STQ S1620     -46.183 143.588  10.769  1.00 72.46    -0.062 C 
HETATM   10  C10 STQ S1620     -45.115 142.861  11.088  1.00 79.08     0.007 C 
HETATM   11  C11 STQ S1620     -44.179 142.359  10.108  1.00 85.60     0.001 C 
HETATM   12  C12 STQ S1620     -43.475 141.327  10.530  1.00 91.82     0.007 C 
HETATM   13  C13 STQ S1620     -42.502 140.639   9.685  1.00 91.68    -0.062 C 
HETATM   14  C14 STQ S1620     -41.869 139.596  10.219  1.00 95.81     0.007 C 
HETATM   15  C15 STQ S1620     -40.913 138.805   9.469  1.00 93.57     0.001 C 
HETATM   16  C16 STQ S1620     -51.194 144.247  12.000  1.00 75.59     0.020 C 
HETATM   17  C17 STQ S1620     -49.780 142.901  13.470  1.00 74.59     0.020 C 
HETATM   18  C18 STQ S1620     -47.621 147.230  13.091  1.00 90.73     0.044 C 
HETATM   19  C19 STQ S1620     -46.499 144.010   9.370  1.00 83.09     0.048 C 
HETATM   20  C20 STQ S1620     -42.271 141.076   8.272  1.00 93.53     0.048 C 
HETATM   21  O3  STQ S1620     -51.351 146.471  16.053  1.00 94.57    -0.395 OA
ATOM     22  H3  STQ S1620     -51.815 145.800  16.541  1.00  0.00     0.210 HD
HETATM   23  C21 STQ S1620     -34.218 128.365   6.912  1.00 93.68    -0.035 C 
HETATM   24  C22 STQ S1620     -33.469 127.670   5.781  1.00 91.14     0.045 C 
HETATM   25  C23 STQ S1620     -31.948 127.736   5.856  1.00 98.01     0.142 C 
HETATM   26  C24 STQ S1620     -31.433 129.016   6.474  1.00 91.63     0.007 C 
HETATM   27  C25 STQ S1620     -32.196 129.843   7.197  1.00 90.78    -0.077 C 
HETATM   28  C26 STQ S1620     -33.697 129.795   7.096  1.00 96.81     0.044 C 
HETATM   29  C27 STQ S1620     -34.364 130.411   8.305  1.00 98.92    -0.016 C 
HETATM   30  C28 STQ S1620     -35.065 131.525   8.136  1.00 95.46     0.003 C 
HETATM   31  C29 STQ S1620     -35.766 132.179   9.247  1.00 98.36    -0.062 C 
HETATM   32  C30 STQ S1620     -36.562 133.201   8.934  1.00 99.37     0.007 C 
HETATM   33  C31 STQ S1620     -37.351 133.957   9.892  1.00 94.54     0.001 C 
HETATM   34  C32 STQ S1620     -38.060 134.935   9.351  1.00 98.74     0.007 C 
HETATM   35  C33 STQ S1620     -38.957 135.821  10.102  1.00 97.67    -0.062 C 
HETATM   36  C34 STQ S1620     -39.534 136.819   9.427  1.00 93.99     0.007 C 
HETATM   37  C35 STQ S1620     -40.466 137.719  10.079  1.00 93.68     0.001 C 
HETATM   38  C36 STQ S1620     -34.141 127.554   8.206  1.00 98.37     0.016 C 
HETATM   39  C37 STQ S1620     -35.686 128.404   6.501  1.00 91.95     0.016 C 
HETATM   40  C38 STQ S1620     -31.517 130.825   8.100  1.00 91.00     0.044 C 
HETATM   41  C39 STQ S1620     -35.601 131.704  10.657  1.00 97.56     0.048 C 
HETATM   42  C40 STQ S1620     -39.231 135.596  11.557  1.00 95.91     0.048 C 
HETATM   43  O23 STQ S1620     -31.412 127.602   4.532  1.00 99.71    -0.392 OA
ATOM     44  H23 STQ S1620     -30.464 127.643   4.578  1.00  0.00     0.210 HD
ENDROOT
TORSDOF 12
BEGIN_RES PHE A  61
REMARK  2 active torsions:
REMARK  status: ('A' for Active; 'I' for Inactive)
REMARK    1  A    between atoms: CA   and  CB  
REMARK    2  A    between atoms: CB   and  CG  
ROOT
ATOM      1  CA  PHE A  61     -36.237 128.293  12.768  1.00 39.40     0.164 C 
ENDROOT
BRANCH   1   2
ATOM      2  CB  PHE A  61     -36.813 128.951  11.509  1.00 39.41     0.058 C 
BRANCH   2   3
ATOM      3  CG  PHE A  61     -37.020 128.006  10.350  1.00 39.01    -0.020 A 
ATOM      4  CD2 PHE A  61     -36.267 126.848  10.233  1.00 40.32    -0.004 A 
ATOM      5  CE2 PHE A  61     -36.456 125.981   9.164  1.00 40.20    -0.000 A 
ATOM      6  CZ  PHE A  61     -37.401 126.259   8.203  1.00 40.34    -0.000 A 
ATOM      7  CE1 PHE A  61     -38.159 127.405   8.306  1.00 41.51    -0.000 A 
ATOM      8  CD1 PHE A  61     -37.966 128.275   9.371  1.00 39.94    -0.004 A 
ENDBRANCH   2   3
ENDBRANCH   1   2
END_RES PHE A  61
BEGIN_RES VAL A 134
REMARK  1 active torsions:
REMARK  status: ('A' for Active; 'I' for Inactive)
REMARK    3  A    between atoms: CA   and  CB  
ROOT
ATOM      9  CA  VAL A 134     -29.766 132.051   9.815  1.00 40.75     0.159 C 
ENDROOT
BRANCH   9  10
ATOM     10  CB  VAL A 134     -30.864 132.765   9.009  1.00 40.76     0.029 C 
ATOM     11  CG1 VAL A 134     -32.105 132.979   9.863  1.00 41.76     0.002 C 
ATOM     12  CG2 VAL A 134     -30.370 134.084   8.434  1.00 40.56     0.002 C 
ENDBRANCH   9  10
END_RES VAL A 134
BEGIN_RES TYR A 338
REMARK  3 active torsions:
REMARK  status: ('A' for Active; 'I' for Inactive)
REMARK    4  A    between atoms: CA   and  CB  
REMARK    5  A    between atoms: CB   and  CG  
REMARK    6  A    between atoms: CZ   and  OH  
ROOT
ATOM     13  CA  TYR A 338     -41.631 124.950   6.058  1.00 38.23     0.164 C 
ENDROOT
BRANCH  13  14
ATOM     14  CB  TYR A 338     -41.621 126.456   6.339  1.00 39.15     0.058 C 
BRANCH  14  15
ATOM     15  CG  TYR A 338     -40.425 127.214   5.811  1.00 39.03    -0.020 A 
ATOM     16  CD2 TYR A 338     -40.262 128.558   6.103  1.00 40.65    -0.002 A 
ATOM     17  CE2 TYR A 338     -39.186 129.287   5.623  1.00 40.91     0.024 A 
ATOM     18  CZ  TYR A 338     -38.239 128.671   4.827  1.00 42.33     0.089 A 
ATOM     19  CE1 TYR A 338     -38.377 127.327   4.525  1.00 40.63     0.024 A 
ATOM     20  CD1 TYR A 338     -39.468 126.618   5.004  1.00 39.27    -0.002 A 
BRANCH  18  21
ATOM     21  OH  TYR A 338     -37.171 129.380   4.351  1.00 43.36    -0.359 OA
ATOM     22  HH  TYR A 338     -36.370 129.439   4.858  1.00  0.00     0.217 HD
ENDBRANCH  18  21
ENDBRANCH  14  15
ENDBRANCH  13  14
END_RES TYR A 338
ENDMDL
MODEL 2
REMARK VINA RESULT:    -9.038      2.083     16.723
REMARK INTER + INTRA:          -9.409
REMARK INTER:                  -6.210
REMARK INTRA:                  -3.199
REMARK UNBOUND:                -0.371
REMARK  0 active torsions:
REMARK  status: ('A' for Active; 'I' for Inactive)
REMARK       I    between atoms: C3_3  and  O3_21 
REMARK       I    between atoms: C6_6  and  C7_7 
REMARK       I    between atoms: C8_8  and  C9_9 
REMARK       I    between atoms: C10_10  and  C11_11 
REMARK       I    between atoms: C12_12  and  C13_13 
REMARK       I    between atoms: C14_14  and  C15_15 
REMARK       I    between atoms: C23_25  and  O23_43 
REMARK       I    between atoms: C26_28  and  C27_29 
REMARK       I    between atoms: C28_30  and  C29_31 
REMARK       I    between atoms: C30_32  and  C31_33 
REMARK       I    between atoms: C32_34  and  C33_35 
REMARK       I    between atoms: C34_36  and  C35_37 
ROOT
HETATM    1  C1  STQ S1620     -34.511 128.359   6.378  1.00 71.46    -0.018 C 
HETATM    2  C2  STQ S1620     -33.474 127.779   5.432  1.00 75.98     0.045 C 
HETATM    3  C3  STQ S1620     -32.115 128.441   5.392  1.00 84.37     0.123 C 
HETATM    4  C4  STQ S1620     -31.608 128.713   6.780  1.00 79.68     0.066 C 
HETATM    5  C5  STQ S1620     -32.616 129.525   7.534  1.00 81.86    -0.074 C 
HETATM    6  C6  STQ S1620     -33.933 129.277   7.446  1.00 72.92    -0.048 C 
HETATM    7  C7  STQ S1620     -34.860 129.877   8.436  1.00 76.42     0.009 C 
HETATM    8  C8  STQ S1620     -35.324 131.116   8.284  1.00 69.46     0.007 C 
HETATM    9  C9  STQ S1620     -36.236 131.726   9.246  1.00 72.46    -0.062 C 
HETATM   10  C10 STQ S1620     -36.622 132.970   8.975  1.00 79.08     0.007 C 
HETATM   11  C11 STQ S1620     -37.530 133.716   9.816  1.00 85.60     0.001 C 
HETATM   12  C12 STQ S1620     -38.133 134.709   9.191  1.00 91.82     0.007 C 
HETATM   13  C13 STQ S1620     -39.122 135.564   9.843  1.00 91.68    -0.062 C 
HETATM   14  C14 STQ S1620     -39.678 136.519   9.100  1.00 95.81     0.007 C 
HETATM   15  C15 STQ S1620     -40.703 137.405   9.618  1.00 93.57     0.001 C 
HETATM   16  C16 STQ S1620     -35.253 127.161   6.952  1.00 75.59     0.020 C 
HETATM   17  C17 STQ S1620     -35.519 129.153   5.561  1.00 74.59     0.020 C 
HETATM   18  C18 STQ S1620     -31.990 130.166   8.734  1.00 90.73     0.044 C 
HETATM   19  C19 STQ S1620     -36.655 130.987  10.475  1.00 83.09     0.048 C 
HETATM   20  C20 STQ S1620     -39.511 135.334  11.270  1.00 93.53     0.048 C 
HETATM   21  O3  STQ S1620     -31.198 127.548   4.760  1.00 94.57    -0.395 OA
ATOM     22  H3  STQ S1620     -31.519 127.377   3.883  1.00  0.00     0.210 HD
HETATM   23  C21 STQ S1620     -50.529 145.330   8.636  1.00 93.68    -0.035 C 
HETATM   24  C22 STQ S1620     -51.690 145.904   9.441  1.00 91.14     0.045 C 
HETATM   25  C23 STQ S1620     -51.522 147.344   9.910  1.00 98.01     0.142 C 
HETATM   26  C24 STQ S1620     -50.088 147.710  10.222  1.00 91.63     0.007 C 
HETATM   27  C25 STQ S1620     -49.039 146.992   9.806  1.00 90.78    -0.077 C 
HETATM   28  C26 STQ S1620     -49.205 145.561   9.373  1.00 96.81     0.044 C 
HETATM   29  C27 STQ S1620     -48.065 145.101   8.494  1.00 98.92    -0.016 C 
HETATM   30  C28 STQ S1620     -47.256 144.157   8.958  1.00 95.46     0.003 C 
HETATM   31  C29 STQ S1620     -46.138 143.633   8.164  1.00 98.36    -0.062 C 
HETATM   32  C30 STQ S1620     -45.488 142.583   8.666  1.00 99.37     0.007 C 
HETATM   33  C31 STQ S1620     -44.372 141.915   8.018  1.00 94.54     0.001 C 
HETATM   34  C32 STQ S1620     -43.878 140.900   8.710  1.00 98.74     0.007 C 
HETATM   35  C33 STQ S1620     -42.770 140.051   8.257  1.00 97.67    -0.062 C 
HETATM   36  C34 STQ S1620     -42.326 139.123   9.109  1.00 93.99     0.007 C 
HETATM   37  C35 STQ S1620     -41.262 138.212   8.731  1.00 93.68     0.001 C 
HETATM   38  C36 STQ S1620     -50.505 145.901   7.219  1.00 98.37     0.016 C 
HETATM   39  C37 STQ S1620     -50.790 143.833   8.507  1.00 91.95     0.016 C 
HETATM   40  C38 STQ S1620     -47.693 147.649   9.794  1.00 91.00     0.044 C 
HETATM   41  C39 STQ S1620     -45.764 144.243   6.850  1.00 97.56     0.048 C 
HETATM   42  C40 STQ S1620     -42.183 140.204   6.888  1.00 95.91     0.048 C 
HETATM   43  O23 STQ S1620     -52.326 147.548  11.080  1.00 99.71    -0.392 OA
ATOM     44  H23 STQ S1620     -52.223 148.446  11.373  1.00  0.00     0.210 HD
ENDROOT
TORSDOF 12
BEGIN_RES PHE A  61
REMARK  2 active torsions:
REMARK  status: ('A' for Active; 'I' for Inactive)
REMARK    1  A    between atoms: CA   and  CB  
REMARK    2  A    between atoms: CB   and  CG  
ROOT
ATOM      1  CA  PHE A  61     -36.237 128.293  12.768  1.00 39.40     0.164 C 
ENDROOT
BRANCH   1   2
ATOM      2  CB  PHE A  61     -36.813 128.951  11.509  1.00 39.41     0.058 C 
BRANCH   2   3
ATOM      3  CG  PHE A  61     -37.007 128.008  10.346  1.00 39.01    -0.020 A 
ATOM      4  CD2 PHE A  61     -36.198 126.894  10.190  1.00 40.32    -0.004 A 
ATOM      5  CE2 PHE A  61     -36.376 126.029   9.117  1.00 40.20    -0.000 A 
ATOM      6  CZ  PHE A  61     -37.366 126.267   8.191  1.00 40.34    -0.000 A 
ATOM      7  CE1 PHE A  61     -38.180 127.369   8.333  1.00 41.51    -0.000 A 
ATOM      8  CD1 PHE A  61     -37.998 128.237   9.402  1.00 39.94    -0.004 A 
ENDBRANCH   2   3
ENDBRANCH   1   2
END_RES PHE A  61
BEGIN_RES VAL A 134
REMARK  1 active torsions:
REMARK  status: ('A' for Active; 'I' for Inactive)
REMARK    3  A    between atoms: CA   and  CB  
ROOT
ATOM      9  CA  VAL A 134     -29.766 132.051   9.815  1.00 40.75     0.159 C 
ENDROOT
BRANCH   9  10
ATOM     10  CB  VAL A 134     -30.864 132.765   9.009  1.00 40.76     0.029 C 
ATOM     11  CG1 VAL A 134     -30.892 132.260   7.574  1.00 41.76     0.002 C 
ATOM     12  CG2 VAL A 134     -32.229 132.613   9.663  1.00 40.56     0.002 C 
ENDBRANCH   9  10
END_RES VAL A 134
BEGIN_RES TYR A 338
REMARK  3 active torsions:
REMARK  status: ('A' for Active; 'I' for Inactive)
REMARK    4  A    between atoms: CA   and  CB  
REMARK    5  A    between atoms: CB   and  CG  
REMARK    6  A    between atoms: CZ   and  OH  
ROOT
ATOM     13  CA  TYR A 338     -41.631 124.950   6.058  1.00 38.23     0.164 C 
ENDROOT
BRANCH  13  14
ATOM     14  CB  TYR A 338     -41.621 126.456   6.339  1.00 39.15     0.058 C 
BRANCH  14  15
ATOM     15  CG  TYR A 338     -40.430 127.216   5.801  1.00 39.03    -0.020 A 
ATOM     16  CD2 TYR A 338     -40.279 128.565   6.072  1.00 40.65    -0.002 A 
ATOM     17  CE2 TYR A 338     -39.208 129.297   5.583  1.00 40.91     0.024 A 
ATOM     18  CZ  TYR A 338     -38.255 128.676   4.798  1.00 42.33     0.089 A 
ATOM     19  CE1 TYR A 338     -38.381 127.327   4.517  1.00 40.63     0.024 A 
ATOM     20  CD1 TYR A 338     -39.467 126.616   5.006  1.00 39.27    -0.002 A 
BRANCH  18  21
ATOM     21  OH  TYR A 338     -37.192 129.386   4.313  1.00 43.36    -0.359 OA
ATOM     22  HH  TYR A 338     -37.087 130.304   4.534  1.00  0.00     0.217 HD
ENDBRANCH  18  21
ENDBRANCH  14  15
ENDBRANCH  13  14
END_RES TYR A 338
ENDMDL
MODEL 3
REMARK VINA RESULT:    -7.633      2.164     16.718
REMARK INTER + INTRA:          -8.004
REMARK INTER:                  -3.477
REMARK INTRA:                  -4.527
REMARK UNBOUND:                -0.371
REMARK  0 active torsions:
REMARK  status: ('A' for Active; 'I' for Inactive)
REMARK       I    between atoms: C3_3  and  O3_21 
REMARK       I    between atoms: C6_6  and  C7_7 
REMARK       I    between atoms: C8_8  and  C9_9 
REMARK       I    between atoms: C10_10  and  C11_11 
REMARK       I    between atoms: C12_12  and  C13_13 
REMARK       I    between atoms: C14_14  and  C15_15 
REMARK       I    between atoms: C23_25  and  O23_43 
REMARK       I    between atoms: C26_28  and  C27_29 
REMARK       I    between atoms: C28_30  and  C29_31 
REMARK       I    between atoms: C30_32  and  C31_33 
REMARK       I    between atoms: C32_34  and  C33_35 
REMARK       I    between atoms: C34_36  and  C35_37 
ROOT
HETATM    1  C1  STQ S1620     -34.655 128.782   6.467  1.00 71.46    -0.018 C 
HETATM    2  C2  STQ S1620     -33.557 128.241   5.568  1.00 75.98     0.045 C 
HETATM    3  C3  STQ S1620     -32.193 128.887   5.664  1.00 84.37     0.123 C 
HETATM    4  C4  STQ S1620     -31.786 129.077   7.098  1.00 79.68     0.066 C 
HETATM    5  C5  STQ S1620     -32.840 129.859   7.820  1.00 81.86    -0.074 C 
HETATM    6  C6  STQ S1620     -34.149 129.633   7.624  1.00 72.92    -0.048 C 
HETATM    7  C7  STQ S1620     -35.141 130.191   8.575  1.00 76.42     0.009 C 
HETATM    8  C8  STQ S1620     -35.582 131.442   8.459  1.00 69.46     0.007 C 
HETATM    9  C9  STQ S1620     -36.556 132.010   9.383  1.00 72.46    -0.062 C 
HETATM   10  C10 STQ S1620     -36.910 133.272   9.154  1.00 79.08     0.007 C 
HETATM   11  C11 STQ S1620     -37.871 133.983   9.967  1.00 85.60     0.001 C 
HETATM   12  C12 STQ S1620     -38.418 135.015   9.356  1.00 91.82     0.007 C 
HETATM   13  C13 STQ S1620     -39.445 135.847   9.980  1.00 91.68    -0.062 C 
HETATM   14  C14 STQ S1620     -39.936 136.848   9.253  1.00 95.81     0.007 C 
HETATM   15  C15 STQ S1620     -40.988 137.717   9.743  1.00 93.57     0.001 C 
HETATM   16  C16 STQ S1620     -35.448 127.565   6.919  1.00 75.59     0.020 C 
HETATM   17  C17 STQ S1620     -35.594 129.632   5.625  1.00 74.59     0.020 C 
HETATM   18  C18 STQ S1620     -32.298 130.427   9.096  1.00 90.73     0.044 C 
HETATM   19  C19 STQ S1620     -37.070 131.211  10.537  1.00 83.09     0.048 C 
HETATM   20  C20 STQ S1620     -39.939 135.545  11.360  1.00 93.53     0.048 C 
HETATM   21  O3  STQ S1620     -31.240 128.019   5.052  1.00 94.57    -0.395 OA
ATOM     22  H3  STQ S1620     -31.497 127.899   4.146  1.00  0.00     0.210 HD
HETATM   23  C21 STQ S1620     -50.647 145.809   8.489  1.00 93.68    -0.035 C 
HETATM   24  C22 STQ S1620     -51.858 146.353   9.237  1.00 91.14     0.045 C 
HETATM   25  C23 STQ S1620     -51.713 147.763   9.796  1.00 98.01     0.142 C 
HETATM   26  C24 STQ S1620     -50.302 148.093  10.231  1.00 91.63     0.007 C 
HETATM   27  C25 STQ S1620     -49.232 147.386   9.854  1.00 90.78    -0.077 C 
HETATM   28  C26 STQ S1620     -49.378 145.982   9.332  1.00 96.81     0.044 C 
HETATM   29  C27 STQ S1620     -48.181 145.556   8.514  1.00 98.92    -0.016 C 
HETATM   30  C28 STQ S1620     -47.416 144.579   8.982  1.00 95.46     0.003 C 
HETATM   31  C29 STQ S1620     -46.248 144.084   8.244  1.00 98.36    -0.062 C 
HETATM   32  C30 STQ S1620     -45.645 143.000   8.733  1.00 99.37     0.007 C 
HETATM   33  C31 STQ S1620     -44.491 142.354   8.132  1.00 94.54     0.001 C 
HETATM   34  C32 STQ S1620     -44.058 141.297   8.800  1.00 98.74     0.007 C 
HETATM   35  C33 STQ S1620     -42.927 140.460   8.384  1.00 97.67    -0.062 C 
HETATM   36  C34 STQ S1620     -42.555 139.481   9.213  1.00 93.99     0.007 C 
HETATM   37  C35 STQ S1620     -41.475 138.578   8.864  1.00 93.68     0.001 C 
HETATM   38  C36 STQ S1620     -50.514 146.455   7.110  1.00 98.37     0.016 C 
HETATM   39  C37 STQ S1620     -50.910 144.324   8.258  1.00 91.95     0.016 C 
HETATM   40  C38 STQ S1620     -47.883 148.025   9.976  1.00 91.00     0.044 C 
HETATM   41  C39 STQ S1620     -45.773 144.760   6.996  1.00 97.56     0.048 C 
HETATM   42  C40 STQ S1620     -42.240 140.679   7.071  1.00 95.91     0.048 C 
HETATM   43  O23 STQ S1620     -52.599 147.913  10.914  1.00 99.71    -0.392 OA
ATOM     44  H23 STQ S1620     -52.509 148.792  11.263  1.00  0.00     0.210 HD
ENDROOT
TORSDOF 12
BEGIN_RES PHE A  61
REMARK  2 active torsions:
REMARK  status: ('A' for Active; 'I' for Inactive)
REMARK    1  A    between atoms: CA   and  CB  
REMARK    2  A    between atoms: CB   and  CG  
ROOT
ATOM      1  CA  PHE A  61     -36.237 128.293  12.768  1.00 39.40     0.164 C 
ENDROOT
BRANCH   1   2
ATOM      2  CB  PHE A  61     -36.813 128.951  11.509  1.00 39.41     0.058 C 
BRANCH   2   3
ATOM      3  CG  PHE A  61     -36.912 128.033  10.315  1.00 39.01    -0.020 A 
ATOM      4  CD2 PHE A  61     -35.932 127.086  10.061  1.00 40.32    -0.004 A 
ATOM      5  CE2 PHE A  61     -36.023 126.244   8.960  1.00 40.20    -0.000 A 
ATOM      6  CZ  PHE A  61     -37.095 126.336   8.103  1.00 40.34    -0.000 A 
ATOM      7  CE1 PHE A  61     -38.079 127.269   8.342  1.00 41.51    -0.000 A 
ATOM      8  CD1 PHE A  61     -37.986 128.116   9.439  1.00 39.94    -0.004 A 
ENDBRANCH   2   3
ENDBRANCH   1   2
END_RES PHE A  61
BEGIN_RES VAL A 134
REMARK  1 active torsions:
REMARK  status: ('A' for Active; 'I' for Inactive)
REMARK    3  A    between atoms: CA   and  CB  
ROOT
ATOM      9  CA  VAL A 134     -29.766 132.051   9.815  1.00 40.75     0.159 C 
ENDROOT
BRANCH   9  10
ATOM     10  CB  VAL A 134     -30.864 132.765   9.009  1.00 40.76     0.029 C 
ATOM     11  CG1 VAL A 134     -30.990 132.160   7.618  1.00 41.76     0.002 C 
ATOM     12  CG2 VAL A 134     -32.201 132.736   9.734  1.00 40.56     0.002 C 
ENDBRANCH   9  10
END_RES VAL A 134
BEGIN_RES TYR A 338
REMARK  3 active torsions:
REMARK  status: ('A' for Active; 'I' for Inactive)
REMARK    4  A    between atoms: CA   and  CB  
REMARK    5  A    between atoms: CB   and  CG  
REMARK    6  A    between atoms: CZ   and  OH  
ROOT
ATOM     13  CA  TYR A 338     -41.631 124.950   6.058  1.00 38.23     0.164 C 
ENDROOT
BRANCH  13  14
ATOM     14  CB  TYR A 338     -41.621 126.456   6.339  1.00 39.15     0.058 C 
BRANCH  14  15
ATOM     15  CG  TYR A 338     -40.429 127.215   5.804  1.00 39.03    -0.020 A 
ATOM     16  CD2 TYR A 338     -40.257 128.555   6.108  1.00 40.65    -0.002 A 
ATOM     17  CE2 TYR A 338     -39.185 129.286   5.622  1.00 40.91     0.024 A 
ATOM     18  CZ  TYR A 338     -38.251 128.675   4.806  1.00 42.33     0.089 A 
ATOM     19  CE1 TYR A 338     -38.398 127.336   4.492  1.00 40.63     0.024 A 
ATOM     20  CD1 TYR A 338     -39.485 126.625   4.978  1.00 39.27    -0.002 A 
BRANCH  18  21
ATOM     21  OH  TYR A 338     -37.186 129.385   4.325  1.00 43.36    -0.359 OA
ATOM     22  HH  TYR A 338     -36.632 129.881   4.916  1.00  0.00     0.217 HD
ENDBRANCH  18  21
ENDBRANCH  14  15
ENDBRANCH  13  14
END_RES TYR A 338
ENDMDL
