MODEL 1
REMARK VINA RESULT:   -10.257      0.000      0.000
REMARK INTER + INTRA:         -12.704
REMARK INTER:                 -10.257
REMARK INTRA:                  -2.447
REMARK UNBOUND:                -2.447
REMARK  0 active torsions:
REMARK  status: ('A' for Active; 'I' for Inactive)
REMARK       I    between atoms: C3_3  and  O3_21 
REMARK       I    between atoms: C6_6  and  C7_7 
REMARK       I    between atoms: C8_8  and  C9_9 
REMARK       I    between atoms: C10_10  and  C11_11 
REMARK       I    between atoms: C12_12  and  C13_13 
REMARK       I    between atoms: C14_14  and  C15_15 
REMARK       I    between atoms: C23_25  and  O23_43 
REMARK       I    between atoms: C26_28  and  C27_29 
REMARK       I    between atoms: C28_30  and  C29_31 
REMARK       I    between atoms: C30_32  and  C31_33 
REMARK       I    between atoms: C32_34  and  C33_35 
REMARK       I    between atoms: C34_36  and  C35_37 
ROOT
HETATM    1  C1  STQ Z 619     -34.478 126.959   6.391  1.00 43.24    -0.018 C 
HETATM    2  C2  STQ Z 619     -34.152 126.396   5.005  1.00 43.24     0.045 C 
HETATM    3  C3  STQ Z 619     -33.024 127.047   4.205  1.00 43.24     0.123 C 
HETATM    4  C4  STQ Z 619     -31.973 127.681   5.095  1.00 43.24     0.066 C 
HETATM    5  C5  STQ Z 619     -32.651 128.626   6.046  1.00 43.24    -0.074 C 
HETATM    6  C6  STQ Z 619     -33.732 128.241   6.733  1.00 43.24    -0.048 C 
HETATM    7  C7  STQ Z 619     -34.198 129.085   7.864  1.00 43.24     0.009 C 
HETATM    8  C8  STQ Z 619     -35.092 130.056   7.671  1.00 43.24     0.007 C 
HETATM    9  C9  STQ Z 619     -35.580 130.940   8.742  1.00 43.24    -0.062 C 
HETATM   10  C10 STQ Z 619     -36.447 131.890   8.383  1.00 43.24     0.007 C 
HETATM   11  C11 STQ Z 619     -37.010 132.866   9.304  1.00 43.24     0.001 C 
HETATM   12  C12 STQ Z 619     -37.742 133.820   8.742  1.00 43.24     0.007 C 
HETATM   13  C13 STQ Z 619     -38.367 134.894   9.524  1.00 43.24    -0.062 C 
HETATM   14  C14 STQ Z 619     -39.243 135.704   8.915  1.00 43.24     0.007 C 
HETATM   15  C15 STQ Z 619     -39.880 136.796   9.638  1.00 43.24     0.001 C 
HETATM   16  C16 STQ Z 619     -34.188 125.850   7.397  1.00 43.24     0.020 C 
HETATM   17  C17 STQ Z 619     -35.967 127.267   6.452  1.00 43.24     0.020 C 
HETATM   18  C18 STQ Z 619     -31.741 129.717   6.539  1.00 43.24     0.044 C 
HETATM   19  C19 STQ Z 619     -35.112 130.797  10.158  1.00 43.24     0.048 C 
HETATM   20  C20 STQ Z 619     -38.007 135.081  10.968  1.00 43.24     0.048 C 
HETATM   21  O3  STQ Z 619     -32.388 126.047   3.402  1.00 43.24    -0.395 OA
ATOM     22  H3  STQ Z 619     -33.047 125.650   2.845  1.00  0.00     0.210 HD
HETATM   23  C21 STQ Z 619     -48.053 146.408  11.625  1.00 43.24    -0.035 C 
HETATM   24  C22 STQ Z 619     -48.750 147.686  12.082  1.00 43.24     0.045 C 
HETATM   25  C23 STQ Z 619     -48.774 148.766  11.010  1.00 43.24     0.142 C 
HETATM   26  C24 STQ Z 619     -47.383 148.983  10.474  1.00 43.24     0.007 C 
HETATM   27  C25 STQ Z 619     -46.489 147.990  10.368  1.00 43.24    -0.077 C 
HETATM   28  C26 STQ Z 619     -46.628 146.689  11.124  1.00 43.24     0.044 C 
HETATM   29  C27 STQ Z 619     -46.111 145.561  10.254  1.00 43.24    -0.016 C 
HETATM   30  C28 STQ Z 619     -45.147 144.756  10.693  1.00 43.24     0.003 C 
HETATM   31  C29 STQ Z 619     -44.646 143.670   9.834  1.00 43.24    -0.062 C 
HETATM   32  C30 STQ Z 619     -44.026 142.621  10.390  1.00 43.24     0.007 C 
HETATM   33  C31 STQ Z 619     -43.511 141.538   9.560  1.00 43.24     0.001 C 
HETATM   34  C32 STQ Z 619     -42.865 140.524  10.124  1.00 43.24     0.007 C 
HETATM   35  C33 STQ Z 619     -42.330 139.437   9.289  1.00 43.24    -0.062 C 
HETATM   36  C34 STQ Z 619     -41.363 138.665   9.796  1.00 43.24     0.007 C 
HETATM   37  C35 STQ Z 619     -40.767 137.576   9.033  1.00 43.24     0.001 C 
HETATM   38  C36 STQ Z 619     -48.914 145.725  10.564  1.00 43.24     0.016 C 
HETATM   39  C37 STQ Z 619     -47.965 145.484  12.836  1.00 43.24     0.016 C 
HETATM   40  C38 STQ Z 619     -45.303 148.194   9.468  1.00 43.24     0.044 C 
HETATM   41  C39 STQ Z 619     -44.825 143.756   8.345  1.00 43.24     0.048 C 
HETATM   42  C40 STQ Z 619     -42.863 139.205   7.905  1.00 43.24     0.048 C 
HETATM   43  O23 STQ Z 619     -49.243 149.990  11.584  1.00 43.24    -0.392 OA
ATOM     44  H23 STQ Z 619     -49.259 150.664  10.915  1.00  0.00     0.210 HD
ENDROOT
TORSDOF 12
BEGIN_RES PHE A  61
REMARK  2 active torsions:
REMARK  status: ('A' for Active; 'I' for Inactive)
REMARK    1  A    between atoms: CA   and  CB  
REMARK    2  A    between atoms: CB   and  CG  
ROOT
ATOM      1  CA  PHE A  61     -36.237 128.293  12.768  1.00 39.40     0.164 C 
ENDROOT
BRANCH   1   2
ATOM      2  CB  PHE A  61     -36.813 128.951  11.509  1.00 39.41     0.058 C 
BRANCH   2   3
ATOM      3  CG  PHE A  61     -37.083 127.994  10.373  1.00 39.01    -0.020 A 
ATOM      4  CD2 PHE A  61     -36.364 126.816  10.248  1.00 40.32    -0.004 A 
ATOM      5  CE2 PHE A  61     -36.611 125.938   9.200  1.00 40.20    -0.000 A 
ATOM      6  CZ  PHE A  61     -37.583 126.225   8.269  1.00 40.34    -0.000 A 
ATOM      7  CE1 PHE A  61     -38.309 127.391   8.380  1.00 41.51    -0.000 A 
ATOM      8  CD1 PHE A  61     -38.057 128.272   9.424  1.00 39.94    -0.004 A 
ENDBRANCH   2   3
ENDBRANCH   1   2
END_RES PHE A  61
BEGIN_RES VAL A 134
REMARK  1 active torsions:
REMARK  status: ('A' for Active; 'I' for Inactive)
REMARK    3  A    between atoms: CA   and  CB  
ROOT
ATOM      9  CA  VAL A 134     -29.766 132.051   9.815  1.00 40.75     0.159 C 
ENDROOT
BRANCH   9  10
ATOM     10  CB  VAL A 134     -30.864 132.765   9.009  1.00 40.76     0.029 C 
ATOM     11  CG1 VAL A 134     -30.884 132.269   7.571  1.00 41.76     0.002 C 
ATOM     12  CG2 VAL A 134     -32.231 132.602   9.656  1.00 40.56     0.002 C 
ENDBRANCH   9  10
END_RES VAL A 134
BEGIN_RES TYR A 338
REMARK  3 active torsions:
REMARK  status: ('A' for Active; 'I' for Inactive)
REMARK    4  A    between atoms: CA   and  CB  
REMARK    5  A    between atoms: CB   and  CG  
REMARK    6  A    between atoms: CZ   and  OH  
ROOT
ATOM     13  CA  TYR A 338     -41.631 124.950   6.058  1.00 38.23     0.164 C 
ENDROOT
BRANCH  13  14
ATOM     14  CB  TYR A 338     -41.621 126.456   6.339  1.00 39.15     0.058 C 
BRANCH  14  15
ATOM     15  CG  TYR A 338     -40.412 127.210   5.835  1.00 39.03    -0.020 A 
ATOM     16  CD2 TYR A 338     -40.236 128.546   6.152  1.00 40.65    -0.002 A 
ATOM     17  CE2 TYR A 338     -39.148 129.272   5.693  1.00 40.91     0.024 A 
ATOM     18  CZ  TYR A 338     -38.201 128.658   4.894  1.00 42.33     0.089 A 
ATOM     19  CE1 TYR A 338     -38.352 127.322   4.568  1.00 40.63     0.024 A 
ATOM     20  CD1 TYR A 338     -39.455 126.617   5.025  1.00 39.27    -0.002 A 
BRANCH  18  21
ATOM     21  OH  TYR A 338     -37.122 129.363   4.440  1.00 43.36    -0.359 OA
ATOM     22  HH  TYR A 338     -36.249 128.991   4.491  1.00  0.00     0.217 HD
ENDBRANCH  18  21
ENDBRANCH  14  15
ENDBRANCH  13  14
END_RES TYR A 338
ENDMDL
