MODEL 1
REMARK VINA RESULT:   -10.300      0.000      0.000
REMARK INTER + INTRA:         -10.594
REMARK INTER:                 -10.300
REMARK INTRA:                  -0.295
REMARK UNBOUND:                -0.295
REMARK  0 active torsions:
REMARK  status: ('A' for Active; 'I' for Inactive)
REMARK       I    between atoms: C3_3  and  O3_21 
REMARK       I    between atoms: C6_6  and  C7_7 
REMARK       I    between atoms: C8_8  and  C9_9 
REMARK       I    between atoms: C10_10  and  C11_11 
REMARK       I    between atoms: C12_12  and  C13_13 
REMARK       I    between atoms: C14_14  and  C15_15 
REMARK       I    between atoms: C23_25  and  O23_43 
REMARK       I    between atoms: C26_28  and  C27_29 
REMARK       I    between atoms: C28_30  and  C29_31 
REMARK       I    between atoms: C30_32  and  C31_33 
REMARK       I    between atoms: C32_34  and  C33_35 
REMARK       I    between atoms: C34_36  and  C35_37 
ROOT
HETATM    1  C1  STQ 3 621     -34.049 128.038   6.940  1.00 19.54    -0.018 C 
HETATM    2  C2  STQ 3 621     -33.160 127.336   5.917  1.00 19.54     0.045 C 
HETATM    3  C3  STQ 3 621     -32.011 128.109   5.300  1.00 19.54     0.123 C 
HETATM    4  C4  STQ 3 621     -31.274 128.867   6.377  1.00 19.54     0.066 C 
HETATM    5  C5  STQ 3 621     -32.222 129.714   7.187  1.00 19.54    -0.074 C 
HETATM    6  C6  STQ 3 621     -33.448 129.294   7.544  1.00 19.54    -0.048 C 
HETATM    7  C7  STQ 3 621     -34.231 130.027   8.584  1.00 19.54     0.009 C 
HETATM    8  C8  STQ 3 621     -35.007 131.087   8.322  1.00 19.54     0.007 C 
HETATM    9  C9  STQ 3 621     -35.788 131.813   9.343  1.00 19.54    -0.062 C 
HETATM   10  C10 STQ 3 621     -36.533 132.847   8.922  1.00 19.54     0.007 C 
HETATM   11  C11 STQ 3 621     -37.375 133.689   9.765  1.00 19.54     0.001 C 
HETATM   12  C12 STQ 3 621     -37.961 134.706   9.141  1.00 19.54     0.007 C 
HETATM   13  C13 STQ 3 621     -38.870 135.667   9.788  1.00 19.54    -0.062 C 
HETATM   14  C14 STQ 3 621     -39.700 136.352   8.989  1.00 19.54     0.007 C 
HETATM   15  C15 STQ 3 621     -40.675 137.316   9.484  1.00 19.54     0.001 C 
HETATM   16  C16 STQ 3 621     -34.373 126.987   7.995  1.00 19.54     0.020 C 
HETATM   17  C17 STQ 3 621     -35.345 128.458   6.263  1.00 19.54     0.020 C 
HETATM   18  C18 STQ 3 621     -31.506 130.787   7.946  1.00 19.54     0.044 C 
HETATM   19  C19 STQ 3 621     -35.734 131.422  10.789  1.00 19.54     0.048 C 
HETATM   20  C20 STQ 3 621     -38.866 135.872  11.273  1.00 19.54     0.048 C 
HETATM   21  O3  STQ 3 621     -31.102 127.179   4.707  1.00 19.54    -0.395 OA
ATOM     22  H3  STQ 3 621     -30.381 127.664   4.320  1.00  0.00     0.210 HD
HETATM   23  C21 STQ 3 621     -50.660 144.885  10.249  1.00 19.54    -0.035 C 
HETATM   24  C22 STQ 3 621     -51.608 145.647  11.166  1.00 19.54     0.045 C 
HETATM   25  C23 STQ 3 621     -51.443 147.158  11.116  1.00 19.54     0.142 C 
HETATM   26  C24 STQ 3 621     -49.985 147.543  11.156  1.00 19.54     0.007 C 
HETATM   27  C25 STQ 3 621     -49.029 146.775  10.612  1.00 19.54    -0.077 C 
HETATM   28  C26 STQ 3 621     -49.199 145.284  10.485  1.00 19.54     0.044 C 
HETATM   29  C27 STQ 3 621     -48.315 144.719   9.389  1.00 19.54    -0.016 C 
HETATM   30  C28 STQ 3 621     -47.373 143.843   9.721  1.00 19.54     0.003 C 
HETATM   31  C29 STQ 3 621     -46.480 143.231   8.726  1.00 19.54    -0.062 C 
HETATM   32  C30 STQ 3 621     -45.924 142.060   9.040  1.00 19.54     0.007 C 
HETATM   33  C31 STQ 3 621     -45.019 141.317   8.172  1.00 19.54     0.001 C 
HETATM   34  C32 STQ 3 621     -44.272 140.425   8.805  1.00 19.54     0.007 C 
HETATM   35  C33 STQ 3 621     -43.283 139.526   8.196  1.00 19.54    -0.062 C 
HETATM   36  C34 STQ 3 621     -42.512 138.827   9.043  1.00 19.54     0.007 C 
HETATM   37  C35 STQ 3 621     -41.500 137.878   8.602  1.00 19.54     0.001 C 
HETATM   38  C36 STQ 3 621     -51.072 145.089   8.792  1.00 19.54     0.016 C 
HETATM   39  C37 STQ 3 621     -50.825 143.407  10.581  1.00 19.54     0.016 C 
HETATM   40  C38 STQ 3 621     -47.771 147.434  10.133  1.00 19.54     0.044 C 
HETATM   41  C39 STQ 3 621     -46.198 143.888   7.417  1.00 19.54     0.048 C 
HETATM   42  C40 STQ 3 621     -43.156 139.402   6.711  1.00 19.54     0.048 C 
HETATM   43  O23 STQ 3 621     -52.106 147.726  12.249  1.00 19.54    -0.392 OA
ATOM     44  H23 STQ 3 621     -52.002 148.671  12.217  1.00  0.00     0.210 HD
ENDROOT
TORSDOF 12
BEGIN_RES PHE A  61
REMARK  2 active torsions:
REMARK  status: ('A' for Active; 'I' for Inactive)
REMARK    1  A    between atoms: CA   and  CB  
REMARK    2  A    between atoms: CB   and  CG  
ROOT
ATOM      1  CA  PHE A  61     -36.237 128.293  12.768  1.00 39.40     0.164 C 
ENDROOT
BRANCH   1   2
ATOM      2  CB  PHE A  61     -36.813 128.951  11.509  1.00 39.41     0.058 C 
BRANCH   2   3
ATOM      3  CG  PHE A  61     -37.017 128.006  10.349  1.00 39.01    -0.020 A 
ATOM      4  CD2 PHE A  61     -36.310 126.817  10.266  1.00 40.32    -0.004 A 
ATOM      5  CE2 PHE A  61     -36.496 125.951   9.197  1.00 40.20    -0.000 A 
ATOM      6  CZ  PHE A  61     -37.394 126.261   8.201  1.00 40.34    -0.000 A 
ATOM      7  CE1 PHE A  61     -38.107 127.437   8.269  1.00 41.51    -0.000 A 
ATOM      8  CD1 PHE A  61     -37.916 128.307   9.335  1.00 39.94    -0.004 A 
ENDBRANCH   2   3
ENDBRANCH   1   2
END_RES PHE A  61
BEGIN_RES VAL A 134
REMARK  1 active torsions:
REMARK  status: ('A' for Active; 'I' for Inactive)
REMARK    3  A    between atoms: CA   and  CB  
ROOT
ATOM      9  CA  VAL A 134     -29.766 132.051   9.815  1.00 40.75     0.159 C 
ENDROOT
BRANCH   9  10
ATOM     10  CB  VAL A 134     -30.864 132.765   9.009  1.00 40.76     0.029 C 
ATOM     11  CG1 VAL A 134     -32.110 132.967   9.859  1.00 41.76     0.002 C 
ATOM     12  CG2 VAL A 134     -30.374 134.090   8.445  1.00 40.56     0.002 C 
ENDBRANCH   9  10
END_RES VAL A 134
BEGIN_RES TYR A 338
REMARK  3 active torsions:
REMARK  status: ('A' for Active; 'I' for Inactive)
REMARK    4  A    between atoms: CA   and  CB  
REMARK    5  A    between atoms: CB   and  CG  
REMARK    6  A    between atoms: CZ   and  OH  
ROOT
ATOM     13  CA  TYR A 338     -41.631 124.950   6.058  1.00 38.23     0.164 C 
ENDROOT
BRANCH  13  14
ATOM     14  CB  TYR A 338     -41.621 126.456   6.339  1.00 39.15     0.058 C 
BRANCH  14  15
ATOM     15  CG  TYR A 338     -40.424 127.214   5.812  1.00 39.03    -0.020 A 
ATOM     16  CD2 TYR A 338     -40.263 128.558   6.102  1.00 40.65    -0.002 A 
ATOM     17  CE2 TYR A 338     -39.186 129.288   5.622  1.00 40.91     0.024 A 
ATOM     18  CZ  TYR A 338     -38.237 128.670   4.829  1.00 42.33     0.089 A 
ATOM     19  CE1 TYR A 338     -38.374 127.326   4.529  1.00 40.63     0.024 A 
ATOM     20  CD1 TYR A 338     -39.465 126.617   5.008  1.00 39.27    -0.002 A 
BRANCH  18  21
ATOM     21  OH  TYR A 338     -37.169 129.379   4.354  1.00 43.36    -0.359 OA
ATOM     22  HH  TYR A 338     -37.158 129.688   3.456  1.00  0.00     0.217 HD
ENDBRANCH  18  21
ENDBRANCH  14  15
ENDBRANCH  13  14
END_RES TYR A 338
ENDMDL
MODEL 2
REMARK VINA RESULT:    -9.057      1.501     16.913
REMARK INTER + INTRA:          -9.351
REMARK INTER:                  -8.851
REMARK INTRA:                  -0.500
REMARK UNBOUND:                -0.295
REMARK  0 active torsions:
REMARK  status: ('A' for Active; 'I' for Inactive)
REMARK       I    between atoms: C3_3  and  O3_21 
REMARK       I    between atoms: C6_6  and  C7_7 
REMARK       I    between atoms: C8_8  and  C9_9 
REMARK       I    between atoms: C10_10  and  C11_11 
REMARK       I    between atoms: C12_12  and  C13_13 
REMARK       I    between atoms: C14_14  and  C15_15 
REMARK       I    between atoms: C23_25  and  O23_43 
REMARK       I    between atoms: C26_28  and  C27_29 
REMARK       I    between atoms: C28_30  and  C29_31 
REMARK       I    between atoms: C30_32  and  C31_33 
REMARK       I    between atoms: C32_34  and  C33_35 
REMARK       I    between atoms: C34_36  and  C35_37 
ROOT
HETATM    1  C1  STQ 3 621     -49.775 145.643  12.685  1.00 19.54    -0.018 C 
HETATM    2  C2  STQ 3 621     -50.546 146.299  13.827  1.00 19.54     0.045 C 
HETATM    3  C3  STQ 3 621     -49.780 147.120  14.845  1.00 19.54     0.123 C 
HETATM    4  C4  STQ 3 621     -48.796 148.017  14.135  1.00 19.54     0.066 C 
HETATM    5  C5  STQ 3 621     -47.921 147.227  13.196  1.00 19.54    -0.074 C 
HETATM    6  C6  STQ 3 621     -48.389 146.214  12.446  1.00 19.54    -0.048 C 
HETATM    7  C7  STQ 3 621     -47.576 145.658  11.323  1.00 19.54     0.009 C 
HETATM    8  C8  STQ 3 621     -46.646 144.707  11.478  1.00 19.54     0.007 C 
HETATM    9  C9  STQ 3 621     -45.841 144.148  10.373  1.00 19.54    -0.062 C 
HETATM   10  C10 STQ 3 621     -44.960 143.186  10.685  1.00 19.54     0.007 C 
HETATM   11  C11 STQ 3 621     -44.075 142.505   9.744  1.00 19.54     0.001 C 
HETATM   12  C12 STQ 3 621     -43.228 141.640  10.293  1.00 19.54     0.007 C 
HETATM   13  C13 STQ 3 621     -42.264 140.826   9.534  1.00 19.54    -0.062 C 
HETATM   14  C14 STQ 3 621     -41.793 139.723  10.135  1.00 19.54     0.007 C 
HETATM   15  C15 STQ 3 621     -40.855 138.804   9.502  1.00 19.54     0.001 C 
HETATM   16  C16 STQ 3 621     -50.671 145.765  11.457  1.00 19.54     0.020 C 
HETATM   17  C17 STQ 3 621     -49.588 144.166  13.000  1.00 19.54     0.020 C 
HETATM   18  C18 STQ 3 621     -46.680 147.975  12.821  1.00 19.54     0.044 C 
HETATM   19  C19 STQ 3 621     -45.991 144.651   8.969  1.00 19.54     0.048 C 
HETATM   20  C20 STQ 3 621     -41.826 141.212   8.154  1.00 19.54     0.048 C 
HETATM   21  O3  STQ 3 621     -50.705 147.945  15.556  1.00 19.54    -0.395 OA
ATOM     22  H3  STQ 3 621     -50.224 148.459  16.194  1.00  0.00     0.210 HD
HETATM   23  C21 STQ 3 621     -34.205 128.504   6.807  1.00 19.54    -0.035 C 
HETATM   24  C22 STQ 3 621     -33.396 127.754   5.757  1.00 19.54     0.045 C 
HETATM   25  C23 STQ 3 621     -31.904 127.697   6.043  1.00 19.54     0.142 C 
HETATM   26  C24 STQ 3 621     -31.386 129.044   6.480  1.00 19.54     0.007 C 
HETATM   27  C25 STQ 3 621     -32.139 129.906   7.178  1.00 19.54    -0.077 C 
HETATM   28  C26 STQ 3 621     -33.641 129.907   7.061  1.00 19.54     0.044 C 
HETATM   29  C27 STQ 3 621     -34.289 130.521   8.288  1.00 19.54    -0.016 C 
HETATM   30  C28 STQ 3 621     -35.012 131.626   8.139  1.00 19.54     0.003 C 
HETATM   31  C29 STQ 3 621     -35.691 132.282   9.266  1.00 19.54    -0.062 C 
HETATM   32  C30 STQ 3 621     -36.742 133.054   8.984  1.00 19.54     0.007 C 
HETATM   33  C31 STQ 3 621     -37.526 133.775   9.978  1.00 19.54     0.001 C 
HETATM   34  C32 STQ 3 621     -38.235 134.779   9.484  1.00 19.54     0.007 C 
HETATM   35  C33 STQ 3 621     -39.125 135.672  10.237  1.00 19.54    -0.062 C 
HETATM   36  C34 STQ 3 621     -39.607 136.732   9.573  1.00 19.54     0.007 C 
HETATM   37  C35 STQ 3 621     -40.518 137.701  10.167  1.00 19.54     0.001 C 
HETATM   38  C36 STQ 3 621     -34.273 127.683   8.093  1.00 19.54     0.016 C 
HETATM   39  C37 STQ 3 621     -35.620 128.636   6.259  1.00 19.54     0.016 C 
HETATM   40  C38 STQ 3 621     -31.453 130.883   8.083  1.00 19.54     0.044 C 
HETATM   41  C39 STQ 3 621     -35.226 132.102  10.672  1.00 19.54     0.048 C 
HETATM   42  C40 STQ 3 621     -39.471 135.399  11.667  1.00 19.54     0.048 C 
HETATM   43  O23 STQ 3 621     -31.226 127.303   4.846  1.00 19.54    -0.392 OA
ATOM     44  H23 STQ 3 621     -30.293 127.267   5.026  1.00  0.00     0.210 HD
ENDROOT
TORSDOF 12
BEGIN_RES PHE A  61
REMARK  2 active torsions:
REMARK  status: ('A' for Active; 'I' for Inactive)
REMARK    1  A    between atoms: CA   and  CB  
REMARK    2  A    between atoms: CB   and  CG  
ROOT
ATOM      1  CA  PHE A  61     -36.237 128.293  12.768  1.00 39.40     0.164 C 
ENDROOT
BRANCH   1   2
ATOM      2  CB  PHE A  61     -36.813 128.951  11.509  1.00 39.41     0.058 C 
BRANCH   2   3
ATOM      3  CG  PHE A  61     -36.985 128.013  10.338  1.00 39.01    -0.020 A 
ATOM      4  CD2 PHE A  61     -36.232 126.854  10.238  1.00 40.32    -0.004 A 
ATOM      5  CE2 PHE A  61     -36.389 125.994   9.158  1.00 40.20    -0.000 A 
ATOM      6  CZ  PHE A  61     -37.302 126.281   8.169  1.00 40.34    -0.000 A 
ATOM      7  CE1 PHE A  61     -38.060 127.428   8.255  1.00 41.51    -0.000 A 
ATOM      8  CD1 PHE A  61     -37.899 128.291   9.331  1.00 39.94    -0.004 A 
ENDBRANCH   2   3
ENDBRANCH   1   2
END_RES PHE A  61
BEGIN_RES VAL A 134
REMARK  1 active torsions:
REMARK  status: ('A' for Active; 'I' for Inactive)
REMARK    3  A    between atoms: CA   and  CB  
ROOT
ATOM      9  CA  VAL A 134     -29.766 132.051   9.815  1.00 40.75     0.159 C 
ENDROOT
BRANCH   9  10
ATOM     10  CB  VAL A 134     -30.864 132.765   9.009  1.00 40.76     0.029 C 
ATOM     11  CG1 VAL A 134     -32.080 133.040   9.882  1.00 41.76     0.002 C 
ATOM     12  CG2 VAL A 134     -30.351 134.050   8.377  1.00 40.56     0.002 C 
ENDBRANCH   9  10
END_RES VAL A 134
BEGIN_RES TYR A 338
REMARK  3 active torsions:
REMARK  status: ('A' for Active; 'I' for Inactive)
REMARK    4  A    between atoms: CA   and  CB  
REMARK    5  A    between atoms: CB   and  CG  
REMARK    6  A    between atoms: CZ   and  OH  
ROOT
ATOM     13  CA  TYR A 338     -41.631 124.950   6.058  1.00 38.23     0.164 C 
ENDROOT
BRANCH  13  14
ATOM     14  CB  TYR A 338     -41.621 126.456   6.339  1.00 39.15     0.058 C 
BRANCH  14  15
ATOM     15  CG  TYR A 338     -40.430 127.216   5.802  1.00 39.03    -0.020 A 
ATOM     16  CD2 TYR A 338     -40.266 128.559   6.093  1.00 40.65    -0.002 A 
ATOM     17  CE2 TYR A 338     -39.194 129.291   5.606  1.00 40.91     0.024 A 
ATOM     18  CZ  TYR A 338     -38.253 128.675   4.802  1.00 42.33     0.089 A 
ATOM     19  CE1 TYR A 338     -38.392 127.332   4.501  1.00 40.63     0.024 A 
ATOM     20  CD1 TYR A 338     -39.478 126.621   4.988  1.00 39.27    -0.002 A 
BRANCH  18  21
ATOM     21  OH  TYR A 338     -37.189 129.386   4.319  1.00 43.36    -0.359 OA
ATOM     22  HH  TYR A 338     -37.076 130.300   4.552  1.00  0.00     0.217 HD
ENDBRANCH  18  21
ENDBRANCH  14  15
ENDBRANCH  13  14
END_RES TYR A 338
ENDMDL
