MODEL 1
REMARK VINA RESULT:    -9.471      0.000      0.000
REMARK INTER + INTRA:          -9.680
REMARK INTER:                  -9.471
REMARK INTRA:                  -0.210
REMARK UNBOUND:                -0.210
REMARK  0 active torsions:
REMARK  status: ('A' for Active; 'I' for Inactive)
REMARK       I    between atoms: C3_3  and  O3_21 
REMARK       I    between atoms: C6_6  and  C7_7 
REMARK       I    between atoms: C8_8  and  C9_9 
REMARK       I    between atoms: C10_10  and  C11_11 
REMARK       I    between atoms: C12_12  and  C13_13 
REMARK       I    between atoms: C14_14  and  C15_15 
REMARK       I    between atoms: C23_25  and  O23_43 
REMARK       I    between atoms: C26_28  and  C27_29 
REMARK       I    between atoms: C28_30  and  C29_31 
REMARK       I    between atoms: C30_32  and  C31_33 
REMARK       I    between atoms: C32_34  and  C33_35 
REMARK       I    between atoms: C34_36  and  C35_37 
ROOT
HETATM    1  C1  STQ G6621     -34.075 128.308   7.227  1.00 23.69    -0.018 C 
HETATM    2  C2  STQ G6621     -33.329 127.521   6.138  1.00 24.09     0.045 C 
HETATM    3  C3  STQ G6621     -32.007 128.044   5.583  1.00 24.28     0.123 C 
HETATM    4  C4  STQ G6621     -31.363 129.165   6.412  1.00 23.79     0.066 C 
HETATM    5  C5  STQ G6621     -32.157 129.949   7.412  1.00 23.83    -0.074 C 
HETATM    6  C6  STQ G6621     -33.412 129.586   7.828  1.00 23.66    -0.048 C 
HETATM    7  C7  STQ G6621     -34.236 130.306   8.835  1.00 22.83     0.009 C 
HETATM    8  C8  STQ G6621     -34.953 131.432   8.596  1.00 20.24     0.007 C 
HETATM    9  C9  STQ G6621     -35.788 132.195   9.533  1.00 21.52    -0.062 C 
HETATM   10  C10 STQ G6621     -36.519 133.217   9.031  1.00 20.57     0.007 C 
HETATM   11  C11 STQ G6621     -37.476 134.018   9.753  1.00 19.35     0.001 C 
HETATM   12  C12 STQ G6621     -38.243 134.958   9.159  1.00 20.67     0.007 C 
HETATM   13  C13 STQ G6621     -39.318 135.755   9.780  1.00 22.18    -0.062 C 
HETATM   14  C14 STQ G6621     -39.991 136.633   9.004  1.00 21.93     0.007 C 
HETATM   15  C15 STQ G6621     -41.092 137.479   9.400  1.00 21.89     0.001 C 
HETATM   16  C16 STQ G6621     -34.258 127.231   8.320  1.00 22.02     0.020 C 
HETATM   17  C17 STQ G6621     -35.455 128.653   6.632  1.00 22.09     0.020 C 
HETATM   18  C18 STQ G6621     -31.353 131.099   7.901  1.00 25.09     0.044 C 
HETATM   19  C19 STQ G6621     -35.843 131.730  10.969  1.00 16.21     0.048 C 
HETATM   20  C20 STQ G6621     -39.616 135.520  11.235  1.00 20.93     0.048 C 
HETATM   21  O3  STQ G6621     -31.093 126.968   5.396  1.00 23.32    -0.395 OA
ATOM     22  H3  STQ G6621     -30.269 127.293   5.050  1.00  0.00     0.210 HD
HETATM   23  C21 STQ G6621     -50.921 145.822   9.933  1.00 19.02    -0.035 C 
HETATM   24  C22 STQ G6621     -52.030 146.631  10.639  1.00 18.22     0.045 C 
HETATM   25  C23 STQ G6621     -51.688 148.108  10.857  1.00 19.51     0.142 C 
HETATM   26  C24 STQ G6621     -50.230 148.343  11.296  1.00 18.29     0.007 C 
HETATM   27  C25 STQ G6621     -49.278 147.386  11.153  1.00 19.71    -0.077 C 
HETATM   28  C26 STQ G6621     -49.509 145.991  10.569  1.00 19.08     0.044 C 
HETATM   29  C27 STQ G6621     -48.385 145.568   9.638  1.00 19.58    -0.016 C 
HETATM   30  C28 STQ G6621     -47.711 144.410   9.762  1.00 20.67     0.003 C 
HETATM   31  C29 STQ G6621     -46.748 143.834   8.830  1.00 21.92    -0.062 C 
HETATM   32  C30 STQ G6621     -46.143 142.676   9.173  1.00 23.00     0.007 C 
HETATM   33  C31 STQ G6621     -45.149 141.967   8.401  1.00 23.88     0.001 C 
HETATM   34  C32 STQ G6621     -44.460 140.909   8.892  1.00 22.59     0.007 C 
HETATM   35  C33 STQ G6621     -43.403 140.132   8.236  1.00 21.40    -0.062 C 
HETATM   36  C34 STQ G6621     -42.778 139.182   8.966  1.00 20.55     0.007 C 
HETATM   37  C35 STQ G6621     -41.681 138.343   8.561  1.00 21.49     0.001 C 
HETATM   38  C36 STQ G6621     -50.894 146.250   8.435  1.00 19.20     0.016 C 
HETATM   39  C37 STQ G6621     -51.341 144.345   9.988  1.00 16.30     0.016 C 
HETATM   40  C38 STQ G6621     -47.920 147.760  11.635  1.00 16.85     0.044 C 
HETATM   41  C39 STQ G6621     -46.436 144.608   7.585  1.00 23.01     0.048 C 
HETATM   42  C40 STQ G6621     -43.042 140.497   6.826  1.00 20.32     0.048 C 
HETATM   43  O23 STQ G6621     -52.598 148.684  11.785  1.00 20.61    -0.392 OA
ATOM     44  H23 STQ G6621     -53.498 148.540  11.514  1.00  0.00     0.210 HD
ENDROOT
TORSDOF 12
BEGIN_RES PHE A  61
REMARK  2 active torsions:
REMARK  status: ('A' for Active; 'I' for Inactive)
REMARK    1  A    between atoms: CA   and  CB  
REMARK    2  A    between atoms: CB   and  CG  
ROOT
ATOM      1  CA  PHE A  61     -36.237 128.293  12.768  1.00 39.40     0.164 C 
ENDROOT
BRANCH   1   2
ATOM      2  CB  PHE A  61     -36.813 128.951  11.509  1.00 39.41     0.058 C 
BRANCH   2   3
ATOM      3  CG  PHE A  61     -37.028 128.004  10.353  1.00 39.01    -0.020 A 
ATOM      4  CD2 PHE A  61     -36.309 126.823  10.257  1.00 40.32    -0.004 A 
ATOM      5  CE2 PHE A  61     -36.506 125.954   9.191  1.00 40.20    -0.000 A 
ATOM      6  CZ  PHE A  61     -37.425 126.254   8.212  1.00 40.34    -0.000 A 
ATOM      7  CE1 PHE A  61     -38.150 127.423   8.294  1.00 41.51    -0.000 A 
ATOM      8  CD1 PHE A  61     -37.949 128.295   9.356  1.00 39.94    -0.004 A 
ENDBRANCH   2   3
ENDBRANCH   1   2
END_RES PHE A  61
BEGIN_RES VAL A 134
REMARK  1 active torsions:
REMARK  status: ('A' for Active; 'I' for Inactive)
REMARK    3  A    between atoms: CA   and  CB  
ROOT
ATOM      9  CA  VAL A 134     -29.766 132.051   9.815  1.00 40.75     0.159 C 
ENDROOT
BRANCH   9  10
ATOM     10  CB  VAL A 134     -30.864 132.765   9.009  1.00 40.76     0.029 C 
ATOM     11  CG1 VAL A 134     -32.082 133.035   9.880  1.00 41.76     0.002 C 
ATOM     12  CG2 VAL A 134     -30.352 134.053   8.382  1.00 40.56     0.002 C 
ENDBRANCH   9  10
END_RES VAL A 134
BEGIN_RES TYR A 338
REMARK  3 active torsions:
REMARK  status: ('A' for Active; 'I' for Inactive)
REMARK    4  A    between atoms: CA   and  CB  
REMARK    5  A    between atoms: CB   and  CG  
REMARK    6  A    between atoms: CZ   and  OH  
ROOT
ATOM     13  CA  TYR A 338     -41.631 124.950   6.058  1.00 38.23     0.164 C 
ENDROOT
BRANCH  13  14
ATOM     14  CB  TYR A 338     -41.621 126.456   6.339  1.00 39.15     0.058 C 
BRANCH  14  15
ATOM     15  CG  TYR A 338     -40.420 127.212   5.820  1.00 39.03    -0.020 A 
ATOM     16  CD2 TYR A 338     -40.268 128.561   6.095  1.00 40.65    -0.002 A 
ATOM     17  CE2 TYR A 338     -39.188 129.289   5.622  1.00 40.91     0.024 A 
ATOM     18  CZ  TYR A 338     -38.225 128.666   4.851  1.00 42.33     0.089 A 
ATOM     19  CE1 TYR A 338     -38.351 127.317   4.567  1.00 40.63     0.024 A 
ATOM     20  CD1 TYR A 338     -39.446 126.610   5.038  1.00 39.27    -0.002 A 
BRANCH  18  21
ATOM     21  OH  TYR A 338     -37.152 129.373   4.383  1.00 43.36    -0.359 OA
ATOM     22  HH  TYR A 338     -37.212 129.851   3.564  1.00  0.00     0.217 HD
ENDBRANCH  18  21
ENDBRANCH  14  15
ENDBRANCH  13  14
END_RES TYR A 338
ENDMDL
MODEL 2
REMARK VINA RESULT:    -9.414      1.926      2.478
REMARK INTER + INTRA:          -9.624
REMARK INTER:                  -7.140
REMARK INTRA:                  -2.483
REMARK UNBOUND:                -0.210
REMARK  0 active torsions:
REMARK  status: ('A' for Active; 'I' for Inactive)
REMARK       I    between atoms: C3_3  and  O3_21 
REMARK       I    between atoms: C6_6  and  C7_7 
REMARK       I    between atoms: C8_8  and  C9_9 
REMARK       I    between atoms: C10_10  and  C11_11 
REMARK       I    between atoms: C12_12  and  C13_13 
REMARK       I    between atoms: C14_14  and  C15_15 
REMARK       I    between atoms: C23_25  and  O23_43 
REMARK       I    between atoms: C26_28  and  C27_29 
REMARK       I    between atoms: C28_30  and  C29_31 
REMARK       I    between atoms: C30_32  and  C31_33 
REMARK       I    between atoms: C32_34  and  C33_35 
REMARK       I    between atoms: C34_36  and  C35_37 
ROOT
HETATM    1  C1  STQ G6621     -34.588 127.362   6.193  1.00 23.69    -0.018 C 
HETATM    2  C2  STQ G6621     -34.151 126.599   4.933  1.00 24.09     0.045 C 
HETATM    3  C3  STQ G6621     -32.881 127.007   4.190  1.00 24.28     0.123 C 
HETATM    4  C4  STQ G6621     -31.959 127.955   4.971  1.00 23.79     0.066 C 
HETATM    5  C5  STQ G6621     -32.459 128.730   6.152  1.00 23.83    -0.074 C 
HETATM    6  C6  STQ G6621     -33.663 128.485   6.757  1.00 23.66    -0.048 C 
HETATM    7  C7  STQ G6621     -34.199 129.201   7.946  1.00 22.83     0.009 C 
HETATM    8  C8  STQ G6621     -34.785 130.424   7.923  1.00 20.24     0.007 C 
HETATM    9  C9  STQ G6621     -35.338 131.190   9.048  1.00 21.52    -0.062 C 
HETATM   10  C10 STQ G6621     -35.994 132.337   8.761  1.00 20.57     0.007 C 
HETATM   11  C11 STQ G6621     -36.697 133.177   9.700  1.00 19.35     0.001 C 
HETATM   12  C12 STQ G6621     -37.416 134.256   9.324  1.00 20.67     0.007 C 
HETATM   13  C13 STQ G6621     -38.251 135.115  10.185  1.00 22.18    -0.062 C 
HETATM   14  C14 STQ G6621     -38.918 136.140   9.608  1.00 21.93     0.007 C 
HETATM   15  C15 STQ G6621     -39.810 137.072  10.256  1.00 21.89     0.001 C 
HETATM   16  C16 STQ G6621     -34.731 126.216   7.218  1.00 22.02     0.020 C 
HETATM   17  C17 STQ G6621     -35.987 127.931   5.882  1.00 22.09     0.020 C 
HETATM   18  C18 STQ G6621     -31.433 129.720   6.572  1.00 25.09     0.044 C 
HETATM   19  C19 STQ G6621     -35.214 130.598  10.433  1.00 16.21     0.048 C 
HETATM   20  C20 STQ G6621     -38.331 134.779  11.648  1.00 20.93     0.048 C 
HETATM   21  O3  STQ G6621     -32.168 125.850   3.764  1.00 23.32    -0.395 OA
ATOM     22  H3  STQ G6621     -31.378 126.104   3.301  1.00  0.00     0.210 HD
HETATM   23  C21 STQ G6621     -48.167 146.468  13.153  1.00 19.02    -0.035 C 
HETATM   24  C22 STQ G6621     -49.019 147.335  14.104  1.00 18.22     0.045 C 
HETATM   25  C23 STQ G6621     -48.445 148.731  14.365  1.00 19.51     0.142 C 
HETATM   26  C24 STQ G6621     -46.917 148.741  14.552  1.00 18.29     0.007 C 
HETATM   27  C25 STQ G6621     -46.142 147.693  14.171  1.00 19.71    -0.077 C 
HETATM   28  C26 STQ G6621     -46.658 146.400  13.537  1.00 19.08     0.044 C 
HETATM   29  C27 STQ G6621     -45.775 145.935  12.391  1.00 19.58    -0.016 C 
HETATM   30  C28 STQ G6621     -45.256 144.696  12.306  1.00 20.67     0.003 C 
HETATM   31  C29 STQ G6621     -44.551 144.099  11.178  1.00 21.92    -0.062 C 
HETATM   32  C30 STQ G6621     -44.063 142.847  11.320  1.00 23.00     0.007 C 
HETATM   33  C31 STQ G6621     -43.320 142.100  10.333  1.00 23.88     0.001 C 
HETATM   34  C32 STQ G6621     -42.711 140.923  10.613  1.00 22.59     0.007 C 
HETATM   35  C33 STQ G6621     -41.896 140.089   9.723  1.00 21.40    -0.062 C 
HETATM   36  C34 STQ G6621     -41.294 139.004  10.258  1.00 20.55     0.007 C 
HETATM   37  C35 STQ G6621     -40.407 138.079   9.602  1.00 21.49     0.001 C 
HETATM   38  C36 STQ G6621     -48.333 147.031  11.710  1.00 19.20     0.016 C 
HETATM   39  C37 STQ G6621     -48.771 145.055  13.174  1.00 16.30     0.016 C 
HETATM   40  C38 STQ G6621     -44.684 147.850  14.429  1.00 16.85     0.044 C 
HETATM   41  C39 STQ G6621     -44.350 144.946   9.957  1.00 23.01     0.048 C 
HETATM   42  C40 STQ G6621     -41.730 140.541   8.302  1.00 20.32     0.048 C 
HETATM   43  O23 STQ G6621     -49.099 149.322  15.481  1.00 20.61    -0.392 OA
ATOM     44  H23 STQ G6621     -50.043 149.316  15.366  1.00  0.00     0.210 HD
ENDROOT
TORSDOF 12
BEGIN_RES PHE A  61
REMARK  2 active torsions:
REMARK  status: ('A' for Active; 'I' for Inactive)
REMARK    1  A    between atoms: CA   and  CB  
REMARK    2  A    between atoms: CB   and  CG  
ROOT
ATOM      1  CA  PHE A  61     -36.237 128.293  12.768  1.00 39.40     0.164 C 
ENDROOT
BRANCH   1   2
ATOM      2  CB  PHE A  61     -36.813 128.951  11.509  1.00 39.41     0.058 C 
BRANCH   2   3
ATOM      3  CG  PHE A  61     -37.038 128.002  10.356  1.00 39.01    -0.020 A 
ATOM      4  CD2 PHE A  61     -36.304 126.832  10.244  1.00 40.32    -0.004 A 
ATOM      5  CE2 PHE A  61     -36.510 125.961   9.181  1.00 40.20    -0.000 A 
ATOM      6  CZ  PHE A  61     -37.453 126.249   8.221  1.00 40.34    -0.000 A 
ATOM      7  CE1 PHE A  61     -38.192 127.407   8.319  1.00 41.51    -0.000 A 
ATOM      8  CD1 PHE A  61     -37.982 128.280   9.378  1.00 39.94    -0.004 A 
ENDBRANCH   2   3
ENDBRANCH   1   2
END_RES PHE A  61
BEGIN_RES VAL A 134
REMARK  1 active torsions:
REMARK  status: ('A' for Active; 'I' for Inactive)
REMARK    3  A    between atoms: CA   and  CB  
ROOT
ATOM      9  CA  VAL A 134     -29.766 132.051   9.815  1.00 40.75     0.159 C 
ENDROOT
BRANCH   9  10
ATOM     10  CB  VAL A 134     -30.864 132.765   9.009  1.00 40.76     0.029 C 
ATOM     11  CG1 VAL A 134     -30.926 132.225   7.588  1.00 41.76     0.002 C 
ATOM     12  CG2 VAL A 134     -32.220 132.655   9.688  1.00 40.56     0.002 C 
ENDBRANCH   9  10
END_RES VAL A 134
BEGIN_RES TYR A 338
REMARK  3 active torsions:
REMARK  status: ('A' for Active; 'I' for Inactive)
REMARK    4  A    between atoms: CA   and  CB  
REMARK    5  A    between atoms: CB   and  CG  
REMARK    6  A    between atoms: CZ   and  OH  
ROOT
ATOM     13  CA  TYR A 338     -41.631 124.950   6.058  1.00 38.23     0.164 C 
ENDROOT
BRANCH  13  14
ATOM     14  CB  TYR A 338     -41.621 126.456   6.339  1.00 39.15     0.058 C 
BRANCH  14  15
ATOM     15  CG  TYR A 338     -40.441 127.219   5.783  1.00 39.03    -0.020 A 
ATOM     16  CD2 TYR A 338     -40.264 128.558   6.090  1.00 40.65    -0.002 A 
ATOM     17  CE2 TYR A 338     -39.203 129.292   5.586  1.00 40.91     0.024 A 
ATOM     18  CZ  TYR A 338     -38.285 128.686   4.748  1.00 42.33     0.089 A 
ATOM     19  CE1 TYR A 338     -38.437 127.348   4.430  1.00 40.63     0.024 A 
ATOM     20  CD1 TYR A 338     -39.514 126.634   4.935  1.00 39.27    -0.002 A 
BRANCH  18  21
ATOM     21  OH  TYR A 338     -37.232 129.400   4.248  1.00 43.36    -0.359 OA
ATOM     22  HH  TYR A 338     -36.556 129.730   4.829  1.00  0.00     0.217 HD
ENDBRANCH  18  21
ENDBRANCH  14  15
ENDBRANCH  13  14
END_RES TYR A 338
ENDMDL
MODEL 3
REMARK VINA RESULT:    -7.860      0.967     17.310
REMARK INTER + INTRA:          -8.069
REMARK INTER:                  -7.343
REMARK INTRA:                  -0.726
REMARK UNBOUND:                -0.210
REMARK  0 active torsions:
REMARK  status: ('A' for Active; 'I' for Inactive)
REMARK       I    between atoms: C3_3  and  O3_21 
REMARK       I    between atoms: C6_6  and  C7_7 
REMARK       I    between atoms: C8_8  and  C9_9 
REMARK       I    between atoms: C10_10  and  C11_11 
REMARK       I    between atoms: C12_12  and  C13_13 
REMARK       I    between atoms: C14_14  and  C15_15 
REMARK       I    between atoms: C23_25  and  O23_43 
REMARK       I    between atoms: C26_28  and  C27_29 
REMARK       I    between atoms: C28_30  and  C29_31 
REMARK       I    between atoms: C30_32  and  C31_33 
REMARK       I    between atoms: C32_34  and  C33_35 
REMARK       I    between atoms: C34_36  and  C35_37 
ROOT
HETATM    1  C1  STQ G6621     -50.782 146.038  11.599  1.00 23.69    -0.018 C 
HETATM    2  C2  STQ G6621     -51.716 146.547  12.708  1.00 24.09     0.045 C 
HETATM    3  C3  STQ G6621     -51.228 147.601  13.698  1.00 24.28     0.123 C 
HETATM    4  C4  STQ G6621     -49.929 148.311  13.290  1.00 23.79     0.066 C 
HETATM    5  C5  STQ G6621     -49.018 147.731  12.251  1.00 23.83    -0.074 C 
HETATM    6  C6  STQ G6621     -49.372 146.686  11.438  1.00 23.66    -0.048 C 
HETATM    7  C7  STQ G6621     -48.523 146.087  10.374  1.00 22.83     0.009 C 
HETATM    8  C8  STQ G6621     -47.513 145.206  10.583  1.00 20.24     0.007 C 
HETATM    9  C9  STQ G6621     -46.638 144.573   9.589  1.00 21.52    -0.062 C 
HETATM   10  C10 STQ G6621     -45.781 143.621  10.025  1.00 20.57     0.007 C 
HETATM   11  C11 STQ G6621     -44.917 142.808   9.205  1.00 19.35     0.001 C 
HETATM   12  C12 STQ G6621     -44.162 141.806   9.703  1.00 20.67     0.007 C 
HETATM   13  C13 STQ G6621     -43.329 140.854   8.944  1.00 22.18    -0.062 C 
HETATM   14  C14 STQ G6621     -42.664 139.899   9.631  1.00 21.93     0.007 C 
HETATM   15  C15 STQ G6621     -41.829 138.856   9.084  1.00 21.89     0.001 C 
HETATM   16  C16 STQ G6621     -51.635 146.282  10.334  1.00 22.02     0.020 C 
HETATM   17  C17 STQ G6621     -50.647 144.518  11.822  1.00 22.09     0.020 C 
HETATM   18  C18 STQ G6621     -47.746 148.498  12.215  1.00 25.09     0.044 C 
HETATM   19  C19 STQ G6621     -46.817 144.962   8.140  1.00 16.21     0.048 C 
HETATM   20  C20 STQ G6621     -43.296 140.989   7.446  1.00 20.93     0.048 C 
HETATM   21  O3  STQ G6621     -52.259 148.549  13.955  1.00 23.32    -0.395 OA
ATOM     22  H3  STQ G6621     -51.956 149.205  14.572  1.00  0.00     0.210 HD
HETATM   23  C21 STQ G6621     -34.184 128.638   7.170  1.00 19.02    -0.035 C 
HETATM   24  C22 STQ G6621     -33.325 127.675   6.323  1.00 18.22     0.045 C 
HETATM   25  C23 STQ G6621     -31.815 127.890   6.464  1.00 19.51     0.142 C 
HETATM   26  C24 STQ G6621     -31.408 129.375   6.508  1.00 18.29     0.007 C 
HETATM   27  C25 STQ G6621     -32.311 130.357   6.755  1.00 19.71    -0.077 C 
HETATM   28  C26 STQ G6621     -33.804 130.141   7.004  1.00 19.08     0.044 C 
HETATM   29  C27 STQ G6621     -34.328 131.012   8.132  1.00 19.58    -0.016 C 
HETATM   30  C28 STQ G6621     -35.395 131.824   8.014  1.00 20.67     0.003 C 
HETATM   31  C29 STQ G6621     -36.078 132.560   9.071  1.00 21.92    -0.062 C 
HETATM   32  C30 STQ G6621     -37.107 133.365   8.727  1.00 23.00     0.007 C 
HETATM   33  C31 STQ G6621     -37.888 134.188   9.620  1.00 23.88     0.001 C 
HETATM   34  C32 STQ G6621     -38.785 135.102   9.176  1.00 22.59     0.007 C 
HETATM   35  C33 STQ G6621     -39.605 136.025   9.967  1.00 21.40    -0.062 C 
HETATM   36  C34 STQ G6621     -40.353 136.929   9.297  1.00 20.55     0.007 C 
HETATM   37  C35 STQ G6621     -41.184 137.966   9.853  1.00 21.49     0.001 C 
HETATM   38  C36 STQ G6621     -34.055 128.210   8.663  1.00 19.20     0.016 C 
HETATM   39  C37 STQ G6621     -35.646 128.422   6.748  1.00 16.30     0.016 C 
HETATM   40  C38 STQ G6621     -31.765 131.742   6.752  1.00 16.85     0.044 C 
HETATM   41  C39 STQ G6621     -35.543 132.432  10.466  1.00 23.01     0.048 C 
HETATM   42  C40 STQ G6621     -39.499 135.948  11.461  1.00 20.32     0.048 C 
HETATM   43  O23 STQ G6621     -31.129 127.203   5.425  1.00 20.61    -0.392 OA
ATOM     44  H23 STQ G6621     -31.380 126.287   5.399  1.00  0.00     0.210 HD
ENDROOT
TORSDOF 12
BEGIN_RES PHE A  61
REMARK  2 active torsions:
REMARK  status: ('A' for Active; 'I' for Inactive)
REMARK    1  A    between atoms: CA   and  CB  
REMARK    2  A    between atoms: CB   and  CG  
ROOT
ATOM      1  CA  PHE A  61     -36.237 128.293  12.768  1.00 39.40     0.164 C 
ENDROOT
BRANCH   1   2
ATOM      2  CB  PHE A  61     -36.813 128.951  11.509  1.00 39.41     0.058 C 
BRANCH   2   3
ATOM      3  CG  PHE A  61     -37.008 128.008  10.346  1.00 39.01    -0.020 A 
ATOM      4  CD2 PHE A  61     -36.216 126.879  10.204  1.00 40.32    -0.004 A 
ATOM      5  CE2 PHE A  61     -36.394 126.015   9.132  1.00 40.20    -0.000 A 
ATOM      6  CZ  PHE A  61     -37.367 126.267   8.191  1.00 40.34    -0.000 A 
ATOM      7  CE1 PHE A  61     -38.163 127.383   8.318  1.00 41.51    -0.000 A 
ATOM      8  CD1 PHE A  61     -37.981 128.252   9.387  1.00 39.94    -0.004 A 
ENDBRANCH   2   3
ENDBRANCH   1   2
END_RES PHE A  61
BEGIN_RES VAL A 134
REMARK  1 active torsions:
REMARK  status: ('A' for Active; 'I' for Inactive)
REMARK    3  A    between atoms: CA   and  CB  
ROOT
ATOM      9  CA  VAL A 134     -29.766 132.051   9.815  1.00 40.75     0.159 C 
ENDROOT
BRANCH   9  10
ATOM     10  CB  VAL A 134     -30.864 132.765   9.009  1.00 40.76     0.029 C 
ATOM     11  CG1 VAL A 134     -32.115 132.955   9.855  1.00 41.76     0.002 C 
ATOM     12  CG2 VAL A 134     -30.378 134.096   8.455  1.00 40.56     0.002 C 
ENDBRANCH   9  10
END_RES VAL A 134
BEGIN_RES TYR A 338
REMARK  3 active torsions:
REMARK  status: ('A' for Active; 'I' for Inactive)
REMARK    4  A    between atoms: CA   and  CB  
REMARK    5  A    between atoms: CB   and  CG  
REMARK    6  A    between atoms: CZ   and  OH  
ROOT
ATOM     13  CA  TYR A 338     -41.631 124.950   6.058  1.00 38.23     0.164 C 
ENDROOT
BRANCH  13  14
ATOM     14  CB  TYR A 338     -41.621 126.456   6.339  1.00 39.15     0.058 C 
BRANCH  14  15
ATOM     15  CG  TYR A 338     -40.416 127.211   5.826  1.00 39.03    -0.020 A 
ATOM     16  CD2 TYR A 338     -40.261 128.558   6.108  1.00 40.65    -0.002 A 
ATOM     17  CE2 TYR A 338     -39.177 129.285   5.641  1.00 40.91     0.024 A 
ATOM     18  CZ  TYR A 338     -38.215 128.662   4.869  1.00 42.33     0.089 A 
ATOM     19  CE1 TYR A 338     -38.345 127.316   4.578  1.00 40.63     0.024 A 
ATOM     20  CD1 TYR A 338     -39.443 126.609   5.043  1.00 39.27    -0.002 A 
BRANCH  18  21
ATOM     21  OH  TYR A 338     -37.139 129.369   4.407  1.00 43.36    -0.359 OA
ATOM     22  HH  TYR A 338     -37.173 129.795   3.558  1.00  0.00     0.217 HD
ENDBRANCH  18  21
ENDBRANCH  14  15
ENDBRANCH  13  14
END_RES TYR A 338
ENDMDL
