MODEL 1
REMARK VINA RESULT:    -8.254      0.000      0.000
REMARK INTER + INTRA:          -9.261
REMARK INTER:                  -8.254
REMARK INTRA:                  -1.008
REMARK UNBOUND:                -1.008
REMARK  0 active torsions:
REMARK  status: ('A' for Active; 'I' for Inactive)
REMARK       I    between atoms: C3_3  and  O3_21 
REMARK       I    between atoms: C6_6  and  C7_7 
REMARK       I    between atoms: C8_8  and  C9_9 
REMARK       I    between atoms: C10_10  and  C11_11 
REMARK       I    between atoms: C12_12  and  C13_13 
REMARK       I    between atoms: C14_14  and  C15_15 
REMARK       I    between atoms: C23_25  and  O23_43 
REMARK       I    between atoms: C26_28  and  C27_29 
REMARK       I    between atoms: C28_30  and  C29_31 
REMARK       I    between atoms: C30_32  and  C31_33 
REMARK       I    between atoms: C32_34  and  C33_35 
REMARK       I    between atoms: C34_36  and  C35_37 
ROOT
HETATM    1  C1  STQ 5 620     -51.108 143.157  11.824  1.00 42.32    -0.018 C 
HETATM    2  C2  STQ 5 620     -50.759 142.362  13.078  1.00 42.32     0.045 C 
HETATM    3  C3  STQ 5 620     -49.834 143.081  14.054  1.00 42.32     0.123 C 
HETATM    4  C4  STQ 5 620     -50.118 144.572  14.050  1.00 42.32     0.066 C 
HETATM    5  C5  STQ 5 620     -49.865 145.100  12.665  1.00 42.32    -0.074 C 
HETATM    6  C6  STQ 5 620     -50.181 144.332  11.622  1.00 42.32    -0.048 C 
HETATM    7  C7  STQ 5 620     -49.357 144.332  10.410  1.00 42.32     0.009 C 
HETATM    8  C8  STQ 5 620     -48.284 143.576  10.690  1.00 42.32     0.007 C 
HETATM    9  C9  STQ 5 620     -47.212 143.272   9.708  1.00 42.32    -0.062 C 
HETATM   10  C10 STQ 5 620     -46.249 142.408  10.093  1.00 42.32     0.007 C 
HETATM   11  C11 STQ 5 620     -45.162 141.951   9.227  1.00 42.32     0.001 C 
HETATM   12  C12 STQ 5 620     -44.348 140.996   9.656  1.00 42.32     0.007 C 
HETATM   13  C13 STQ 5 620     -43.292 140.437   8.794  1.00 42.32    -0.062 C 
HETATM   14  C14 STQ 5 620     -42.669 139.353   9.273  1.00 42.32     0.007 C 
HETATM   15  C15 STQ 5 620     -41.634 138.580   8.598  1.00 42.32     0.001 C 
HETATM   16  C16 STQ 5 620     -52.548 143.639  11.944  1.00 42.32     0.020 C 
HETATM   17  C17 STQ 5 620     -50.972 142.256  10.606  1.00 42.32     0.020 C 
HETATM   18  C18 STQ 5 620     -48.723 146.073  12.671  1.00 42.32     0.044 C 
HETATM   19  C19 STQ 5 620     -47.227 143.898   8.341  1.00 42.32     0.048 C 
HETATM   20  C20 STQ 5 620     -43.008 141.035   7.447  1.00 42.32     0.048 C 
HETATM   21  O3  STQ 5 620     -50.052 142.577  15.376  1.00 42.32    -0.395 OA
ATOM     22  H3  STQ 5 620     -49.476 143.025  15.984  1.00  0.00     0.210 HD
HETATM   23  C21 STQ 5 620     -34.173 128.704   6.860  1.00 42.32    -0.035 C 
HETATM   24  C22 STQ 5 620     -33.337 128.078   5.771  1.00 42.32     0.045 C 
HETATM   25  C23 STQ 5 620     -31.909 127.893   6.226  1.00 42.32     0.142 C 
HETATM   26  C24 STQ 5 620     -31.381 129.143   6.889  1.00 42.32     0.007 C 
HETATM   27  C25 STQ 5 620     -32.169 130.145   7.310  1.00 42.32    -0.077 C 
HETATM   28  C26 STQ 5 620     -33.661 130.107   7.165  1.00 42.32     0.044 C 
HETATM   29  C27 STQ 5 620     -34.455 130.580   8.361  1.00 42.32    -0.016 C 
HETATM   30  C28 STQ 5 620     -35.230 131.635   8.181  1.00 42.32     0.003 C 
HETATM   31  C29 STQ 5 620     -36.131 132.167   9.206  1.00 42.32    -0.062 C 
HETATM   32  C30 STQ 5 620     -36.929 133.141   8.757  1.00 42.32     0.007 C 
HETATM   33  C31 STQ 5 620     -37.951 133.835   9.521  1.00 42.32     0.001 C 
HETATM   34  C32 STQ 5 620     -38.616 134.777   8.863  1.00 42.32     0.007 C 
HETATM   35  C33 STQ 5 620     -39.669 135.594   9.475  1.00 42.32    -0.062 C 
HETATM   36  C34 STQ 5 620     -40.162 136.624   8.756  1.00 42.32     0.007 C 
HETATM   37  C35 STQ 5 620     -41.193 137.523   9.267  1.00 42.32     0.001 C 
HETATM   38  C36 STQ 5 620     -34.145 127.815   8.094  1.00 42.32     0.016 C 
HETATM   39  C37 STQ 5 620     -35.608 128.795   6.369  1.00 42.32     0.016 C 
HETATM   40  C38 STQ 5 620     -31.524 131.370   7.869  1.00 42.32     0.044 C 
HETATM   41  C39 STQ 5 620     -36.179 131.576  10.584  1.00 42.32     0.048 C 
HETATM   42  C40 STQ 5 620     -40.112 135.225  10.858  1.00 42.32     0.048 C 
HETATM   43  O23 STQ 5 620     -31.138 127.603   5.061  1.00 42.32    -0.392 OA
ATOM     44  H23 STQ 5 620     -30.240 127.486   5.347  1.00  0.00     0.210 HD
ENDROOT
TORSDOF 12
BEGIN_RES PHE A  61
REMARK  2 active torsions:
REMARK  status: ('A' for Active; 'I' for Inactive)
REMARK    1  A    between atoms: CA   and  CB  
REMARK    2  A    between atoms: CB   and  CG  
ROOT
ATOM      1  CA  PHE A  61     -36.237 128.293  12.768  1.00 39.40     0.164 C 
ENDROOT
BRANCH   1   2
ATOM      2  CB  PHE A  61     -36.813 128.951  11.509  1.00 39.41     0.058 C 
BRANCH   2   3
ATOM      3  CG  PHE A  61     -36.955 128.021  10.328  1.00 39.01    -0.020 A 
ATOM      4  CD2 PHE A  61     -36.156 126.894  10.209  1.00 40.32    -0.004 A 
ATOM      5  CE2 PHE A  61     -36.286 126.041   9.120  1.00 40.20    -0.000 A 
ATOM      6  CZ  PHE A  61     -37.217 126.302   8.141  1.00 40.34    -0.000 A 
ATOM      7  CE1 PHE A  61     -38.020 127.416   8.246  1.00 41.51    -0.000 A 
ATOM      8  CD1 PHE A  61     -37.886 128.273   9.331  1.00 39.94    -0.004 A 
ENDBRANCH   2   3
ENDBRANCH   1   2
END_RES PHE A  61
BEGIN_RES VAL A 134
REMARK  1 active torsions:
REMARK  status: ('A' for Active; 'I' for Inactive)
REMARK    3  A    between atoms: CA   and  CB  
ROOT
ATOM      9  CA  VAL A 134     -29.766 132.051   9.815  1.00 40.75     0.159 C 
ENDROOT
BRANCH   9  10
ATOM     10  CB  VAL A 134     -30.864 132.765   9.009  1.00 40.76     0.029 C 
ATOM     11  CG1 VAL A 134     -32.105 132.979   9.863  1.00 41.76     0.002 C 
ATOM     12  CG2 VAL A 134     -30.370 134.084   8.434  1.00 40.56     0.002 C 
ENDBRANCH   9  10
END_RES VAL A 134
BEGIN_RES TYR A 338
REMARK  3 active torsions:
REMARK  status: ('A' for Active; 'I' for Inactive)
REMARK    4  A    between atoms: CA   and  CB  
REMARK    5  A    between atoms: CB   and  CG  
REMARK    6  A    between atoms: CZ   and  OH  
ROOT
ATOM     13  CA  TYR A 338     -41.631 124.950   6.058  1.00 38.23     0.164 C 
ENDROOT
BRANCH  13  14
ATOM     14  CB  TYR A 338     -41.621 126.456   6.339  1.00 39.15     0.058 C 
BRANCH  14  15
ATOM     15  CG  TYR A 338     -40.426 127.214   5.809  1.00 39.03    -0.020 A 
ATOM     16  CD2 TYR A 338     -40.265 128.559   6.097  1.00 40.65    -0.002 A 
ATOM     17  CE2 TYR A 338     -39.190 129.289   5.615  1.00 40.91     0.024 A 
ATOM     18  CZ  TYR A 338     -38.242 128.672   4.820  1.00 42.33     0.089 A 
ATOM     19  CE1 TYR A 338     -38.379 127.328   4.522  1.00 40.63     0.024 A 
ATOM     20  CD1 TYR A 338     -39.468 126.618   5.004  1.00 39.27    -0.002 A 
BRANCH  18  21
ATOM     21  OH  TYR A 338     -37.176 129.381   4.343  1.00 43.36    -0.359 OA
ATOM     22  HH  TYR A 338     -36.985 129.394   3.412  1.00  0.00     0.217 HD
ENDBRANCH  18  21
ENDBRANCH  14  15
ENDBRANCH  13  14
END_RES TYR A 338
ENDMDL
MODEL 2
REMARK VINA RESULT:    -7.614      1.988     16.195
REMARK INTER + INTRA:          -8.622
REMARK INTER:                  -6.504
REMARK INTRA:                  -2.118
REMARK UNBOUND:                -1.008
REMARK  0 active torsions:
REMARK  status: ('A' for Active; 'I' for Inactive)
REMARK       I    between atoms: C3_3  and  O3_21 
REMARK       I    between atoms: C6_6  and  C7_7 
REMARK       I    between atoms: C8_8  and  C9_9 
REMARK       I    between atoms: C10_10  and  C11_11 
REMARK       I    between atoms: C12_12  and  C13_13 
REMARK       I    between atoms: C14_14  and  C15_15 
REMARK       I    between atoms: C23_25  and  O23_43 
REMARK       I    between atoms: C26_28  and  C27_29 
REMARK       I    between atoms: C28_30  and  C29_31 
REMARK       I    between atoms: C30_32  and  C31_33 
REMARK       I    between atoms: C32_34  and  C33_35 
REMARK       I    between atoms: C34_36  and  C35_37 
ROOT
HETATM    1  C1  STQ 5 620     -34.365 127.288   6.582  1.00 42.32    -0.018 C 
HETATM    2  C2  STQ 5 620     -34.573 127.929   5.213  1.00 42.32     0.045 C 
HETATM    3  C3  STQ 5 620     -33.498 128.932   4.807  1.00 42.32     0.123 C 
HETATM    4  C4  STQ 5 620     -32.145 128.501   5.343  1.00 42.32     0.066 C 
HETATM    5  C5  STQ 5 620     -32.221 128.455   6.844  1.00 42.32    -0.074 C 
HETATM    6  C6  STQ 5 620     -33.354 128.042   7.413  1.00 42.32    -0.048 C 
HETATM    7  C7  STQ 5 620     -33.829 128.638   8.665  1.00 42.32     0.009 C 
HETATM    8  C8  STQ 5 620     -34.382 129.815   8.329  1.00 42.32     0.007 C 
HETATM    9  C9  STQ 5 620     -35.035 130.725   9.304  1.00 42.32    -0.062 C 
HETATM   10  C10 STQ 5 620     -35.646 131.822   8.810  1.00 42.32     0.007 C 
HETATM   11  C11 STQ 5 620     -36.393 132.783   9.623  1.00 42.32     0.001 C 
HETATM   12  C12 STQ 5 620     -37.071 133.752   9.024  1.00 42.32     0.007 C 
HETATM   13  C13 STQ 5 620     -37.910 134.693   9.787  1.00 42.32    -0.062 C 
HETATM   14  C14 STQ 5 620     -38.691 135.497   9.054  1.00 42.32     0.007 C 
HETATM   15  C15 STQ 5 620     -39.649 136.472   9.561  1.00 42.32     0.001 C 
HETATM   16  C16 STQ 5 620     -33.908 125.850   6.377  1.00 42.32     0.020 C 
HETATM   17  C17 STQ 5 620     -35.681 127.301   7.346  1.00 42.32     0.020 C 
HETATM   18  C18 STQ 5 620     -31.305 129.476   7.452  1.00 42.32     0.044 C 
HETATM   19  C19 STQ 5 620     -35.021 130.409  10.774  1.00 42.32     0.048 C 
HETATM   20  C20 STQ 5 620     -37.906 134.677  11.288  1.00 42.32     0.048 C 
HETATM   21  O3  STQ 5 620     -33.425 128.999   3.380  1.00 42.32    -0.395 OA
ATOM     22  H3  STQ 5 620     -32.755 129.624   3.127  1.00  0.00     0.210 HD
HETATM   23  C21 STQ 5 620     -49.208 144.478   8.710  1.00 42.32    -0.035 C 
HETATM   24  C22 STQ 5 620     -50.206 145.170   9.606  1.00 42.32     0.045 C 
HETATM   25  C23 STQ 5 620     -50.157 146.667   9.410  1.00 42.32     0.142 C 
HETATM   26  C24 STQ 5 620     -48.734 147.173   9.415  1.00 42.32     0.007 C 
HETATM   27  C25 STQ 5 620     -47.666 146.373   9.277  1.00 42.32    -0.077 C 
HETATM   28  C26 STQ 5 620     -47.792 144.890   9.093  1.00 42.32     0.044 C 
HETATM   29  C27 STQ 5 620     -46.890 144.272   8.048  1.00 42.32    -0.016 C 
HETATM   30  C28 STQ 5 620     -46.018 143.375   8.472  1.00 42.32     0.003 C 
HETATM   31  C29 STQ 5 620     -45.134 142.617   7.583  1.00 42.32    -0.062 C 
HETATM   32  C30 STQ 5 620     -44.445 141.658   8.210  1.00 42.32     0.007 C 
HETATM   33  C31 STQ 5 620     -43.523 140.719   7.595  1.00 42.32     0.001 C 
HETATM   34  C32 STQ 5 620     -42.946 139.859   8.425  1.00 42.32     0.007 C 
HETATM   35  C33 STQ 5 620     -41.975 138.851   7.988  1.00 42.32    -0.062 C 
HETATM   36  C34 STQ 5 620     -41.338 138.138   8.941  1.00 42.32     0.007 C 
HETATM   37  C35 STQ 5 620     -40.332 137.127   8.632  1.00 42.32     0.001 C 
HETATM   38  C36 STQ 5 620     -49.517 144.810   7.258  1.00 42.32     0.016 C 
HETATM   39  C37 STQ 5 620     -49.357 142.977   8.898  1.00 42.32     0.016 C 
HETATM   40  C38 STQ 5 620     -46.305 146.977   9.389  1.00 42.32     0.044 C 
HETATM   41  C39 STQ 5 620     -45.114 142.870   6.104  1.00 42.32     0.048 C 
HETATM   42  C40 STQ 5 620     -41.758 138.695   6.513  1.00 42.32     0.048 C 
HETATM   43  O23 STQ 5 620     -50.880 147.249  10.495  1.00 42.32    -0.392 OA
ATOM     44  H23 STQ 5 620     -50.850 148.190  10.371  1.00  0.00     0.210 HD
ENDROOT
TORSDOF 12
BEGIN_RES PHE A  61
REMARK  2 active torsions:
REMARK  status: ('A' for Active; 'I' for Inactive)
REMARK    1  A    between atoms: CA   and  CB  
REMARK    2  A    between atoms: CB   and  CG  
ROOT
ATOM      1  CA  PHE A  61     -36.237 128.293  12.768  1.00 39.40     0.164 C 
ENDROOT
BRANCH   1   2
ATOM      2  CB  PHE A  61     -36.813 128.951  11.509  1.00 39.41     0.058 C 
BRANCH   2   3
ATOM      3  CG  PHE A  61     -37.122 127.988  10.388  1.00 39.01    -0.020 A 
ATOM      4  CD2 PHE A  61     -38.121 128.265   9.467  1.00 40.32    -0.004 A 
ATOM      5  CE2 PHE A  61     -38.406 127.377   8.438  1.00 40.20    -0.000 A 
ATOM      6  CZ  PHE A  61     -37.694 126.205   8.315  1.00 40.34    -0.000 A 
ATOM      7  CE1 PHE A  61     -36.698 125.917   9.220  1.00 41.51    -0.000 A 
ATOM      8  CD1 PHE A  61     -36.416 126.801  10.253  1.00 39.94    -0.004 A 
ENDBRANCH   2   3
ENDBRANCH   1   2
END_RES PHE A  61
BEGIN_RES VAL A 134
REMARK  1 active torsions:
REMARK  status: ('A' for Active; 'I' for Inactive)
REMARK    3  A    between atoms: CA   and  CB  
ROOT
ATOM      9  CA  VAL A 134     -29.766 132.051   9.815  1.00 40.75     0.159 C 
ENDROOT
BRANCH   9  10
ATOM     10  CB  VAL A 134     -30.864 132.765   9.009  1.00 40.76     0.029 C 
ATOM     11  CG1 VAL A 134     -30.970 132.180   7.608  1.00 41.76     0.002 C 
ATOM     12  CG2 VAL A 134     -32.207 132.711   9.720  1.00 40.56     0.002 C 
ENDBRANCH   9  10
END_RES VAL A 134
BEGIN_RES TYR A 338
REMARK  3 active torsions:
REMARK  status: ('A' for Active; 'I' for Inactive)
REMARK    4  A    between atoms: CA   and  CB  
REMARK    5  A    between atoms: CB   and  CG  
REMARK    6  A    between atoms: CZ   and  OH  
ROOT
ATOM     13  CA  TYR A 338     -41.631 124.950   6.058  1.00 38.23     0.164 C 
ENDROOT
BRANCH  13  14
ATOM     14  CB  TYR A 338     -41.621 126.456   6.339  1.00 39.15     0.058 C 
BRANCH  14  15
ATOM     15  CG  TYR A 338     -40.399 127.205   5.860  1.00 39.03    -0.020 A 
ATOM     16  CD2 TYR A 338     -40.232 128.544   6.167  1.00 40.65    -0.002 A 
ATOM     17  CE2 TYR A 338     -39.132 129.266   5.731  1.00 40.91     0.024 A 
ATOM     18  CZ  TYR A 338     -38.164 128.645   4.965  1.00 42.33     0.089 A 
ATOM     19  CE1 TYR A 338     -38.305 127.305   4.649  1.00 40.63     0.024 A 
ATOM     20  CD1 TYR A 338     -39.420 126.604   5.084  1.00 39.27    -0.002 A 
BRANCH  18  21
ATOM     21  OH  TYR A 338     -37.072 129.345   4.533  1.00 43.36    -0.359 OA
ATOM     22  HH  TYR A 338     -36.654 129.124   3.709  1.00  0.00     0.217 HD
ENDBRANCH  18  21
ENDBRANCH  14  15
ENDBRANCH  13  14
END_RES TYR A 338
ENDMDL
MODEL 3
REMARK VINA RESULT:    -6.647      1.810      2.419
REMARK INTER + INTRA:          -7.655
REMARK INTER:                  -1.570
REMARK INTRA:                  -6.084
REMARK UNBOUND:                -1.008
REMARK  0 active torsions:
REMARK  status: ('A' for Active; 'I' for Inactive)
REMARK       I    between atoms: C3_3  and  O3_21 
REMARK       I    between atoms: C6_6  and  C7_7 
REMARK       I    between atoms: C8_8  and  C9_9 
REMARK       I    between atoms: C10_10  and  C11_11 
REMARK       I    between atoms: C12_12  and  C13_13 
REMARK       I    between atoms: C14_14  and  C15_15 
REMARK       I    between atoms: C23_25  and  O23_43 
REMARK       I    between atoms: C26_28  and  C27_29 
REMARK       I    between atoms: C28_30  and  C29_31 
REMARK       I    between atoms: C30_32  and  C31_33 
REMARK       I    between atoms: C32_34  and  C33_35 
REMARK       I    between atoms: C34_36  and  C35_37 
ROOT
HETATM    1  C1  STQ 5 620     -50.280 145.972   8.450  1.00 42.32    -0.018 C 
HETATM    2  C2  STQ 5 620     -50.934 144.609   8.659  1.00 42.32     0.045 C 
HETATM    3  C3  STQ 5 620     -51.127 144.211  10.118  1.00 42.32     0.123 C 
HETATM    4  C4  STQ 5 620     -51.433 145.433  10.964  1.00 42.32     0.066 C 
HETATM    5  C5  STQ 5 620     -50.267 146.378  10.871  1.00 42.32    -0.074 C 
HETATM    6  C6  STQ 5 620     -49.622 146.484   9.709  1.00 42.32    -0.048 C 
HETATM    7  C7  STQ 5 620     -48.171 146.688   9.668  1.00 42.32     0.009 C 
HETATM    8  C8  STQ 5 620     -47.621 145.487   9.908  1.00 42.32     0.007 C 
HETATM    9  C9  STQ 5 620     -46.157 145.237   9.907  1.00 42.32    -0.062 C 
HETATM   10  C10 STQ 5 620     -45.749 143.959  10.053  1.00 42.32     0.007 C 
HETATM   11  C11 STQ 5 620     -44.349 143.533  10.007  1.00 42.32     0.001 C 
HETATM   12  C12 STQ 5 620     -44.064 142.238  10.024  1.00 42.32     0.007 C 
HETATM   13  C13 STQ 5 620     -42.679 141.752   9.891  1.00 42.32    -0.062 C 
HETATM   14  C14 STQ 5 620     -42.545 140.429   9.728  1.00 42.32     0.007 C 
HETATM   15  C15 STQ 5 620     -41.298 139.704   9.519  1.00 42.32     0.001 C 
HETATM   16  C16 STQ 5 620     -51.349 146.951   7.981  1.00 42.32     0.020 C 
HETATM   17  C17 STQ 5 620     -49.199 145.851   7.387  1.00 42.32     0.020 C 
HETATM   18  C18 STQ 5 620     -49.607 146.538  12.210  1.00 42.32     0.044 C 
HETATM   19  C19 STQ 5 620     -45.187 146.373   9.730  1.00 42.32     0.048 C 
HETATM   20  C20 STQ 5 620     -41.528 142.714   9.880  1.00 42.32     0.048 C 
HETATM   21  O3  STQ 5 620     -52.224 143.297  10.221  1.00 42.32    -0.395 OA
ATOM     22  H3  STQ 5 620     -52.345 143.049  11.130  1.00  0.00     0.210 HD
HETATM   23  C21 STQ 5 620     -34.310 129.810   6.441  1.00 42.32    -0.035 C 
HETATM   24  C22 STQ 5 620     -32.892 129.491   6.033  1.00 42.32     0.045 C 
HETATM   25  C23 STQ 5 620     -32.290 128.450   6.948  1.00 42.32     0.142 C 
HETATM   26  C24 STQ 5 620     -32.550 128.782   8.398  1.00 42.32     0.007 C 
HETATM   27  C25 STQ 5 620     -33.463 129.680   8.798  1.00 42.32    -0.077 C 
HETATM   28  C26 STQ 5 620     -34.322 130.437   7.830  1.00 42.32     0.044 C 
HETATM   29  C27 STQ 5 620     -35.782 130.571   8.203  1.00 42.32    -0.016 C 
HETATM   30  C28 STQ 5 620     -36.237 131.798   8.387  1.00 42.32     0.003 C 
HETATM   31  C29 STQ 5 620     -37.641 132.110   8.663  1.00 42.32    -0.062 C 
HETATM   32  C30 STQ 5 620     -37.903 133.421   8.660  1.00 42.32     0.007 C 
HETATM   33  C31 STQ 5 620     -39.203 134.038   8.861  1.00 42.32     0.001 C 
HETATM   34  C32 STQ 5 620     -39.217 135.365   8.825  1.00 42.32     0.007 C 
HETATM   35  C33 STQ 5 620     -40.432 136.161   9.026  1.00 42.32    -0.062 C 
HETATM   36  C34 STQ 5 620     -40.296 137.500   9.124  1.00 42.32     0.007 C 
HETATM   37  C35 STQ 5 620     -41.428 138.395   9.350  1.00 42.32     0.001 C 
HETATM   38  C36 STQ 5 620     -35.149 128.542   6.388  1.00 42.32     0.016 C 
HETATM   39  C37 STQ 5 620     -34.882 130.803   5.442  1.00 42.32     0.016 C 
HETATM   40  C38 STQ 5 620     -33.566 129.989  10.255  1.00 42.32     0.044 C 
HETATM   41  C39 STQ 5 620     -38.663 131.025   8.831  1.00 42.32     0.048 C 
HETATM   42  C40 STQ 5 620     -41.733 135.423   9.114  1.00 42.32     0.048 C 
HETATM   43  O23 STQ 5 620     -30.885 128.445   6.699  1.00 42.32    -0.392 OA
ATOM     44  H23 STQ 5 620     -30.506 127.790   7.273  1.00  0.00     0.210 HD
ENDROOT
TORSDOF 12
BEGIN_RES PHE A  61
REMARK  2 active torsions:
REMARK  status: ('A' for Active; 'I' for Inactive)
REMARK    1  A    between atoms: CA   and  CB  
REMARK    2  A    between atoms: CB   and  CG  
ROOT
ATOM      1  CA  PHE A  61     -36.237 128.293  12.768  1.00 39.40     0.164 C 
ENDROOT
BRANCH   1   2
ATOM      2  CB  PHE A  61     -36.813 128.951  11.509  1.00 39.41     0.058 C 
BRANCH   2   3
ATOM      3  CG  PHE A  61     -36.764 128.084  10.274  1.00 39.01    -0.020 A 
ATOM      4  CD2 PHE A  61     -37.834 128.036   9.395  1.00 40.32    -0.004 A 
ATOM      5  CE2 PHE A  61     -37.789 127.235   8.260  1.00 40.20    -0.000 A 
ATOM      6  CZ  PHE A  61     -36.672 126.478   7.990  1.00 40.34    -0.000 A 
ATOM      7  CE1 PHE A  61     -35.599 126.516   8.852  1.00 41.51    -0.000 A 
ATOM      8  CD1 PHE A  61     -35.647 127.311   9.990  1.00 39.94    -0.004 A 
ENDBRANCH   2   3
ENDBRANCH   1   2
END_RES PHE A  61
BEGIN_RES VAL A 134
REMARK  1 active torsions:
REMARK  status: ('A' for Active; 'I' for Inactive)
REMARK    3  A    between atoms: CA   and  CB  
ROOT
ATOM      9  CA  VAL A 134     -29.766 132.051   9.815  1.00 40.75     0.159 C 
ENDROOT
BRANCH   9  10
ATOM     10  CB  VAL A 134     -30.864 132.765   9.009  1.00 40.76     0.029 C 
ATOM     11  CG1 VAL A 134     -31.122 132.043   7.694  1.00 41.76     0.002 C 
ATOM     12  CG2 VAL A 134     -32.149 132.903   9.811  1.00 40.56     0.002 C 
ENDBRANCH   9  10
END_RES VAL A 134
BEGIN_RES TYR A 338
REMARK  3 active torsions:
REMARK  status: ('A' for Active; 'I' for Inactive)
REMARK    4  A    between atoms: CA   and  CB  
REMARK    5  A    between atoms: CB   and  CG  
REMARK    6  A    between atoms: CZ   and  OH  
ROOT
ATOM     13  CA  TYR A 338     -41.631 124.950   6.058  1.00 38.23     0.164 C 
ENDROOT
BRANCH  13  14
ATOM     14  CB  TYR A 338     -41.621 126.456   6.339  1.00 39.15     0.058 C 
BRANCH  14  15
ATOM     15  CG  TYR A 338     -40.419 127.212   5.822  1.00 39.03    -0.020 A 
ATOM     16  CD2 TYR A 338     -40.242 128.548   6.138  1.00 40.65    -0.002 A 
ATOM     17  CE2 TYR A 338     -39.159 129.276   5.669  1.00 40.91     0.024 A 
ATOM     18  CZ  TYR A 338     -38.221 128.665   4.859  1.00 42.33     0.089 A 
ATOM     19  CE1 TYR A 338     -38.373 127.329   4.532  1.00 40.63     0.024 A 
ATOM     20  CD1 TYR A 338     -39.470 126.622   5.001  1.00 39.27    -0.002 A 
BRANCH  18  21
ATOM     21  OH  TYR A 338     -37.147 129.372   4.394  1.00 43.36    -0.359 OA
ATOM     22  HH  TYR A 338     -36.451 128.933   3.919  1.00  0.00     0.217 HD
ENDBRANCH  18  21
ENDBRANCH  14  15
ENDBRANCH  13  14
END_RES TYR A 338
ENDMDL
MODEL 4
REMARK VINA RESULT:    -5.536      3.386      5.076
REMARK INTER + INTRA:          -6.544
REMARK INTER:                  -2.288
REMARK INTRA:                  -4.256
REMARK UNBOUND:                -1.008
REMARK  0 active torsions:
REMARK  status: ('A' for Active; 'I' for Inactive)
REMARK       I    between atoms: C3_3  and  O3_21 
REMARK       I    between atoms: C6_6  and  C7_7 
REMARK       I    between atoms: C8_8  and  C9_9 
REMARK       I    between atoms: C10_10  and  C11_11 
REMARK       I    between atoms: C12_12  and  C13_13 
REMARK       I    between atoms: C14_14  and  C15_15 
REMARK       I    between atoms: C23_25  and  O23_43 
REMARK       I    between atoms: C26_28  and  C27_29 
REMARK       I    between atoms: C28_30  and  C29_31 
REMARK       I    between atoms: C30_32  and  C31_33 
REMARK       I    between atoms: C32_34  and  C33_35 
REMARK       I    between atoms: C34_36  and  C35_37 
ROOT
HETATM    1  C1  STQ 5 620     -49.582 149.980   6.920  1.00 42.32    -0.018 C 
HETATM    2  C2  STQ 5 620     -49.957 148.891   5.919  1.00 42.32     0.045 C 
HETATM    3  C3  STQ 5 620     -51.075 147.961   6.377  1.00 42.32     0.123 C 
HETATM    4  C4  STQ 5 620     -52.085 148.722   7.216  1.00 42.32     0.066 C 
HETATM    5  C5  STQ 5 620     -51.381 149.265   8.429  1.00 42.32    -0.074 C 
HETATM    6  C6  STQ 5 620     -50.125 149.693   8.300  1.00 42.32    -0.048 C 
HETATM    7  C7  STQ 5 620     -49.148 149.500   9.375  1.00 42.32     0.009 C 
HETATM    8  C8  STQ 5 620     -48.759 148.218   9.298  1.00 42.32     0.007 C 
HETATM    9  C9  STQ 5 620     -47.730 147.615  10.182  1.00 42.32    -0.062 C 
HETATM   10  C10 STQ 5 620     -47.357 146.345   9.920  1.00 42.32     0.007 C 
HETATM   11  C11 STQ 5 620     -46.311 145.628  10.650  1.00 42.32     0.001 C 
HETATM   12  C12 STQ 5 620     -45.925 144.432  10.225  1.00 42.32     0.007 C 
HETATM   13  C13 STQ 5 620     -44.817 143.705  10.869  1.00 42.32    -0.062 C 
HETATM   14  C14 STQ 5 620     -44.400 142.605  10.230  1.00 42.32     0.007 C 
HETATM   15  C15 STQ 5 620     -43.292 141.743  10.623  1.00 42.32     0.001 C 
HETATM   16  C16 STQ 5 620     -50.121 151.310   6.410  1.00 42.32     0.020 C 
HETATM   17  C17 STQ 5 620     -48.066 150.054   7.034  1.00 42.32     0.020 C 
HETATM   18  C18 STQ 5 620     -51.925 148.640   9.681  1.00 42.32     0.044 C 
HETATM   19  C19 STQ 5 620     -47.128 148.410  11.308  1.00 42.32     0.048 C 
HETATM   20  C20 STQ 5 620     -44.185 144.230  12.125  1.00 42.32     0.048 C 
HETATM   21  O3  STQ 5 620     -51.745 147.423   5.232  1.00 42.32    -0.395 OA
ATOM     22  H3  STQ 5 620     -52.442 146.844   5.516  1.00  0.00     0.210 HD
HETATM   23  C21 STQ 5 620     -34.786 132.739   8.955  1.00 42.32    -0.035 C 
HETATM   24  C22 STQ 5 620     -33.485 132.267   9.556  1.00 42.32     0.045 C 
HETATM   25  C23 STQ 5 620     -33.572 130.812   9.955  1.00 42.32     0.142 C 
HETATM   26  C24 STQ 5 620     -34.844 130.531  10.717  1.00 42.32     0.007 C 
HETATM   27  C25 STQ 5 620     -35.892 131.370  10.742  1.00 42.32    -0.077 C 
HETATM   28  C26 STQ 5 620     -35.894 132.672   9.999  1.00 42.32     0.044 C 
HETATM   29  C27 STQ 5 620     -37.170 133.011   9.261  1.00 42.32    -0.016 C 
HETATM   30  C28 STQ 5 620     -37.804 134.105   9.644  1.00 42.32     0.003 C 
HETATM   31  C29 STQ 5 620     -39.001 134.625   8.978  1.00 42.32    -0.062 C 
HETATM   32  C30 STQ 5 620     -39.384 135.822   9.435  1.00 42.32     0.007 C 
HETATM   33  C31 STQ 5 620     -40.505 136.609   8.950  1.00 42.32     0.001 C 
HETATM   34  C32 STQ 5 620     -40.698 137.768   9.567  1.00 42.32     0.007 C 
HETATM   35  C33 STQ 5 620     -41.790 138.686   9.227  1.00 42.32    -0.062 C 
HETATM   36  C34 STQ 5 620     -41.981 139.757  10.025  1.00 42.32     0.007 C 
HETATM   37  C35 STQ 5 620     -43.050 140.727   9.804  1.00 42.32     0.001 C 
HETATM   38  C36 STQ 5 620     -35.113 131.896   7.732  1.00 42.32     0.016 C 
HETATM   39  C37 STQ 5 620     -34.611 134.181   8.508  1.00 42.32     0.016 C 
HETATM   40  C38 STQ 5 620     -37.060 131.024  11.605  1.00 42.32     0.044 C 
HETATM   41  C39 STQ 5 620     -39.640 133.891   7.837  1.00 42.32     0.048 C 
HETATM   42  C40 STQ 5 620     -42.615 138.360   8.019  1.00 42.32     0.048 C 
HETATM   43  O23 STQ 5 620     -32.442 130.544  10.785  1.00 42.32    -0.392 OA
ATOM     44  H23 STQ 5 620     -32.497 129.629  11.036  1.00  0.00     0.210 HD
ENDROOT
TORSDOF 12
BEGIN_RES PHE A  61
REMARK  2 active torsions:
REMARK  status: ('A' for Active; 'I' for Inactive)
REMARK    1  A    between atoms: CA   and  CB  
REMARK    2  A    between atoms: CB   and  CG  
ROOT
ATOM      1  CA  PHE A  61     -36.237 128.293  12.768  1.00 39.40     0.164 C 
ENDROOT
BRANCH   1   2
ATOM      2  CB  PHE A  61     -36.813 128.951  11.509  1.00 39.41     0.058 C 
BRANCH   2   3
ATOM      3  CG  PHE A  61     -36.610 128.157  10.241  1.00 39.01    -0.020 A 
ATOM      4  CD2 PHE A  61     -35.412 127.505   9.994  1.00 40.32    -0.004 A 
ATOM      5  CE2 PHE A  61     -35.225 126.777   8.825  1.00 40.20    -0.000 A 
ATOM      6  CZ  PHE A  61     -36.234 126.690   7.894  1.00 40.34    -0.000 A 
ATOM      7  CE1 PHE A  61     -37.431 127.330   8.125  1.00 41.51    -0.000 A 
ATOM      8  CD1 PHE A  61     -37.616 128.063   9.290  1.00 39.94    -0.004 A 
ENDBRANCH   2   3
ENDBRANCH   1   2
END_RES PHE A  61
BEGIN_RES VAL A 134
REMARK  1 active torsions:
REMARK  status: ('A' for Active; 'I' for Inactive)
REMARK    3  A    between atoms: CA   and  CB  
ROOT
ATOM      9  CA  VAL A 134     -29.766 132.051   9.815  1.00 40.75     0.159 C 
ENDROOT
BRANCH   9  10
ATOM     10  CB  VAL A 134     -30.864 132.765   9.009  1.00 40.76     0.029 C 
ATOM     11  CG1 VAL A 134     -30.471 134.207   8.724  1.00 41.76     0.002 C 
ATOM     12  CG2 VAL A 134     -31.183 132.027   7.718  1.00 40.56     0.002 C 
ENDBRANCH   9  10
END_RES VAL A 134
BEGIN_RES TYR A 338
REMARK  3 active torsions:
REMARK  status: ('A' for Active; 'I' for Inactive)
REMARK    4  A    between atoms: CA   and  CB  
REMARK    5  A    between atoms: CB   and  CG  
REMARK    6  A    between atoms: CZ   and  OH  
ROOT
ATOM     13  CA  TYR A 338     -41.631 124.950   6.058  1.00 38.23     0.164 C 
ENDROOT
BRANCH  13  14
ATOM     14  CB  TYR A 338     -41.621 126.456   6.339  1.00 39.15     0.058 C 
BRANCH  14  15
ATOM     15  CG  TYR A 338     -40.393 127.203   5.871  1.00 39.03    -0.020 A 
ATOM     16  CD2 TYR A 338     -39.421 126.556   5.127  1.00 40.65    -0.002 A 
ATOM     17  CE2 TYR A 338     -38.275 127.205   4.695  1.00 40.91     0.024 A 
ATOM     18  CZ  TYR A 338     -38.081 128.537   5.010  1.00 42.33     0.089 A 
ATOM     19  CE1 TYR A 338     -39.040 129.206   5.749  1.00 40.63     0.024 A 
ATOM     20  CD1 TYR A 338     -40.173 128.535   6.183  1.00 39.27    -0.002 A 
BRANCH  18  21
ATOM     21  OH  TYR A 338     -36.956 129.189   4.585  1.00 43.36    -0.359 OA
ATOM     22  HH  TYR A 338     -36.153 128.707   4.425  1.00  0.00     0.217 HD
ENDBRANCH  18  21
ENDBRANCH  14  15
ENDBRANCH  13  14
END_RES TYR A 338
ENDMDL
