MODEL 1
REMARK VINA RESULT:    -9.023      0.000      0.000
REMARK INTER + INTRA:         -11.413
REMARK INTER:                  -9.023
REMARK INTRA:                  -2.390
REMARK UNBOUND:                -2.390
REMARK  0 active torsions:
REMARK  status: ('A' for Active; 'I' for Inactive)
REMARK       I    between atoms: C3_3  and  O3_21 
REMARK       I    between atoms: C6_6  and  C7_7 
REMARK       I    between atoms: C8_8  and  C9_9 
REMARK       I    between atoms: C10_10  and  C11_11 
REMARK       I    between atoms: C12_12  and  C13_13 
REMARK       I    between atoms: C14_14  and  C15_15 
REMARK       I    between atoms: C23_25  and  O23_43 
REMARK       I    between atoms: C26_28  and  C27_29 
REMARK       I    between atoms: C28_30  and  C29_31 
REMARK       I    between atoms: C30_32  and  C31_33 
REMARK       I    between atoms: C32_34  and  C33_35 
REMARK       I    between atoms: C34_36  and  C35_37 
ROOT
HETATM    1  C1  STQ 2 619     -34.155 127.208   6.694  1.00 46.63    -0.018 C 
HETATM    2  C2  STQ 2 619     -34.285 127.537   5.208  1.00 46.63     0.045 C 
HETATM    3  C3  STQ 2 619     -33.293 128.572   4.694  1.00 46.63     0.123 C 
HETATM    4  C4  STQ 2 619     -31.969 128.420   5.420  1.00 46.63     0.066 C 
HETATM    5  C5  STQ 2 619     -32.219 128.717   6.874  1.00 46.63    -0.074 C 
HETATM    6  C6  STQ 2 619     -33.308 128.199   7.449  1.00 46.63    -0.048 C 
HETATM    7  C7  STQ 2 619     -33.889 128.829   8.631  1.00 46.63     0.009 C 
HETATM    8  C8  STQ 2 619     -34.385 130.009   8.243  1.00 46.63     0.007 C 
HETATM    9  C9  STQ 2 619     -35.186 130.870   9.145  1.00 46.63    -0.062 C 
HETATM   10  C10 STQ 2 619     -35.853 131.902   8.595  1.00 46.63     0.007 C 
HETATM   11  C11 STQ 2 619     -36.736 132.797   9.345  1.00 46.63     0.001 C 
HETATM   12  C12 STQ 2 619     -37.420 133.741   8.707  1.00 46.63     0.007 C 
HETATM   13  C13 STQ 2 619     -38.348 134.641   9.422  1.00 46.63    -0.062 C 
HETATM   14  C14 STQ 2 619     -39.058 135.492   8.663  1.00 46.63     0.007 C 
HETATM   15  C15 STQ 2 619     -40.037 136.455   9.160  1.00 46.63     0.001 C 
HETATM   16  C16 STQ 2 619     -33.486 125.850   6.855  1.00 46.63     0.020 C 
HETATM   17  C17 STQ 2 619     -35.535 127.175   7.335  1.00 46.63     0.020 C 
HETATM   18  C18 STQ 2 619     -31.348 129.763   7.520  1.00 46.63     0.044 C 
HETATM   19  C19 STQ 2 619     -35.262 130.556  10.615  1.00 46.63     0.048 C 
HETATM   20  C20 STQ 2 619     -38.459 134.565  10.919  1.00 46.63     0.048 C 
HETATM   21  O3  STQ 2 619     -33.082 128.382   3.292  1.00 46.63    -0.395 OA
ATOM     22  H3  STQ 2 619     -32.464 129.028   2.971  1.00  0.00     0.210 HD
HETATM   23  C21 STQ 2 619     -49.454 144.800   9.083  1.00 46.63    -0.035 C 
HETATM   24  C22 STQ 2 619     -50.360 145.475  10.089  1.00 46.63     0.045 C 
HETATM   25  C23 STQ 2 619     -50.187 146.980  10.072  1.00 46.63     0.142 C 
HETATM   26  C24 STQ 2 619     -48.742 147.404   9.912  1.00 46.63     0.007 C 
HETATM   27  C25 STQ 2 619     -47.749 146.548   9.635  1.00 46.63    -0.077 C 
HETATM   28  C26 STQ 2 619     -48.002 145.083   9.445  1.00 46.63     0.044 C 
HETATM   29  C27 STQ 2 619     -47.143 144.461   8.372  1.00 46.63    -0.016 C 
HETATM   30  C28 STQ 2 619     -46.311 143.501   8.743  1.00 46.63     0.003 C 
HETATM   31  C29 STQ 2 619     -45.459 142.780   7.791  1.00 46.63    -0.062 C 
HETATM   32  C30 STQ 2 619     -44.736 141.795   8.335  1.00 46.63     0.007 C 
HETATM   33  C31 STQ 2 619     -43.832 140.912   7.617  1.00 46.63     0.001 C 
HETATM   34  C32 STQ 2 619     -43.211 139.998   8.354  1.00 46.63     0.007 C 
HETATM   35  C33 STQ 2 619     -42.254 139.034   7.791  1.00 46.63    -0.062 C 
HETATM   36  C34 STQ 2 619     -41.637 138.211   8.657  1.00 46.63     0.007 C 
HETATM   37  C35 STQ 2 619     -40.648 137.213   8.259  1.00 46.63     0.001 C 
HETATM   38  C36 STQ 2 619     -49.795 145.286   7.682  1.00 46.63     0.016 C 
HETATM   39  C37 STQ 2 619     -49.708 143.301   9.141  1.00 46.63     0.016 C 
HETATM   40  C38 STQ 2 619     -46.349 147.077   9.569  1.00 46.63     0.044 C 
HETATM   41  C39 STQ 2 619     -45.478 143.125   6.332  1.00 46.63     0.048 C 
HETATM   42  C40 STQ 2 619     -42.032 139.038   6.307  1.00 46.63     0.048 C 
HETATM   43  O23 STQ 2 619     -50.668 147.469  11.323  1.00 46.63    -0.392 OA
ATOM     44  H23 STQ 2 619     -51.574 147.204  11.423  1.00  0.00     0.210 HD
ENDROOT
TORSDOF 12
BEGIN_RES PHE A  61
REMARK  2 active torsions:
REMARK  status: ('A' for Active; 'I' for Inactive)
REMARK    1  A    between atoms: CA   and  CB  
REMARK    2  A    between atoms: CB   and  CG  
ROOT
ATOM      1  CA  PHE A  61     -36.237 128.293  12.768  1.00 39.40     0.164 C 
ENDROOT
BRANCH   1   2
ATOM      2  CB  PHE A  61     -36.813 128.951  11.509  1.00 39.41     0.058 C 
BRANCH   2   3
ATOM      3  CG  PHE A  61     -37.102 127.991  10.380  1.00 39.01    -0.020 A 
ATOM      4  CD2 PHE A  61     -36.403 126.800  10.262  1.00 40.32    -0.004 A 
ATOM      5  CE2 PHE A  61     -36.667 125.919   9.220  1.00 40.20    -0.000 A 
ATOM      6  CZ  PHE A  61     -37.636 126.217   8.289  1.00 40.34    -0.000 A 
ATOM      7  CE1 PHE A  61     -38.341 127.396   8.393  1.00 41.51    -0.000 A 
ATOM      8  CD1 PHE A  61     -38.072 128.280   9.430  1.00 39.94    -0.004 A 
ENDBRANCH   2   3
ENDBRANCH   1   2
END_RES PHE A  61
BEGIN_RES VAL A 134
REMARK  1 active torsions:
REMARK  status: ('A' for Active; 'I' for Inactive)
REMARK    3  A    between atoms: CA   and  CB  
ROOT
ATOM      9  CA  VAL A 134     -29.766 132.051   9.815  1.00 40.75     0.159 C 
ENDROOT
BRANCH   9  10
ATOM     10  CB  VAL A 134     -30.864 132.765   9.009  1.00 40.76     0.029 C 
ATOM     11  CG1 VAL A 134     -30.922 132.228   7.586  1.00 41.76     0.002 C 
ATOM     12  CG2 VAL A 134     -32.221 132.651   9.686  1.00 40.56     0.002 C 
ENDBRANCH   9  10
END_RES VAL A 134
BEGIN_RES TYR A 338
REMARK  3 active torsions:
REMARK  status: ('A' for Active; 'I' for Inactive)
REMARK    4  A    between atoms: CA   and  CB  
REMARK    5  A    between atoms: CB   and  CG  
REMARK    6  A    between atoms: CZ   and  OH  
ROOT
ATOM     13  CA  TYR A 338     -41.631 124.950   6.058  1.00 38.23     0.164 C 
ENDROOT
BRANCH  13  14
ATOM     14  CB  TYR A 338     -41.621 126.456   6.339  1.00 39.15     0.058 C 
BRANCH  14  15
ATOM     15  CG  TYR A 338     -40.393 127.202   5.872  1.00 39.03    -0.020 A 
ATOM     16  CD2 TYR A 338     -40.231 128.544   6.173  1.00 40.65    -0.002 A 
ATOM     17  CE2 TYR A 338     -39.125 129.263   5.748  1.00 40.91     0.024 A 
ATOM     18  CZ  TYR A 338     -38.147 128.638   4.998  1.00 42.33     0.089 A 
ATOM     19  CE1 TYR A 338     -38.283 127.297   4.688  1.00 40.63     0.024 A 
ATOM     20  CD1 TYR A 338     -39.403 126.598   5.112  1.00 39.27    -0.002 A 
BRANCH  18  21
ATOM     21  OH  TYR A 338     -37.050 129.337   4.577  1.00 43.36    -0.359 OA
ATOM     22  HH  TYR A 338     -36.249 129.329   5.089  1.00  0.00     0.217 HD
ENDBRANCH  18  21
ENDBRANCH  14  15
ENDBRANCH  13  14
END_RES TYR A 338
ENDMDL
MODEL 2
REMARK VINA RESULT:    -8.050      1.449     16.471
REMARK INTER + INTRA:         -10.440
REMARK INTER:                  -9.776
REMARK INTRA:                  -0.665
REMARK UNBOUND:                -2.390
REMARK  0 active torsions:
REMARK  status: ('A' for Active; 'I' for Inactive)
REMARK       I    between atoms: C3_3  and  O3_21 
REMARK       I    between atoms: C6_6  and  C7_7 
REMARK       I    between atoms: C8_8  and  C9_9 
REMARK       I    between atoms: C10_10  and  C11_11 
REMARK       I    between atoms: C12_12  and  C13_13 
REMARK       I    between atoms: C14_14  and  C15_15 
REMARK       I    between atoms: C23_25  and  O23_43 
REMARK       I    between atoms: C26_28  and  C27_29 
REMARK       I    between atoms: C28_30  and  C29_31 
REMARK       I    between atoms: C30_32  and  C31_33 
REMARK       I    between atoms: C32_34  and  C33_35 
REMARK       I    between atoms: C34_36  and  C35_37 
ROOT
HETATM    1  C1  STQ 2 619     -50.785 144.511  11.264  1.00 46.63    -0.018 C 
HETATM    2  C2  STQ 2 619     -50.759 143.902  12.664  1.00 46.63     0.045 C 
HETATM    3  C3  STQ 2 619     -49.771 144.550  13.625  1.00 46.63     0.123 C 
HETATM    4  C4  STQ 2 619     -49.683 146.039  13.343  1.00 46.63     0.066 C 
HETATM    5  C5  STQ 2 619     -49.131 146.200  11.953  1.00 46.63    -0.074 C 
HETATM    6  C6  STQ 2 619     -49.608 145.409  10.987  1.00 46.63    -0.048 C 
HETATM    7  C7  STQ 2 619     -48.807 145.133   9.797  1.00 46.63     0.009 C 
HETATM    8  C8  STQ 2 619     -47.764 144.394  10.191  1.00 46.63     0.007 C 
HETATM    9  C9  STQ 2 619     -46.806 143.795   9.230  1.00 46.63    -0.062 C 
HETATM   10  C10 STQ 2 619     -45.952 142.866   9.697  1.00 46.63     0.007 C 
HETATM   11  C11 STQ 2 619     -44.996 142.139   8.858  1.00 46.63     0.001 C 
HETATM   12  C12 STQ 2 619     -44.245 141.180   9.388  1.00 46.63     0.007 C 
HETATM   13  C13 STQ 2 619     -43.296 140.400   8.567  1.00 46.63    -0.062 C 
HETATM   14  C14 STQ 2 619     -42.661 139.390   9.186  1.00 46.63     0.007 C 
HETATM   15  C15 STQ 2 619     -41.695 138.489   8.565  1.00 46.63     0.001 C 
HETATM   16  C16 STQ 2 619     -52.034 145.369  11.110  1.00 46.63     0.020 C 
HETATM   17  C17 STQ 2 619     -50.795 143.404  10.221  1.00 46.63     0.020 C 
HETATM   18  C18 STQ 2 619     -47.919 147.080  11.793  1.00 46.63     0.044 C 
HETATM   19  C19 STQ 2 619     -46.837 144.204   7.782  1.00 46.63     0.048 C 
HETATM   20  C20 STQ 2 619     -43.090 140.753   7.122  1.00 46.63     0.048 C 
HETATM   21  O3  STQ 2 619     -50.211 144.354  14.972  1.00 46.63    -0.395 OA
ATOM     22  H3  STQ 2 619     -49.595 144.758  15.572  1.00  0.00     0.210 HD
HETATM   23  C21 STQ 2 619     -34.237 128.481   6.973  1.00 46.63    -0.035 C 
HETATM   24  C22 STQ 2 619     -33.450 127.838   5.852  1.00 46.63     0.045 C 
HETATM   25  C23 STQ 2 619     -31.968 127.801   6.164  1.00 46.63     0.142 C 
HETATM   26  C24 STQ 2 619     -31.477 129.063   6.840  1.00 46.63     0.007 C 
HETATM   27  C25 STQ 2 619     -32.295 130.031   7.278  1.00 46.63    -0.077 C 
HETATM   28  C26 STQ 2 619     -33.784 129.924   7.142  1.00 46.63     0.044 C 
HETATM   29  C27 STQ 2 619     -34.536 130.496   8.318  1.00 46.63    -0.016 C 
HETATM   30  C28 STQ 2 619     -35.342 131.518   8.083  1.00 46.63     0.003 C 
HETATM   31  C29 STQ 2 619     -36.168 132.132   9.128  1.00 46.63    -0.062 C 
HETATM   32  C30 STQ 2 619     -36.975 133.106   8.693  1.00 46.63     0.007 C 
HETATM   33  C31 STQ 2 619     -37.910 133.860   9.511  1.00 46.63     0.001 C 
HETATM   34  C32 STQ 2 619     -38.617 134.787   8.874  1.00 46.63     0.007 C 
HETATM   35  C33 STQ 2 619     -39.598 135.648   9.550  1.00 46.63    -0.062 C 
HETATM   36  C34 STQ 2 619     -40.192 136.598   8.806  1.00 46.63     0.007 C 
HETATM   37  C35 STQ 2 619     -41.172 137.543   9.333  1.00 46.63     0.001 C 
HETATM   38  C36 STQ 2 619     -34.056 127.675   8.252  1.00 46.63     0.016 C 
HETATM   39  C37 STQ 2 619     -35.711 128.453   6.599  1.00 46.63     0.016 C 
HETATM   40  C38 STQ 2 619     -31.687 131.265   7.869  1.00 46.63     0.044 C 
HETATM   41  C39 STQ 2 619     -36.112 131.632  10.541  1.00 46.63     0.048 C 
HETATM   42  C40 STQ 2 619     -39.863 135.413  11.009  1.00 46.63     0.048 C 
HETATM   43  O23 STQ 2 619     -31.284 127.657   4.920  1.00 46.63    -0.392 OA
ATOM     44  H23 STQ 2 619     -31.592 126.865   4.496  1.00  0.00     0.210 HD
ENDROOT
TORSDOF 12
BEGIN_RES PHE A  61
REMARK  2 active torsions:
REMARK  status: ('A' for Active; 'I' for Inactive)
REMARK    1  A    between atoms: CA   and  CB  
REMARK    2  A    between atoms: CB   and  CG  
ROOT
ATOM      1  CA  PHE A  61     -36.237 128.293  12.768  1.00 39.40     0.164 C 
ENDROOT
BRANCH   1   2
ATOM      2  CB  PHE A  61     -36.813 128.951  11.509  1.00 39.41     0.058 C 
BRANCH   2   3
ATOM      3  CG  PHE A  61     -37.000 128.010  10.343  1.00 39.01    -0.020 A 
ATOM      4  CD2 PHE A  61     -36.202 126.886  10.200  1.00 40.32    -0.004 A 
ATOM      5  CE2 PHE A  61     -36.373 126.023   9.125  1.00 40.20    -0.000 A 
ATOM      6  CZ  PHE A  61     -37.346 126.271   8.184  1.00 40.34    -0.000 A 
ATOM      7  CE1 PHE A  61     -38.149 127.383   8.313  1.00 41.51    -0.000 A 
ATOM      8  CD1 PHE A  61     -37.974 128.250   9.384  1.00 39.94    -0.004 A 
ENDBRANCH   2   3
ENDBRANCH   1   2
END_RES PHE A  61
BEGIN_RES VAL A 134
REMARK  1 active torsions:
REMARK  status: ('A' for Active; 'I' for Inactive)
REMARK    3  A    between atoms: CA   and  CB  
ROOT
ATOM      9  CA  VAL A 134     -29.766 132.051   9.815  1.00 40.75     0.159 C 
ENDROOT
BRANCH   9  10
ATOM     10  CB  VAL A 134     -30.864 132.765   9.009  1.00 40.76     0.029 C 
ATOM     11  CG1 VAL A 134     -32.108 132.972   9.860  1.00 41.76     0.002 C 
ATOM     12  CG2 VAL A 134     -30.373 134.087   8.440  1.00 40.56     0.002 C 
ENDBRANCH   9  10
END_RES VAL A 134
BEGIN_RES TYR A 338
REMARK  3 active torsions:
REMARK  status: ('A' for Active; 'I' for Inactive)
REMARK    4  A    between atoms: CA   and  CB  
REMARK    5  A    between atoms: CB   and  CG  
REMARK    6  A    between atoms: CZ   and  OH  
ROOT
ATOM     13  CA  TYR A 338     -41.631 124.950   6.058  1.00 38.23     0.164 C 
ENDROOT
BRANCH  13  14
ATOM     14  CB  TYR A 338     -41.621 126.456   6.339  1.00 39.15     0.058 C 
BRANCH  14  15
ATOM     15  CG  TYR A 338     -40.425 127.214   5.811  1.00 39.03    -0.020 A 
ATOM     16  CD2 TYR A 338     -40.263 128.558   6.101  1.00 40.65    -0.002 A 
ATOM     17  CE2 TYR A 338     -39.187 129.288   5.620  1.00 40.91     0.024 A 
ATOM     18  CZ  TYR A 338     -38.239 128.671   4.827  1.00 42.33     0.089 A 
ATOM     19  CE1 TYR A 338     -38.375 127.327   4.528  1.00 40.63     0.024 A 
ATOM     20  CD1 TYR A 338     -39.466 126.618   5.007  1.00 39.27    -0.002 A 
BRANCH  18  21
ATOM     21  OH  TYR A 338     -37.171 129.379   4.351  1.00 43.36    -0.359 OA
ATOM     22  HH  TYR A 338     -36.402 128.928   4.023  1.00  0.00     0.217 HD
ENDBRANCH  18  21
ENDBRANCH  14  15
ENDBRANCH  13  14
END_RES TYR A 338
ENDMDL
MODEL 3
REMARK VINA RESULT:    -6.117      2.370     16.770
REMARK INTER + INTRA:          -8.507
REMARK INTER:                  -4.110
REMARK INTRA:                  -4.397
REMARK UNBOUND:                -2.390
REMARK  0 active torsions:
REMARK  status: ('A' for Active; 'I' for Inactive)
REMARK       I    between atoms: C3_3  and  O3_21 
REMARK       I    between atoms: C6_6  and  C7_7 
REMARK       I    between atoms: C8_8  and  C9_9 
REMARK       I    between atoms: C10_10  and  C11_11 
REMARK       I    between atoms: C12_12  and  C13_13 
REMARK       I    between atoms: C14_14  and  C15_15 
REMARK       I    between atoms: C23_25  and  O23_43 
REMARK       I    between atoms: C26_28  and  C27_29 
REMARK       I    between atoms: C28_30  and  C29_31 
REMARK       I    between atoms: C30_32  and  C31_33 
REMARK       I    between atoms: C32_34  and  C33_35 
REMARK       I    between atoms: C34_36  and  C35_37 
ROOT
HETATM    1  C1  STQ 2 619     -49.989 149.946   7.011  1.00 46.63    -0.018 C 
HETATM    2  C2  STQ 2 619     -50.562 149.083   5.888  1.00 46.63     0.045 C 
HETATM    3  C3  STQ 2 619     -51.625 148.084   6.328  1.00 46.63     0.123 C 
HETATM    4  C4  STQ 2 619     -52.453 148.679   7.453  1.00 46.63     0.066 C 
HETATM    5  C5  STQ 2 619     -51.530 148.899   8.620  1.00 46.63    -0.074 C 
HETATM    6  C6  STQ 2 619     -50.326 149.430   8.385  1.00 46.63    -0.048 C 
HETATM    7  C7  STQ 2 619     -49.223 149.199   9.314  1.00 46.63     0.009 C 
HETATM    8  C8  STQ 2 619     -48.911 147.901   9.235  1.00 46.63     0.007 C 
HETATM    9  C9  STQ 2 619     -47.735 147.323   9.930  1.00 46.63    -0.062 C 
HETATM   10  C10 STQ 2 619     -47.356 146.078   9.586  1.00 46.63     0.007 C 
HETATM   11  C11 STQ 2 619     -46.179 145.401  10.133  1.00 46.63     0.001 C 
HETATM   12  C12 STQ 2 619     -45.832 144.202   9.678  1.00 46.63     0.007 C 
HETATM   13  C13 STQ 2 619     -44.631 143.503  10.179  1.00 46.63    -0.062 C 
HETATM   14  C14 STQ 2 619     -44.322 142.341   9.579  1.00 46.63     0.007 C 
HETATM   15  C15 STQ 2 619     -43.177 141.496   9.906  1.00 46.63     0.001 C 
HETATM   16  C16 STQ 2 619     -50.571 151.350   6.917  1.00 46.63     0.020 C 
HETATM   17  C17 STQ 2 619     -48.474 150.013   6.885  1.00 46.63     0.020 C 
HETATM   18  C18 STQ 2 619     -51.935 148.298   9.940  1.00 46.63     0.044 C 
HETATM   19  C19 STQ 2 619     -46.988 148.137  10.951  1.00 46.63     0.048 C 
HETATM   20  C20 STQ 2 619     -43.829 144.102  11.299  1.00 46.63     0.048 C 
HETATM   21  O3  STQ 2 619     -52.484 147.779   5.226  1.00 46.63    -0.395 OA
ATOM     22  H3  STQ 2 619     -53.146 147.155   5.500  1.00  0.00     0.210 HD
HETATM   23  C21 STQ 2 619     -34.507 132.444   8.807  1.00 46.63    -0.035 C 
HETATM   24  C22 STQ 2 619     -33.200 132.060   9.464  1.00 46.63     0.045 C 
HETATM   25  C23 STQ 2 619     -33.284 130.694  10.113  1.00 46.63     0.142 C 
HETATM   26  C24 STQ 2 619     -34.608 130.452  10.806  1.00 46.63     0.007 C 
HETATM   27  C25 STQ 2 619     -35.656 131.281  10.703  1.00 46.63    -0.077 C 
HETATM   28  C26 STQ 2 619     -35.598 132.523   9.866  1.00 46.63     0.044 C 
HETATM   29  C27 STQ 2 619     -36.893 132.827   9.155  1.00 46.63    -0.016 C 
HETATM   30  C28 STQ 2 619     -37.498 133.964   9.457  1.00 46.63     0.003 C 
HETATM   31  C29 STQ 2 619     -38.735 134.402   8.801  1.00 46.63    -0.062 C 
HETATM   32  C30 STQ 2 619     -39.163 135.611   9.183  1.00 46.63     0.007 C 
HETATM   33  C31 STQ 2 619     -40.343 136.290   8.675  1.00 46.63     0.001 C 
HETATM   34  C32 STQ 2 619     -40.588 137.488   9.194  1.00 46.63     0.007 C 
HETATM   35  C33 STQ 2 619     -41.744 138.307   8.803  1.00 46.63    -0.062 C 
HETATM   36  C34 STQ 2 619     -41.919 139.469   9.458  1.00 46.63     0.007 C 
HETATM   37  C35 STQ 2 619     -43.028 140.383   9.201  1.00 46.63     0.001 C 
HETATM   38  C36 STQ 2 619     -34.846 131.437   7.716  1.00 46.63     0.016 C 
HETATM   39  C37 STQ 2 619     -34.334 133.808   8.156  1.00 46.63     0.016 C 
HETATM   40  C38 STQ 2 619     -36.891 130.970  11.491  1.00 46.63     0.044 C 
HETATM   41  C39 STQ 2 619     -39.391 133.550   7.757  1.00 46.63     0.048 C 
HETATM   42  C40 STQ 2 619     -42.643 137.794   7.715  1.00 46.63     0.048 C 
HETATM   43  O23 STQ 2 619     -32.243 130.631  11.087  1.00 46.63    -0.392 OA
ATOM     44  H23 STQ 2 619     -31.412 130.782  10.652  1.00  0.00     0.210 HD
ENDROOT
TORSDOF 12
BEGIN_RES PHE A  61
REMARK  2 active torsions:
REMARK  status: ('A' for Active; 'I' for Inactive)
REMARK    1  A    between atoms: CA   and  CB  
REMARK    2  A    between atoms: CB   and  CG  
ROOT
ATOM      1  CA  PHE A  61     -36.237 128.293  12.768  1.00 39.40     0.164 C 
ENDROOT
BRANCH   1   2
ATOM      2  CB  PHE A  61     -36.813 128.951  11.509  1.00 39.41     0.058 C 
BRANCH   2   3
ATOM      3  CG  PHE A  61     -36.590 128.168  10.238  1.00 39.01    -0.020 A 
ATOM      4  CD2 PHE A  61     -35.362 127.582   9.969  1.00 40.32    -0.004 A 
ATOM      5  CE2 PHE A  61     -35.157 126.864   8.797  1.00 40.20    -0.000 A 
ATOM      6  CZ  PHE A  61     -36.177 126.721   7.884  1.00 40.34    -0.000 A 
ATOM      7  CE1 PHE A  61     -37.403 127.295   8.137  1.00 41.51    -0.000 A 
ATOM      8  CD1 PHE A  61     -37.606 128.018   9.305  1.00 39.94    -0.004 A 
ENDBRANCH   2   3
ENDBRANCH   1   2
END_RES PHE A  61
BEGIN_RES VAL A 134
REMARK  1 active torsions:
REMARK  status: ('A' for Active; 'I' for Inactive)
REMARK    3  A    between atoms: CA   and  CB  
ROOT
ATOM      9  CA  VAL A 134     -29.766 132.051   9.815  1.00 40.75     0.159 C 
ENDROOT
BRANCH   9  10
ATOM     10  CB  VAL A 134     -30.864 132.765   9.009  1.00 40.76     0.029 C 
ATOM     11  CG1 VAL A 134     -30.492 134.220   8.764  1.00 41.76     0.002 C 
ATOM     12  CG2 VAL A 134     -31.150 132.052   7.696  1.00 40.56     0.002 C 
ENDBRANCH   9  10
END_RES VAL A 134
BEGIN_RES TYR A 338
REMARK  3 active torsions:
REMARK  status: ('A' for Active; 'I' for Inactive)
REMARK    4  A    between atoms: CA   and  CB  
REMARK    5  A    between atoms: CB   and  CG  
REMARK    6  A    between atoms: CZ   and  OH  
ROOT
ATOM     13  CA  TYR A 338     -41.631 124.950   6.058  1.00 38.23     0.164 C 
ENDROOT
BRANCH  13  14
ATOM     14  CB  TYR A 338     -41.621 126.456   6.339  1.00 39.15     0.058 C 
BRANCH  14  15
ATOM     15  CG  TYR A 338     -40.383 127.199   5.892  1.00 39.03    -0.020 A 
ATOM     16  CD2 TYR A 338     -40.207 128.531   6.224  1.00 40.65    -0.002 A 
ATOM     17  CE2 TYR A 338     -39.091 129.247   5.818  1.00 40.91     0.024 A 
ATOM     18  CZ  TYR A 338     -38.117 128.628   5.058  1.00 42.33     0.089 A 
ATOM     19  CE1 TYR A 338     -38.268 127.295   4.717  1.00 40.63     0.024 A 
ATOM     20  CD1 TYR A 338     -39.398 126.600   5.122  1.00 39.27    -0.002 A 
BRANCH  18  21
ATOM     21  OH  TYR A 338     -37.011 129.323   4.656  1.00 43.36    -0.359 OA
ATOM     22  HH  TYR A 338     -37.093 130.214   4.337  1.00  0.00     0.217 HD
ENDBRANCH  18  21
ENDBRANCH  14  15
ENDBRANCH  13  14
END_RES TYR A 338
ENDMDL
