MODEL 1
REMARK VINA RESULT:    -7.219      0.000      0.000
REMARK INTER + INTRA:         -10.166
REMARK INTER:                  -7.219
REMARK INTRA:                  -2.947
REMARK UNBOUND:                -2.947
REMARK  0 active torsions:
REMARK  status: ('A' for Active; 'I' for Inactive)
REMARK       I    between atoms: C3_3  and  O3_21 
REMARK       I    between atoms: C6_6  and  C7_7 
REMARK       I    between atoms: C8_8  and  C9_9 
REMARK       I    between atoms: C10_10  and  C11_11 
REMARK       I    between atoms: C12_12  and  C13_13 
REMARK       I    between atoms: C14_14  and  C15_15 
REMARK       I    between atoms: C23_25  and  O23_43 
REMARK       I    between atoms: C26_28  and  C27_29 
REMARK       I    between atoms: C28_30  and  C29_31 
REMARK       I    between atoms: C30_32  and  C31_33 
REMARK       I    between atoms: C32_34  and  C33_35 
REMARK       I    between atoms: C34_36  and  C35_37 
ROOT
HETATM    1  C1  STQ H7620     -34.505 126.916   6.115  1.00 19.07    -0.018 C 
HETATM    2  C2  STQ H7620     -33.857 126.105   4.977  1.00 18.69     0.045 C 
HETATM    3  C3  STQ H7620     -32.790 126.803   4.140  1.00 19.88     0.123 C 
HETATM    4  C4  STQ H7620     -31.900 127.765   4.946  1.00 19.59     0.066 C 
HETATM    5  C5  STQ H7620     -32.528 128.513   6.081  1.00 18.61    -0.074 C 
HETATM    6  C6  STQ H7620     -33.731 128.152   6.650  1.00 18.29    -0.048 C 
HETATM    7  C7  STQ H7620     -34.315 128.917   7.772  1.00 19.20     0.009 C 
HETATM    8  C8  STQ H7620     -34.970 130.105   7.725  1.00 18.47     0.007 C 
HETATM    9  C9  STQ H7620     -35.400 130.945   8.849  1.00 18.73    -0.062 C 
HETATM   10  C10 STQ H7620     -36.131 132.047   8.569  1.00 19.74     0.007 C 
HETATM   11  C11 STQ H7620     -36.667 133.009   9.516  1.00 21.97     0.001 C 
HETATM   12  C12 STQ H7620     -37.531 133.970   9.107  1.00 21.62     0.007 C 
HETATM   13  C13 STQ H7620     -38.216 135.009   9.898  1.00 22.34    -0.062 C 
HETATM   14  C14 STQ H7620     -39.117 135.786   9.257  1.00 21.69     0.007 C 
HETATM   15  C15 STQ H7620     -39.965 136.804   9.812  1.00 22.95     0.001 C 
HETATM   16  C16 STQ H7620     -34.639 125.854   7.222  1.00 17.04     0.020 C 
HETATM   17  C17 STQ H7620     -35.917 127.332   5.661  1.00 20.18     0.020 C 
HETATM   18  C18 STQ H7620     -31.617 129.633   6.425  1.00 19.93     0.044 C 
HETATM   19  C19 STQ H7620     -35.034 130.495  10.240  1.00 16.18     0.048 C 
HETATM   20  C20 STQ H7620     -37.916 135.086  11.366  1.00 18.83     0.048 C 
HETATM   21  O3  STQ H7620     -31.995 125.850   3.451  1.00 19.51    -0.395 OA
ATOM     22  H3  STQ H7620     -31.331 126.285   2.929  1.00  0.00     0.210 HD
HETATM   23  C21 STQ H7620     -49.805 144.656  12.522  1.00 35.69    -0.035 C 
HETATM   24  C22 STQ H7620     -50.679 145.601  13.372  1.00 35.91     0.045 C 
HETATM   25  C23 STQ H7620     -50.558 147.088  13.029  1.00 36.14     0.142 C 
HETATM   26  C24 STQ H7620     -49.115 147.489  12.736  1.00 35.88     0.007 C 
HETATM   27  C25 STQ H7620     -48.134 146.613  12.443  1.00 34.77    -0.077 C 
HETATM   28  C26 STQ H7620     -48.316 145.102  12.367  1.00 34.95     0.044 C 
HETATM   29  C27 STQ H7620     -47.570 144.547  11.158  1.00 35.34    -0.016 C 
HETATM   30  C28 STQ H7620     -46.628 143.568  11.228  1.00 35.07     0.003 C 
HETATM   31  C29 STQ H7620     -46.014 142.815  10.117  1.00 34.32    -0.062 C 
HETATM   32  C30 STQ H7620     -45.086 141.879  10.415  1.00 32.68     0.007 C 
HETATM   33  C31 STQ H7620     -44.401 141.020   9.483  1.00 31.36     0.001 C 
HETATM   34  C32 STQ H7620     -43.448 140.141   9.857  1.00 27.71     0.007 C 
HETATM   35  C33 STQ H7620     -42.669 139.215   9.018  1.00 25.49    -0.062 C 
HETATM   36  C34 STQ H7620     -41.737 138.452   9.629  1.00 25.45     0.007 C 
HETATM   37  C35 STQ H7620     -40.845 137.472   9.047  1.00 24.93     0.001 C 
HETATM   38  C36 STQ H7620     -50.476 144.507  11.131  1.00 35.23     0.016 C 
HETATM   39  C37 STQ H7620     -49.865 143.285  13.204  1.00 35.43     0.016 C 
HETATM   40  C38 STQ H7620     -46.824 147.288  12.232  1.00 33.40     0.044 C 
HETATM   41  C39 STQ H7620     -46.454 143.144   8.719  1.00 34.07     0.048 C 
HETATM   42  C40 STQ H7620     -42.960 139.199   7.547  1.00 21.83     0.048 C 
HETATM   43  O23 STQ H7620     -51.094 147.882  14.079  1.00 36.89    -0.392 OA
ATOM     44  H23 STQ H7620     -51.018 148.805  13.866  1.00  0.00     0.210 HD
ENDROOT
TORSDOF 12
BEGIN_RES PHE A  61
REMARK  2 active torsions:
REMARK  status: ('A' for Active; 'I' for Inactive)
REMARK    1  A    between atoms: CA   and  CB  
REMARK    2  A    between atoms: CB   and  CG  
ROOT
ATOM      1  CA  PHE A  61     -36.237 128.293  12.768  1.00 39.40     0.164 C 
ENDROOT
BRANCH   1   2
ATOM      2  CB  PHE A  61     -36.813 128.951  11.509  1.00 39.41     0.058 C 
BRANCH   2   3
ATOM      3  CG  PHE A  61     -37.026 128.004  10.352  1.00 39.01    -0.020 A 
ATOM      4  CD2 PHE A  61     -36.277 126.844  10.234  1.00 40.32    -0.004 A 
ATOM      5  CE2 PHE A  61     -36.472 125.976   9.168  1.00 40.20    -0.000 A 
ATOM      6  CZ  PHE A  61     -37.419 126.255   8.210  1.00 40.34    -0.000 A 
ATOM      7  CE1 PHE A  61     -38.174 127.403   8.313  1.00 41.51    -0.000 A 
ATOM      8  CD1 PHE A  61     -37.975 128.275   9.376  1.00 39.94    -0.004 A 
ENDBRANCH   2   3
ENDBRANCH   1   2
END_RES PHE A  61
BEGIN_RES VAL A 134
REMARK  1 active torsions:
REMARK  status: ('A' for Active; 'I' for Inactive)
REMARK    3  A    between atoms: CA   and  CB  
ROOT
ATOM      9  CA  VAL A 134     -29.766 132.051   9.815  1.00 40.75     0.159 C 
ENDROOT
BRANCH   9  10
ATOM     10  CB  VAL A 134     -30.864 132.765   9.009  1.00 40.76     0.029 C 
ATOM     11  CG1 VAL A 134     -30.929 132.221   7.589  1.00 41.76     0.002 C 
ATOM     12  CG2 VAL A 134     -32.219 132.659   9.691  1.00 40.56     0.002 C 
ENDBRANCH   9  10
END_RES VAL A 134
BEGIN_RES TYR A 338
REMARK  3 active torsions:
REMARK  status: ('A' for Active; 'I' for Inactive)
REMARK    4  A    between atoms: CA   and  CB  
REMARK    5  A    between atoms: CB   and  CG  
REMARK    6  A    between atoms: CZ   and  OH  
ROOT
ATOM     13  CA  TYR A 338     -41.631 124.950   6.058  1.00 38.23     0.164 C 
ENDROOT
BRANCH  13  14
ATOM     14  CB  TYR A 338     -41.621 126.456   6.339  1.00 39.15     0.058 C 
BRANCH  14  15
ATOM     15  CG  TYR A 338     -40.428 127.215   5.804  1.00 39.03    -0.020 A 
ATOM     16  CD2 TYR A 338     -40.244 128.549   6.128  1.00 40.65    -0.002 A 
ATOM     17  CE2 TYR A 338     -39.171 129.280   5.643  1.00 40.91     0.024 A 
ATOM     18  CZ  TYR A 338     -38.249 128.675   4.810  1.00 42.33     0.089 A 
ATOM     19  CE1 TYR A 338     -38.409 127.342   4.476  1.00 40.63     0.024 A 
ATOM     20  CD1 TYR A 338     -39.496 126.631   4.961  1.00 39.27    -0.002 A 
BRANCH  18  21
ATOM     21  OH  TYR A 338     -37.184 129.385   4.329  1.00 43.36    -0.359 OA
ATOM     22  HH  TYR A 338     -37.296 130.284   4.043  1.00  0.00     0.217 HD
ENDBRANCH  18  21
ENDBRANCH  14  15
ENDBRANCH  13  14
END_RES TYR A 338
ENDMDL
