MODEL 1
REMARK VINA RESULT:   -10.313      0.000      0.000
REMARK INTER + INTRA:         -12.921
REMARK INTER:                 -10.313
REMARK INTRA:                  -2.607
REMARK UNBOUND:                -2.607
REMARK  0 active torsions:
REMARK  status: ('A' for Active; 'I' for Inactive)
REMARK       I    between atoms: C3_3  and  O3_21 
REMARK       I    between atoms: C6_6  and  C7_7 
REMARK       I    between atoms: C8_8  and  C9_9 
REMARK       I    between atoms: C10_10  and  C11_11 
REMARK       I    between atoms: C12_12  and  C13_13 
REMARK       I    between atoms: C14_14  and  C15_15 
REMARK       I    between atoms: C23_25  and  O23_43 
REMARK       I    between atoms: C26_28  and  C27_29 
REMARK       I    between atoms: C28_30  and  C29_31 
REMARK       I    between atoms: C30_32  and  C31_33 
REMARK       I    between atoms: C32_34  and  C33_35 
REMARK       I    between atoms: C34_36  and  C35_37 
ROOT
HETATM    1  C1  STQ Z1620     -34.136 127.077   6.777  1.00 27.53    -0.018 C 
HETATM    2  C2  STQ Z1620     -33.592 126.782   5.381  1.00 27.53     0.045 C 
HETATM    3  C3  STQ Z1620     -32.862 127.980   4.805  1.00 27.53     0.123 C 
HETATM    4  C4  STQ Z1620     -31.687 128.225   5.723  1.00 27.53     0.066 C 
HETATM    5  C5  STQ Z1620     -32.289 128.772   6.986  1.00 27.53    -0.074 C 
HETATM    6  C6  STQ Z1620     -33.437 128.240   7.470  1.00 27.53    -0.048 C 
HETATM    7  C7  STQ Z1620     -34.166 128.899   8.573  1.00 27.53     0.009 C 
HETATM    8  C8  STQ Z1620     -34.321 130.219   8.431  1.00 27.53     0.007 C 
HETATM    9  C9  STQ Z1620     -35.196 130.983   9.347  1.00 27.53    -0.062 C 
HETATM   10  C10 STQ Z1620     -35.589 132.204   8.936  1.00 27.53     0.007 C 
HETATM   11  C11 STQ Z1620     -36.556 133.020   9.668  1.00 27.53     0.001 C 
HETATM   12  C12 STQ Z1620     -37.083 134.088   9.079  1.00 27.53     0.007 C 
HETATM   13  C13 STQ Z1620     -38.141 134.885   9.735  1.00 27.53    -0.062 C 
HETATM   14  C14 STQ Z1620     -38.783 135.785   8.965  1.00 27.53     0.007 C 
HETATM   15  C15 STQ Z1620     -39.886 136.633   9.416  1.00 27.53     0.001 C 
HETATM   16  C16 STQ Z1620     -33.883 125.850   7.652  1.00 27.53     0.020 C 
HETATM   17  C17 STQ Z1620     -35.640 127.307   6.655  1.00 27.53     0.020 C 
HETATM   18  C18 STQ Z1620     -31.465 129.823   7.692  1.00 27.53     0.044 C 
HETATM   19  C19 STQ Z1620     -35.633 130.364  10.651  1.00 27.53     0.048 C 
HETATM   20  C20 STQ Z1620     -38.469 134.628  11.182  1.00 27.53     0.048 C 
HETATM   21  O3  STQ Z1620     -32.410 127.739   3.471  1.00 27.53    -0.395 OA
ATOM     22  H3  STQ Z1620     -31.954 128.490   3.111  1.00  0.00     0.210 HD
HETATM   23  C21 STQ Z1620     -49.722 144.404   9.146  1.00 27.53    -0.035 C 
HETATM   24  C22 STQ Z1620     -50.748 144.999  10.090  1.00 27.53     0.045 C 
HETATM   25  C23 STQ Z1620     -50.734 146.522  10.047  1.00 27.53     0.142 C 
HETATM   26  C24 STQ Z1620     -49.330 147.088  10.005  1.00 27.53     0.007 C 
HETATM   27  C25 STQ Z1620     -48.234 146.338   9.798  1.00 27.53    -0.077 C 
HETATM   28  C26 STQ Z1620     -48.324 144.851   9.570  1.00 27.53     0.044 C 
HETATM   29  C27 STQ Z1620     -47.345 144.350   8.532  1.00 27.53    -0.016 C 
HETATM   30  C28 STQ Z1620     -46.548 143.350   8.888  1.00 27.53     0.003 C 
HETATM   31  C29 STQ Z1620     -45.564 142.736   7.980  1.00 27.53    -0.062 C 
HETATM   32  C30 STQ Z1620     -44.872 141.722   8.522  1.00 27.53     0.007 C 
HETATM   33  C31 STQ Z1620     -43.842 140.938   7.859  1.00 27.53     0.001 C 
HETATM   34  C32 STQ Z1620     -43.240 139.996   8.585  1.00 27.53     0.007 C 
HETATM   35  C33 STQ Z1620     -42.155 139.161   8.038  1.00 27.53    -0.062 C 
HETATM   36  C34 STQ Z1620     -41.554 138.307   8.893  1.00 27.53     0.007 C 
HETATM   37  C35 STQ Z1620     -40.445 137.431   8.517  1.00 27.53     0.001 C 
HETATM   38  C36 STQ Z1620     -50.037 144.804   7.707  1.00 27.53     0.016 C 
HETATM   39  C37 STQ Z1620     -49.805 142.883   9.248  1.00 27.53     0.016 C 
HETATM   40  C38 STQ Z1620     -46.894 147.020   9.854  1.00 27.53     0.044 C 
HETATM   41  C39 STQ Z1620     -45.414 143.219   6.564  1.00 27.53     0.048 C 
HETATM   42  C40 STQ Z1620     -41.778 139.328   6.588  1.00 27.53     0.048 C 
HETATM   43  O23 STQ Z1620     -51.389 147.031  11.214  1.00 27.53    -0.392 OA
ATOM     44  H23 STQ Z1620     -52.269 146.676  11.240  1.00  0.00     0.210 HD
ENDROOT
TORSDOF 12
BEGIN_RES PHE A  61
REMARK  2 active torsions:
REMARK  status: ('A' for Active; 'I' for Inactive)
REMARK    1  A    between atoms: CA   and  CB  
REMARK    2  A    between atoms: CB   and  CG  
ROOT
ATOM      1  CA  PHE A  61     -36.237 128.293  12.768  1.00 39.40     0.164 C 
ENDROOT
BRANCH   1   2
ATOM      2  CB  PHE A  61     -36.813 128.951  11.509  1.00 39.41     0.058 C 
BRANCH   2   3
ATOM      3  CG  PHE A  61     -37.082 127.994  10.372  1.00 39.01    -0.020 A 
ATOM      4  CD2 PHE A  61     -36.369 126.812  10.254  1.00 40.32    -0.004 A 
ATOM      5  CE2 PHE A  61     -36.615 125.934   9.205  1.00 40.20    -0.000 A 
ATOM      6  CZ  PHE A  61     -37.578 126.226   8.267  1.00 40.34    -0.000 A 
ATOM      7  CE1 PHE A  61     -38.297 127.396   8.372  1.00 41.51    -0.000 A 
ATOM      8  CD1 PHE A  61     -38.047 128.277   9.416  1.00 39.94    -0.004 A 
ENDBRANCH   2   3
ENDBRANCH   1   2
END_RES PHE A  61
BEGIN_RES VAL A 134
REMARK  1 active torsions:
REMARK  status: ('A' for Active; 'I' for Inactive)
REMARK    3  A    between atoms: CA   and  CB  
ROOT
ATOM      9  CA  VAL A 134     -29.766 132.051   9.815  1.00 40.75     0.159 C 
ENDROOT
BRANCH   9  10
ATOM     10  CB  VAL A 134     -30.864 132.765   9.009  1.00 40.76     0.029 C 
ATOM     11  CG1 VAL A 134     -31.013 132.139   7.630  1.00 41.76     0.002 C 
ATOM     12  CG2 VAL A 134     -32.193 132.765   9.749  1.00 40.56     0.002 C 
ENDBRANCH   9  10
END_RES VAL A 134
BEGIN_RES TYR A 338
REMARK  3 active torsions:
REMARK  status: ('A' for Active; 'I' for Inactive)
REMARK    4  A    between atoms: CA   and  CB  
REMARK    5  A    between atoms: CB   and  CG  
REMARK    6  A    between atoms: CZ   and  OH  
ROOT
ATOM     13  CA  TYR A 338     -41.631 124.950   6.058  1.00 38.23     0.164 C 
ENDROOT
BRANCH  13  14
ATOM     14  CB  TYR A 338     -41.621 126.456   6.339  1.00 39.15     0.058 C 
BRANCH  14  15
ATOM     15  CG  TYR A 338     -40.414 127.210   5.830  1.00 39.03    -0.020 A 
ATOM     16  CD2 TYR A 338     -40.237 128.546   6.149  1.00 40.65    -0.002 A 
ATOM     17  CE2 TYR A 338     -39.151 129.273   5.687  1.00 40.91     0.024 A 
ATOM     18  CZ  TYR A 338     -38.208 128.661   4.882  1.00 42.33     0.089 A 
ATOM     19  CE1 TYR A 338     -38.361 127.325   4.554  1.00 40.63     0.024 A 
ATOM     20  CD1 TYR A 338     -39.461 126.620   5.015  1.00 39.27    -0.002 A 
BRANCH  18  21
ATOM     21  OH  TYR A 338     -37.130 129.366   4.424  1.00 43.36    -0.359 OA
ATOM     22  HH  TYR A 338     -37.166 130.314   4.366  1.00  0.00     0.217 HD
ENDBRANCH  18  21
ENDBRANCH  14  15
ENDBRANCH  13  14
END_RES TYR A 338
ENDMDL
MODEL 2
REMARK VINA RESULT:    -8.042      1.654     16.572
REMARK INTER + INTRA:         -10.649
REMARK INTER:                  -9.777
REMARK INTRA:                  -0.872
REMARK UNBOUND:                -2.607
REMARK  0 active torsions:
REMARK  status: ('A' for Active; 'I' for Inactive)
REMARK       I    between atoms: C3_3  and  O3_21 
REMARK       I    between atoms: C6_6  and  C7_7 
REMARK       I    between atoms: C8_8  and  C9_9 
REMARK       I    between atoms: C10_10  and  C11_11 
REMARK       I    between atoms: C12_12  and  C13_13 
REMARK       I    between atoms: C14_14  and  C15_15 
REMARK       I    between atoms: C23_25  and  O23_43 
REMARK       I    between atoms: C26_28  and  C27_29 
REMARK       I    between atoms: C28_30  and  C29_31 
REMARK       I    between atoms: C30_32  and  C31_33 
REMARK       I    between atoms: C32_34  and  C33_35 
REMARK       I    between atoms: C34_36  and  C35_37 
ROOT
HETATM    1  C1  STQ Z1620     -50.922 144.192  11.930  1.00 27.53    -0.018 C 
HETATM    2  C2  STQ Z1620     -51.479 144.219  13.352  1.00 27.53     0.045 C 
HETATM    3  C3  STQ Z1620     -50.397 144.536  14.366  1.00 27.53     0.123 C 
HETATM    4  C4  STQ Z1620     -49.911 145.926  14.027  1.00 27.53     0.066 C 
HETATM    5  C5  STQ Z1620     -49.138 145.765  12.749  1.00 27.53    -0.074 C 
HETATM    6  C6  STQ Z1620     -49.608 144.949  11.776  1.00 27.53    -0.048 C 
HETATM    7  C7  STQ Z1620     -48.765 144.599  10.614  1.00 27.53     0.009 C 
HETATM    8  C8  STQ Z1620     -47.513 144.243  10.918  1.00 27.53     0.007 C 
HETATM    9  C9  STQ Z1620     -46.614 143.678   9.889  1.00 27.53    -0.062 C 
HETATM   10  C10 STQ Z1620     -45.526 143.015  10.328  1.00 27.53     0.007 C 
HETATM   11  C11 STQ Z1620     -44.619 142.292   9.439  1.00 27.53     0.001 C 
HETATM   12  C12 STQ Z1620     -43.724 141.460   9.962  1.00 27.53     0.007 C 
HETATM   13  C13 STQ Z1620     -42.855 140.626   9.103  1.00 27.53    -0.062 C 
HETATM   14  C14 STQ Z1620     -42.169 139.643   9.715  1.00 27.53     0.007 C 
HETATM   15  C15 STQ Z1620     -41.296 138.687   9.035  1.00 27.53     0.001 C 
HETATM   16  C16 STQ Z1620     -51.924 144.895  11.016  1.00 27.53     0.020 C 
HETATM   17  C17 STQ Z1620     -50.790 142.732  11.506  1.00 27.53     0.020 C 
HETATM   18  C18 STQ Z1620     -47.926 146.656  12.612  1.00 27.53     0.044 C 
HETATM   19  C19 STQ Z1620     -46.964 143.827   8.430  1.00 27.53     0.048 C 
HETATM   20  C20 STQ Z1620     -42.817 140.884   7.620  1.00 27.53     0.048 C 
HETATM   21  O3  STQ Z1620     -50.893 144.494  15.706  1.00 27.53    -0.395 OA
ATOM     22  H3  STQ Z1620     -50.215 144.692  16.340  1.00  0.00     0.210 HD
HETATM   23  C21 STQ Z1620     -34.211 128.565   6.896  1.00 27.53    -0.035 C 
HETATM   24  C22 STQ Z1620     -33.478 127.890   5.753  1.00 27.53     0.045 C 
HETATM   25  C23 STQ Z1620     -32.000 127.703   6.068  1.00 27.53     0.142 C 
HETATM   26  C24 STQ Z1620     -31.392 128.914   6.744  1.00 27.53     0.007 C 
HETATM   27  C25 STQ Z1620     -32.118 129.941   7.218  1.00 27.53    -0.077 C 
HETATM   28  C26 STQ Z1620     -33.622 129.956   7.126  1.00 27.53     0.044 C 
HETATM   29  C27 STQ Z1620     -34.286 130.540   8.353  1.00 27.53    -0.016 C 
HETATM   30  C28 STQ Z1620     -35.151 131.528   8.157  1.00 27.53     0.003 C 
HETATM   31  C29 STQ Z1620     -35.897 132.178   9.248  1.00 27.53    -0.062 C 
HETATM   32  C30 STQ Z1620     -36.742 133.138   8.841  1.00 27.53     0.007 C 
HETATM   33  C31 STQ Z1620     -37.600 133.942   9.697  1.00 27.53     0.001 C 
HETATM   34  C32 STQ Z1620     -38.340 134.878   9.102  1.00 27.53     0.007 C 
HETATM   35  C33 STQ Z1620     -39.221 135.780   9.865  1.00 27.53    -0.062 C 
HETATM   36  C34 STQ Z1620     -39.847 136.752   9.168  1.00 27.53     0.007 C 
HETATM   37  C35 STQ Z1620     -40.731 137.744   9.778  1.00 27.53     0.001 C 
HETATM   38  C36 STQ Z1620     -34.138 127.699   8.151  1.00 27.53     0.016 C 
HETATM   39  C37 STQ Z1620     -35.679 128.710   6.501  1.00 27.53     0.016 C 
HETATM   40  C38 STQ Z1620     -31.379 131.114   7.802  1.00 27.53     0.044 C 
HETATM   41  C39 STQ Z1620     -35.717 131.739  10.675  1.00 27.53     0.048 C 
HETATM   42  C40 STQ Z1620     -39.346 135.578  11.353  1.00 27.53     0.048 C 
HETATM   43  O23 STQ Z1620     -31.286 127.463   4.850  1.00 27.53    -0.392 OA
ATOM     44  H23 STQ Z1620     -31.668 126.703   4.426  1.00  0.00     0.210 HD
ENDROOT
TORSDOF 12
BEGIN_RES PHE A  61
REMARK  2 active torsions:
REMARK  status: ('A' for Active; 'I' for Inactive)
REMARK    1  A    between atoms: CA   and  CB  
REMARK    2  A    between atoms: CB   and  CG  
ROOT
ATOM      1  CA  PHE A  61     -36.237 128.293  12.768  1.00 39.40     0.164 C 
ENDROOT
BRANCH   1   2
ATOM      2  CB  PHE A  61     -36.813 128.951  11.509  1.00 39.41     0.058 C 
BRANCH   2   3
ATOM      3  CG  PHE A  61     -36.981 128.014  10.336  1.00 39.01    -0.020 A 
ATOM      4  CD2 PHE A  61     -36.169 126.900  10.194  1.00 40.32    -0.004 A 
ATOM      5  CE2 PHE A  61     -36.322 126.041   9.113  1.00 40.20    -0.000 A 
ATOM      6  CZ  PHE A  61     -37.290 126.284   8.165  1.00 40.34    -0.000 A 
ATOM      7  CE1 PHE A  61     -38.106 127.386   8.293  1.00 41.51    -0.000 A 
ATOM      8  CD1 PHE A  61     -37.949 128.249   9.370  1.00 39.94    -0.004 A 
ENDBRANCH   2   3
ENDBRANCH   1   2
END_RES PHE A  61
BEGIN_RES VAL A 134
REMARK  1 active torsions:
REMARK  status: ('A' for Active; 'I' for Inactive)
REMARK    3  A    between atoms: CA   and  CB  
ROOT
ATOM      9  CA  VAL A 134     -29.766 132.051   9.815  1.00 40.75     0.159 C 
ENDROOT
BRANCH   9  10
ATOM     10  CB  VAL A 134     -30.864 132.765   9.009  1.00 40.76     0.029 C 
ATOM     11  CG1 VAL A 134     -32.107 132.975   9.861  1.00 41.76     0.002 C 
ATOM     12  CG2 VAL A 134     -30.372 134.086   8.437  1.00 40.56     0.002 C 
ENDBRANCH   9  10
END_RES VAL A 134
BEGIN_RES TYR A 338
REMARK  3 active torsions:
REMARK  status: ('A' for Active; 'I' for Inactive)
REMARK    4  A    between atoms: CA   and  CB  
REMARK    5  A    between atoms: CB   and  CG  
REMARK    6  A    between atoms: CZ   and  OH  
ROOT
ATOM     13  CA  TYR A 338     -41.631 124.950   6.058  1.00 38.23     0.164 C 
ENDROOT
BRANCH  13  14
ATOM     14  CB  TYR A 338     -41.621 126.456   6.339  1.00 39.15     0.058 C 
BRANCH  14  15
ATOM     15  CG  TYR A 338     -40.424 127.214   5.812  1.00 39.03    -0.020 A 
ATOM     16  CD2 TYR A 338     -40.271 128.562   6.088  1.00 40.65    -0.002 A 
ATOM     17  CE2 TYR A 338     -39.194 129.291   5.609  1.00 40.91     0.024 A 
ATOM     18  CZ  TYR A 338     -38.237 128.670   4.830  1.00 42.33     0.089 A 
ATOM     19  CE1 TYR A 338     -38.365 127.322   4.544  1.00 40.63     0.024 A 
ATOM     20  CD1 TYR A 338     -39.456 126.613   5.022  1.00 39.27    -0.002 A 
BRANCH  18  21
ATOM     21  OH  TYR A 338     -37.168 129.378   4.355  1.00 43.36    -0.359 OA
ATOM     22  HH  TYR A 338     -37.016 130.270   4.645  1.00  0.00     0.217 HD
ENDBRANCH  18  21
ENDBRANCH  14  15
ENDBRANCH  13  14
END_RES TYR A 338
ENDMDL
