MODEL 1
REMARK VINA RESULT:    -9.642      0.000      0.000
REMARK INTER + INTRA:         -12.856
REMARK INTER:                  -9.642
REMARK INTRA:                  -3.214
REMARK UNBOUND:                -3.214
REMARK  0 active torsions:
REMARK  status: ('A' for Active; 'I' for Inactive)
REMARK       I    between atoms: C3_3  and  O3_21 
REMARK       I    between atoms: C6_6  and  C7_7 
REMARK       I    between atoms: C8_8  and  C9_9 
REMARK       I    between atoms: C10_10  and  C11_11 
REMARK       I    between atoms: C12_12  and  C13_13 
REMARK       I    between atoms: C14_14  and  C15_15 
REMARK       I    between atoms: C23_25  and  O23_43 
REMARK       I    between atoms: C26_28  and  C27_29 
REMARK       I    between atoms: C28_30  and  C29_31 
REMARK       I    between atoms: C30_32  and  C31_33 
REMARK       I    between atoms: C32_34  and  C33_35 
REMARK       I    between atoms: C34_36  and  C35_37 
ROOT
HETATM    1  C1  STQ 6 621     -34.352 127.571   6.330  1.00 27.76    -0.018 C 
HETATM    2  C2  STQ 6 621     -33.733 127.160   4.997  1.00 27.76     0.045 C 
HETATM    3  C3  STQ 6 621     -32.362 127.701   4.611  1.00 27.76     0.123 C 
HETATM    4  C4  STQ 6 621     -31.523 128.060   5.817  1.00 27.76     0.066 C 
HETATM    5  C5  STQ 6 621     -32.323 128.957   6.720  1.00 27.76    -0.074 C 
HETATM    6  C6  STQ 6 621     -33.585 128.664   7.045  1.00 27.76    -0.048 C 
HETATM    7  C7  STQ 6 621     -34.239 129.412   8.147  1.00 27.76     0.009 C 
HETATM    8  C8  STQ 6 621     -34.981 130.506   7.942  1.00 27.76     0.007 C 
HETATM    9  C9  STQ 6 621     -35.608 131.231   9.061  1.00 27.76    -0.062 C 
HETATM   10  C10 STQ 6 621     -36.375 132.302   8.783  1.00 27.76     0.007 C 
HETATM   11  C11 STQ 6 621     -37.061 133.159   9.750  1.00 27.76     0.001 C 
HETATM   12  C12 STQ 6 621     -37.622 134.259   9.256  1.00 27.76     0.007 C 
HETATM   13  C13 STQ 6 621     -38.388 135.286   9.986  1.00 27.76    -0.062 C 
HETATM   14  C14 STQ 6 621     -39.131 136.117   9.242  1.00 27.76     0.007 C 
HETATM   15  C15 STQ 6 621     -39.985 137.172   9.774  1.00 27.76     0.001 C 
HETATM   16  C16 STQ 6 621     -34.469 126.310   7.182  1.00 27.76     0.020 C 
HETATM   17  C17 STQ 6 621     -35.751 128.104   6.067  1.00 27.76     0.020 C 
HETATM   18  C18 STQ 6 621     -31.479 129.850   7.583  1.00 27.76     0.044 C 
HETATM   19  C19 STQ 6 621     -35.365 130.756  10.458  1.00 27.76     0.048 C 
HETATM   20  C20 STQ 6 621     -38.352 135.403  11.476  1.00 27.76     0.048 C 
HETATM   21  O3  STQ 6 621     -31.661 126.715   3.847  1.00 27.76    -0.395 OA
ATOM     22  H3  STQ 6 621     -30.806 127.052   3.607  1.00  0.00     0.210 HD
HETATM   23  C21 STQ 6 621     -49.856 145.416   8.872  1.00 27.76    -0.035 C 
HETATM   24  C22 STQ 6 621     -50.796 146.193   9.790  1.00 27.76     0.045 C 
HETATM   25  C23 STQ 6 621     -50.347 147.610  10.132  1.00 27.76     0.142 C 
HETATM   26  C24 STQ 6 621     -48.848 147.732  10.287  1.00 27.76     0.007 C 
HETATM   27  C25 STQ 6 621     -48.003 146.899   9.672  1.00 27.76    -0.077 C 
HETATM   28  C26 STQ 6 621     -48.413 145.482   9.380  1.00 27.76     0.044 C 
HETATM   29  C27 STQ 6 621     -47.478 144.810   8.398  1.00 27.76    -0.016 C 
HETATM   30  C28 STQ 6 621     -46.708 143.838   8.872  1.00 27.76     0.003 C 
HETATM   31  C29 STQ 6 621     -45.763 143.078   8.040  1.00 27.76    -0.062 C 
HETATM   32  C30 STQ 6 621     -45.201 142.016   8.623  1.00 27.76     0.007 C 
HETATM   33  C31 STQ 6 621     -44.256 141.104   7.994  1.00 27.76     0.001 C 
HETATM   34  C32 STQ 6 621     -43.603 140.314   8.836  1.00 27.76     0.007 C 
HETATM   35  C33 STQ 6 621     -42.630 139.298   8.419  1.00 27.76    -0.062 C 
HETATM   36  C34 STQ 6 621     -41.875 138.681   9.342  1.00 27.76     0.007 C 
HETATM   37  C35 STQ 6 621     -40.921 137.645   8.952  1.00 27.76     0.001 C 
HETATM   38  C36 STQ 6 621     -49.964 145.918   7.435  1.00 27.76     0.016 C 
HETATM   39  C37 STQ 6 621     -50.315 143.965   8.888  1.00 27.76     0.016 C 
HETATM   40  C38 STQ 6 621     -46.647 147.408   9.284  1.00 27.76     0.044 C 
HETATM   41  C39 STQ 6 621     -45.461 143.472   6.626  1.00 27.76     0.048 C 
HETATM   42  C40 STQ 6 621     -42.527 138.949   6.972  1.00 27.76     0.048 C 
HETATM   43  O23 STQ 6 621     -50.966 148.012  11.359  1.00 27.76    -0.392 OA
ATOM     44  H23 STQ 6 621     -50.687 148.894  11.571  1.00  0.00     0.210 HD
ENDROOT
TORSDOF 12
BEGIN_RES PHE A  61
REMARK  2 active torsions:
REMARK  status: ('A' for Active; 'I' for Inactive)
REMARK    1  A    between atoms: CA   and  CB  
REMARK    2  A    between atoms: CB   and  CG  
ROOT
ATOM      1  CA  PHE A  61     -36.237 128.293  12.768  1.00 39.40     0.164 C 
ENDROOT
BRANCH   1   2
ATOM      2  CB  PHE A  61     -36.813 128.951  11.509  1.00 39.41     0.058 C 
BRANCH   2   3
ATOM      3  CG  PHE A  61     -37.002 128.010  10.344  1.00 39.01    -0.020 A 
ATOM      4  CD2 PHE A  61     -36.201 126.888  10.198  1.00 40.32    -0.004 A 
ATOM      5  CE2 PHE A  61     -36.374 126.024   9.123  1.00 40.20    -0.000 A 
ATOM      6  CZ  PHE A  61     -37.351 126.270   8.186  1.00 40.34    -0.000 A 
ATOM      7  CE1 PHE A  61     -38.157 127.379   8.318  1.00 41.51    -0.000 A 
ATOM      8  CD1 PHE A  61     -37.980 128.246   9.388  1.00 39.94    -0.004 A 
ENDBRANCH   2   3
ENDBRANCH   1   2
END_RES PHE A  61
BEGIN_RES VAL A 134
REMARK  1 active torsions:
REMARK  status: ('A' for Active; 'I' for Inactive)
REMARK    3  A    between atoms: CA   and  CB  
ROOT
ATOM      9  CA  VAL A 134     -29.766 132.051   9.815  1.00 40.75     0.159 C 
ENDROOT
BRANCH   9  10
ATOM     10  CB  VAL A 134     -30.864 132.765   9.009  1.00 40.76     0.029 C 
ATOM     11  CG1 VAL A 134     -30.861 132.295   7.562  1.00 41.76     0.002 C 
ATOM     12  CG2 VAL A 134     -32.236 132.573   9.637  1.00 40.56     0.002 C 
ENDBRANCH   9  10
END_RES VAL A 134
BEGIN_RES TYR A 338
REMARK  3 active torsions:
REMARK  status: ('A' for Active; 'I' for Inactive)
REMARK    4  A    between atoms: CA   and  CB  
REMARK    5  A    between atoms: CB   and  CG  
REMARK    6  A    between atoms: CZ   and  OH  
ROOT
ATOM     13  CA  TYR A 338     -41.631 124.950   6.058  1.00 38.23     0.164 C 
ENDROOT
BRANCH  13  14
ATOM     14  CB  TYR A 338     -41.621 126.456   6.339  1.00 39.15     0.058 C 
BRANCH  14  15
ATOM     15  CG  TYR A 338     -40.428 127.215   5.804  1.00 39.03    -0.020 A 
ATOM     16  CD2 TYR A 338     -40.262 128.557   6.101  1.00 40.65    -0.002 A 
ATOM     17  CE2 TYR A 338     -39.189 129.288   5.615  1.00 40.91     0.024 A 
ATOM     18  CZ  TYR A 338     -38.249 128.674   4.808  1.00 42.33     0.089 A 
ATOM     19  CE1 TYR A 338     -38.391 127.332   4.502  1.00 40.63     0.024 A 
ATOM     20  CD1 TYR A 338     -39.478 126.622   4.987  1.00 39.27    -0.002 A 
BRANCH  18  21
ATOM     21  OH  TYR A 338     -37.185 129.384   4.327  1.00 43.36    -0.359 OA
ATOM     22  HH  TYR A 338     -37.324 130.135   3.761  1.00  0.00     0.217 HD
ENDBRANCH  18  21
ENDBRANCH  14  15
ENDBRANCH  13  14
END_RES TYR A 338
ENDMDL
MODEL 2
REMARK VINA RESULT:    -8.250      2.211     16.822
REMARK INTER + INTRA:         -11.465
REMARK INTER:                 -11.059
REMARK INTRA:                  -0.405
REMARK UNBOUND:                -3.214
REMARK  0 active torsions:
REMARK  status: ('A' for Active; 'I' for Inactive)
REMARK       I    between atoms: C3_3  and  O3_21 
REMARK       I    between atoms: C6_6  and  C7_7 
REMARK       I    between atoms: C8_8  and  C9_9 
REMARK       I    between atoms: C10_10  and  C11_11 
REMARK       I    between atoms: C12_12  and  C13_13 
REMARK       I    between atoms: C14_14  and  C15_15 
REMARK       I    between atoms: C23_25  and  O23_43 
REMARK       I    between atoms: C26_28  and  C27_29 
REMARK       I    between atoms: C28_30  and  C29_31 
REMARK       I    between atoms: C30_32  and  C31_33 
REMARK       I    between atoms: C32_34  and  C33_35 
REMARK       I    between atoms: C34_36  and  C35_37 
ROOT
HETATM    1  C1  STQ 6 621     -50.149 144.607  13.410  1.00 27.76    -0.018 C 
HETATM    2  C2  STQ 6 621     -50.736 144.726  14.814  1.00 27.76     0.045 C 
HETATM    3  C3  STQ 6 621     -50.122 145.712  15.800  1.00 27.76     0.123 C 
HETATM    4  C4  STQ 6 621     -49.435 146.869  15.108  1.00 27.76     0.066 C 
HETATM    5  C5  STQ 6 621     -48.481 146.327  14.080  1.00 27.76    -0.074 C 
HETATM    6  C6  STQ 6 621     -48.853 145.370  13.227  1.00 27.76    -0.048 C 
HETATM    7  C7  STQ 6 621     -47.988 145.065  12.060  1.00 27.76     0.009 C 
HETATM    8  C8  STQ 6 621     -47.052 144.110  12.080  1.00 27.76     0.007 C 
HETATM    9  C9  STQ 6 621     -46.202 143.841  10.907  1.00 27.76    -0.062 C 
HETATM   10  C10 STQ 6 621     -45.306 142.839  10.980  1.00 27.76     0.007 C 
HETATM   11  C11 STQ 6 621     -44.364 142.433   9.936  1.00 27.76     0.001 C 
HETATM   12  C12 STQ 6 621     -43.458 141.528  10.292  1.00 27.76     0.007 C 
HETATM   13  C13 STQ 6 621     -42.407 140.925   9.451  1.00 27.76    -0.062 C 
HETATM   14  C14 STQ 6 621     -41.832 139.810   9.922  1.00 27.76     0.007 C 
HETATM   15  C15 STQ 6 621     -40.803 139.046   9.227  1.00 27.76     0.001 C 
HETATM   16  C16 STQ 6 621     -51.224 145.069  12.430  1.00 27.76     0.020 C 
HETATM   17  C17 STQ 6 621     -49.849 143.142  13.138  1.00 27.76     0.020 C 
HETATM   18  C18 STQ 6 621     -47.342 147.254  13.768  1.00 27.76     0.044 C 
HETATM   19  C19 STQ 6 621     -46.362 144.691   9.687  1.00 27.76     0.048 C 
HETATM   20  C20 STQ 6 621     -41.997 141.513   8.138  1.00 27.76     0.048 C 
HETATM   21  O3  STQ 6 621     -51.147 146.235  16.650  1.00 27.76    -0.395 OA
ATOM     22  H3  STQ 6 621     -50.764 146.850  17.264  1.00  0.00     0.210 HD
HETATM   23  C21 STQ 6 621     -34.135 128.234   7.027  1.00 27.76    -0.035 C 
HETATM   24  C22 STQ 6 621     -33.312 127.595   5.912  1.00 27.76     0.045 C 
HETATM   25  C23 STQ 6 621     -31.812 127.864   5.975  1.00 27.76     0.142 C 
HETATM   26  C24 STQ 6 621     -31.483 129.254   6.472  1.00 27.76     0.007 C 
HETATM   27  C25 STQ 6 621     -32.314 129.936   7.267  1.00 27.76    -0.077 C 
HETATM   28  C26 STQ 6 621     -33.799 129.720   7.175  1.00 27.76     0.044 C 
HETATM   29  C27 STQ 6 621     -34.533 130.310   8.359  1.00 27.76    -0.016 C 
HETATM   30  C28 STQ 6 621     -35.295 131.372   8.125  1.00 27.76     0.003 C 
HETATM   31  C29 STQ 6 621     -36.085 132.046   9.166  1.00 27.76    -0.062 C 
HETATM   32  C30 STQ 6 621     -36.937 132.980   8.735  1.00 27.76     0.007 C 
HETATM   33  C31 STQ 6 621     -37.835 133.760   9.575  1.00 27.76     0.001 C 
HETATM   34  C32 STQ 6 621     -38.361 134.825   8.983  1.00 27.76     0.007 C 
HETATM   35  C33 STQ 6 621     -39.315 135.733   9.630  1.00 27.76    -0.062 C 
HETATM   36  C34 STQ 6 621     -39.645 136.889   9.030  1.00 27.76     0.007 C 
HETATM   37  C35 STQ 6 621     -40.616 137.794   9.641  1.00 27.76     0.001 C 
HETATM   38  C36 STQ 6 621     -33.941 127.485   8.342  1.00 27.76     0.016 C 
HETATM   39  C37 STQ 6 621     -35.599 128.100   6.633  1.00 27.76     0.016 C 
HETATM   40  C38 STQ 6 621     -31.733 130.913   8.244  1.00 27.76     0.044 C 
HETATM   41  C39 STQ 6 621     -35.942 131.696  10.617  1.00 27.76     0.048 C 
HETATM   42  C40 STQ 6 621     -39.926 135.332  10.931  1.00 27.76     0.048 C 
HETATM   43  O23 STQ 6 621     -31.255 127.705   4.665  1.00 27.76    -0.392 OA
ATOM     44  H23 STQ 6 621     -30.321 127.874   4.704  1.00  0.00     0.210 HD
ENDROOT
TORSDOF 12
BEGIN_RES PHE A  61
REMARK  2 active torsions:
REMARK  status: ('A' for Active; 'I' for Inactive)
REMARK    1  A    between atoms: CA   and  CB  
REMARK    2  A    between atoms: CB   and  CG  
ROOT
ATOM      1  CA  PHE A  61     -36.237 128.293  12.768  1.00 39.40     0.164 C 
ENDROOT
BRANCH   1   2
ATOM      2  CB  PHE A  61     -36.813 128.951  11.509  1.00 39.41     0.058 C 
BRANCH   2   3
ATOM      3  CG  PHE A  61     -37.026 128.005  10.352  1.00 39.01    -0.020 A 
ATOM      4  CD2 PHE A  61     -36.277 126.844  10.235  1.00 40.32    -0.004 A 
ATOM      5  CE2 PHE A  61     -36.471 125.976   9.168  1.00 40.20    -0.000 A 
ATOM      6  CZ  PHE A  61     -37.418 126.256   8.209  1.00 40.34    -0.000 A 
ATOM      7  CE1 PHE A  61     -38.172 127.404   8.312  1.00 41.51    -0.000 A 
ATOM      8  CD1 PHE A  61     -37.974 128.275   9.375  1.00 39.94    -0.004 A 
ENDBRANCH   2   3
ENDBRANCH   1   2
END_RES PHE A  61
BEGIN_RES VAL A 134
REMARK  1 active torsions:
REMARK  status: ('A' for Active; 'I' for Inactive)
REMARK    3  A    between atoms: CA   and  CB  
ROOT
ATOM      9  CA  VAL A 134     -29.766 132.051   9.815  1.00 40.75     0.159 C 
ENDROOT
BRANCH   9  10
ATOM     10  CB  VAL A 134     -30.864 132.765   9.009  1.00 40.76     0.029 C 
ATOM     11  CG1 VAL A 134     -32.105 132.980   9.863  1.00 41.76     0.002 C 
ATOM     12  CG2 VAL A 134     -30.370 134.083   8.432  1.00 40.56     0.002 C 
ENDBRANCH   9  10
END_RES VAL A 134
BEGIN_RES TYR A 338
REMARK  3 active torsions:
REMARK  status: ('A' for Active; 'I' for Inactive)
REMARK    4  A    between atoms: CA   and  CB  
REMARK    5  A    between atoms: CB   and  CG  
REMARK    6  A    between atoms: CZ   and  OH  
ROOT
ATOM     13  CA  TYR A 338     -41.631 124.950   6.058  1.00 38.23     0.164 C 
ENDROOT
BRANCH  13  14
ATOM     14  CB  TYR A 338     -41.621 126.456   6.339  1.00 39.15     0.058 C 
BRANCH  14  15
ATOM     15  CG  TYR A 338     -40.419 127.212   5.822  1.00 39.03    -0.020 A 
ATOM     16  CD2 TYR A 338     -40.265 128.559   6.101  1.00 40.65    -0.002 A 
ATOM     17  CE2 TYR A 338     -39.183 129.287   5.630  1.00 40.91     0.024 A 
ATOM     18  CZ  TYR A 338     -38.221 128.665   4.857  1.00 42.33     0.089 A 
ATOM     19  CE1 TYR A 338     -38.350 127.317   4.569  1.00 40.63     0.024 A 
ATOM     20  CD1 TYR A 338     -39.446 126.610   5.038  1.00 39.27    -0.002 A 
BRANCH  18  21
ATOM     21  OH  TYR A 338     -37.148 129.371   4.391  1.00 43.36    -0.359 OA
ATOM     22  HH  TYR A 338     -36.263 129.089   4.591  1.00  0.00     0.217 HD
ENDBRANCH  18  21
ENDBRANCH  14  15
ENDBRANCH  13  14
END_RES TYR A 338
ENDMDL
