MODEL 1
REMARK VINA RESULT:    -9.160      0.000      0.000
REMARK INTER + INTRA:         -11.458
REMARK INTER:                  -9.160
REMARK INTRA:                  -2.298
REMARK UNBOUND:                -2.298
REMARK  0 active torsions:
REMARK  status: ('A' for Active; 'I' for Inactive)
REMARK       I    between atoms: C3_3  and  O3_21 
REMARK       I    between atoms: C6_6  and  C7_7 
REMARK       I    between atoms: C8_8  and  C9_9 
REMARK       I    between atoms: C10_10  and  C11_11 
REMARK       I    between atoms: C12_12  and  C13_13 
REMARK       I    between atoms: C14_14  and  C15_15 
REMARK       I    between atoms: C23_25  and  O23_43 
REMARK       I    between atoms: C26_28  and  C27_29 
REMARK       I    between atoms: C28_30  and  C29_31 
REMARK       I    between atoms: C30_32  and  C31_33 
REMARK       I    between atoms: C32_34  and  C33_35 
REMARK       I    between atoms: C34_36  and  C35_37 
ROOT
HETATM    1  C1  STQ 7 622     -48.320 145.864  12.697  1.00 13.75    -0.018 C 
HETATM    2  C2  STQ 7 622     -49.275 146.439  13.733  1.00 13.75     0.045 C 
HETATM    3  C3  STQ 7 622     -48.580 146.954  14.972  1.00 13.75     0.123 C 
HETATM    4  C4  STQ 7 622     -47.572 147.992  14.556  1.00 13.75     0.066 C 
HETATM    5  C5  STQ 7 622     -46.567 147.371  13.633  1.00 13.75    -0.074 C 
HETATM    6  C6  STQ 7 622     -46.912 146.439  12.728  1.00 13.75    -0.048 C 
HETATM    7  C7  STQ 7 622     -45.975 145.950  11.676  1.00 13.75     0.009 C 
HETATM    8  C8  STQ 7 622     -45.003 145.048  11.868  1.00 13.75     0.007 C 
HETATM    9  C9  STQ 7 622     -44.136 144.587  10.767  1.00 13.75    -0.062 C 
HETATM   10  C10 STQ 7 622     -43.443 143.458  10.962  1.00 13.75     0.007 C 
HETATM   11  C11 STQ 7 622     -42.561 142.825   9.987  1.00 13.75     0.001 C 
HETATM   12  C12 STQ 7 622     -42.248 141.566  10.271  1.00 13.75     0.007 C 
HETATM   13  C13 STQ 7 622     -41.404 140.669   9.465  1.00 13.75    -0.062 C 
HETATM   14  C14 STQ 7 622     -41.026 139.509  10.025  1.00 13.75     0.007 C 
HETATM   15  C15 STQ 7 622     -40.228 138.513   9.327  1.00 13.75     0.001 C 
HETATM   16  C16 STQ 7 622     -48.975 146.090  11.342  1.00 13.75     0.020 C 
HETATM   17  C17 STQ 7 622     -48.194 144.371  12.955  1.00 13.75     0.020 C 
HETATM   18  C18 STQ 7 622     -45.259 148.091  13.613  1.00 13.75     0.044 C 
HETATM   19  C19 STQ 7 622     -44.048 145.351   9.481  1.00 13.75     0.048 C 
HETATM   20  C20 STQ 7 622     -41.016 141.015   8.059  1.00 13.75     0.048 C 
HETATM   21  O3  STQ 7 622     -49.535 147.555  15.848  1.00 13.75    -0.395 OA
ATOM     22  H3  STQ 7 622     -50.171 146.900  16.110  1.00  0.00     0.210 HD
HETATM   23  C21 STQ 7 622     -34.401 127.376   6.571  1.00 13.75    -0.035 C 
HETATM   24  C22 STQ 7 622     -33.756 126.652   5.397  1.00 13.75     0.045 C 
HETATM   25  C23 STQ 7 622     -32.291 127.002   5.181  1.00 13.75     0.142 C 
HETATM   26  C24 STQ 7 622     -32.035 128.481   5.316  1.00 13.75     0.007 C 
HETATM   27  C25 STQ 7 622     -32.814 129.290   6.041  1.00 13.75    -0.077 C 
HETATM   28  C26 STQ 7 622     -34.211 128.896   6.448  1.00 13.75     0.044 C 
HETATM   29  C27 STQ 7 622     -34.638 129.593   7.726  1.00 13.75    -0.016 C 
HETATM   30  C28 STQ 7 622     -35.619 130.484   7.634  1.00 13.75     0.003 C 
HETATM   31  C29 STQ 7 622     -36.167 131.231   8.776  1.00 13.75    -0.062 C 
HETATM   32  C30 STQ 7 622     -37.082 132.164   8.490  1.00 13.75     0.007 C 
HETATM   33  C31 STQ 7 622     -37.761 132.994   9.475  1.00 13.75     0.001 C 
HETATM   34  C32 STQ 7 622     -38.229 134.147   9.018  1.00 13.75     0.007 C 
HETATM   35  C33 STQ 7 622     -38.962 135.129   9.831  1.00 13.75    -0.062 C 
HETATM   36  C34 STQ 7 622     -39.295 136.286   9.243  1.00 13.75     0.007 C 
HETATM   37  C35 STQ 7 622     -40.051 137.333   9.915  1.00 13.75     0.001 C 
HETATM   38  C36 STQ 7 622     -33.862 126.831   7.891  1.00 13.75     0.016 C 
HETATM   39  C37 STQ 7 622     -35.888 127.050   6.529  1.00 13.75     0.016 C 
HETATM   40  C38 STQ 7 622     -32.255 130.628   6.415  1.00 13.75     0.044 C 
HETATM   41  C39 STQ 7 622     -35.736 130.946  10.180  1.00 13.75     0.048 C 
HETATM   42  C40 STQ 7 622     -39.334 134.836  11.253  1.00 13.75     0.048 C 
HETATM   43  O23 STQ 7 622     -31.889 126.600   3.868  1.00 13.75    -0.392 OA
ATOM     44  H23 STQ 7 622     -30.974 126.818   3.733  1.00  0.00     0.210 HD
ENDROOT
TORSDOF 12
BEGIN_RES PHE A  61
REMARK  2 active torsions:
REMARK  status: ('A' for Active; 'I' for Inactive)
REMARK    1  A    between atoms: CA   and  CB  
REMARK    2  A    between atoms: CB   and  CG  
ROOT
ATOM      1  CA  PHE A  61     -36.237 128.293  12.768  1.00 39.40     0.164 C 
ENDROOT
BRANCH   1   2
ATOM      2  CB  PHE A  61     -36.813 128.951  11.509  1.00 39.41     0.058 C 
BRANCH   2   3
ATOM      3  CG  PHE A  61     -37.085 127.994  10.373  1.00 39.01    -0.020 A 
ATOM      4  CD2 PHE A  61     -36.365 126.816  10.247  1.00 40.32    -0.004 A 
ATOM      5  CE2 PHE A  61     -36.614 125.938   9.200  1.00 40.20    -0.000 A 
ATOM      6  CZ  PHE A  61     -37.588 126.225   8.271  1.00 40.34    -0.000 A 
ATOM      7  CE1 PHE A  61     -38.314 127.390   8.383  1.00 41.51    -0.000 A 
ATOM      8  CD1 PHE A  61     -38.060 128.271   9.426  1.00 39.94    -0.004 A 
ENDBRANCH   2   3
ENDBRANCH   1   2
END_RES PHE A  61
BEGIN_RES VAL A 134
REMARK  1 active torsions:
REMARK  status: ('A' for Active; 'I' for Inactive)
REMARK    3  A    between atoms: CA   and  CB  
ROOT
ATOM      9  CA  VAL A 134     -29.766 132.051   9.815  1.00 40.75     0.159 C 
ENDROOT
BRANCH   9  10
ATOM     10  CB  VAL A 134     -30.864 132.765   9.009  1.00 40.76     0.029 C 
ATOM     11  CG1 VAL A 134     -30.841 132.318   7.555  1.00 41.76     0.002 C 
ATOM     12  CG2 VAL A 134     -32.240 132.547   9.620  1.00 40.56     0.002 C 
ENDBRANCH   9  10
END_RES VAL A 134
BEGIN_RES TYR A 338
REMARK  3 active torsions:
REMARK  status: ('A' for Active; 'I' for Inactive)
REMARK    4  A    between atoms: CA   and  CB  
REMARK    5  A    between atoms: CB   and  CG  
REMARK    6  A    between atoms: CZ   and  OH  
ROOT
ATOM     13  CA  TYR A 338     -41.631 124.950   6.058  1.00 38.23     0.164 C 
ENDROOT
BRANCH  13  14
ATOM     14  CB  TYR A 338     -41.621 126.456   6.339  1.00 39.15     0.058 C 
BRANCH  14  15
ATOM     15  CG  TYR A 338     -40.414 127.210   5.831  1.00 39.03    -0.020 A 
ATOM     16  CD2 TYR A 338     -40.237 128.546   6.150  1.00 40.65    -0.002 A 
ATOM     17  CE2 TYR A 338     -39.150 129.272   5.689  1.00 40.91     0.024 A 
ATOM     18  CZ  TYR A 338     -38.207 128.660   4.885  1.00 42.33     0.089 A 
ATOM     19  CE1 TYR A 338     -38.359 127.325   4.556  1.00 40.63     0.024 A 
ATOM     20  CD1 TYR A 338     -39.460 126.619   5.017  1.00 39.27    -0.002 A 
BRANCH  18  21
ATOM     21  OH  TYR A 338     -37.129 129.366   4.428  1.00 43.36    -0.359 OA
ATOM     22  HH  TYR A 338     -36.307 129.351   4.905  1.00  0.00     0.217 HD
ENDBRANCH  18  21
ENDBRANCH  14  15
ENDBRANCH  13  14
END_RES TYR A 338
ENDMDL
MODEL 2
REMARK VINA RESULT:    -8.399      1.160     16.848
REMARK INTER + INTRA:         -10.697
REMARK INTER:                  -6.896
REMARK INTRA:                  -3.801
REMARK UNBOUND:                -2.298
REMARK  0 active torsions:
REMARK  status: ('A' for Active; 'I' for Inactive)
REMARK       I    between atoms: C3_3  and  O3_21 
REMARK       I    between atoms: C6_6  and  C7_7 
REMARK       I    between atoms: C8_8  and  C9_9 
REMARK       I    between atoms: C10_10  and  C11_11 
REMARK       I    between atoms: C12_12  and  C13_13 
REMARK       I    between atoms: C14_14  and  C15_15 
REMARK       I    between atoms: C23_25  and  O23_43 
REMARK       I    between atoms: C26_28  and  C27_29 
REMARK       I    between atoms: C28_30  and  C29_31 
REMARK       I    between atoms: C30_32  and  C31_33 
REMARK       I    between atoms: C32_34  and  C33_35 
REMARK       I    between atoms: C34_36  and  C35_37 
ROOT
HETATM    1  C1  STQ 7 622     -34.506 126.921   5.792  1.00 13.75    -0.018 C 
HETATM    2  C2  STQ 7 622     -33.966 126.070   4.652  1.00 13.75     0.045 C 
HETATM    3  C3  STQ 7 622     -32.871 126.748   3.862  1.00 13.75     0.123 C 
HETATM    4  C4  STQ 7 622     -31.762 127.121   4.808  1.00 13.75     0.066 C 
HETATM    5  C5  STQ 7 622     -32.289 128.061   5.851  1.00 13.75    -0.074 C 
HETATM    6  C6  STQ 7 622     -33.527 127.938   6.359  1.00 13.75    -0.048 C 
HETATM    7  C7  STQ 7 622     -34.003 128.734   7.527  1.00 13.75     0.009 C 
HETATM    8  C8  STQ 7 622     -34.419 130.006   7.473  1.00 13.75     0.007 C 
HETATM    9  C9  STQ 7 622     -34.910 130.719   8.669  1.00 13.75    -0.062 C 
HETATM   10  C10 STQ 7 622     -35.617 131.838   8.470  1.00 13.75     0.007 C 
HETATM   11  C11 STQ 7 622     -36.212 132.663   9.517  1.00 13.75     0.001 C 
HETATM   12  C12 STQ 7 622     -37.129 133.519   9.082  1.00 13.75     0.007 C 
HETATM   13  C13 STQ 7 622     -37.915 134.455   9.903  1.00 13.75    -0.062 C 
HETATM   14  C14 STQ 7 622     -38.632 135.389   9.258  1.00 13.75     0.007 C 
HETATM   15  C15 STQ 7 622     -39.483 136.349   9.942  1.00 13.75     0.001 C 
HETATM   16  C16 STQ 7 622     -34.971 125.949   6.866  1.00 13.75     0.020 C 
HETATM   17  C17 STQ 7 622     -35.700 127.702   5.267  1.00 13.75     0.020 C 
HETATM   18  C18 STQ 7 622     -31.231 128.918   6.463  1.00 13.75     0.044 C 
HETATM   19  C19 STQ 7 622     -34.632 130.199  10.046  1.00 13.75     0.048 C 
HETATM   20  C20 STQ 7 622     -37.949 134.345  11.397  1.00 13.75     0.048 C 
HETATM   21  O3  STQ 7 622     -32.361 125.850   2.875  1.00 13.75    -0.395 OA
ATOM     22  H3  STQ 7 622     -33.061 125.615   2.278  1.00  0.00     0.210 HD
HETATM   23  C21 STQ 7 622     -48.347 145.463  11.937  1.00 13.75    -0.035 C 
HETATM   24  C22 STQ 7 622     -49.166 146.071  13.067  1.00 13.75     0.045 C 
HETATM   25  C23 STQ 7 622     -48.449 147.175  13.830  1.00 13.75     0.142 C 
HETATM   26  C24 STQ 7 622     -47.012 146.824  14.118  1.00 13.75     0.007 C 
HETATM   27  C25 STQ 7 622     -46.310 145.964  13.375  1.00 13.75    -0.077 C 
HETATM   28  C26 STQ 7 622     -46.981 144.980  12.449  1.00 13.75     0.044 C 
HETATM   29  C27 STQ 7 622     -46.079 144.599  11.290  1.00 13.75    -0.016 C 
HETATM   30  C28 STQ 7 622     -45.642 143.346  11.246  1.00 13.75     0.003 C 
HETATM   31  C29 STQ 7 622     -44.781 142.807  10.183  1.00 13.75    -0.062 C 
HETATM   32  C30 STQ 7 622     -44.349 141.551  10.347  1.00 13.75     0.007 C 
HETATM   33  C31 STQ 7 622     -43.509 140.829   9.403  1.00 13.75     0.001 C 
HETATM   34  C32 STQ 7 622     -42.795 139.840   9.922  1.00 13.75     0.007 C 
HETATM   35  C33 STQ 7 622     -41.896 138.969   9.150  1.00 13.75    -0.062 C 
HETATM   36  C34 STQ 7 622     -41.176 138.069   9.835  1.00 13.75     0.007 C 
HETATM   37  C35 STQ 7 622     -40.274 137.120   9.200  1.00 13.75     0.001 C 
HETATM   38  C36 STQ 7 622     -48.214 146.455  10.786  1.00 13.75     0.016 C 
HETATM   39  C37 STQ 7 622     -49.135 144.271  11.409  1.00 13.75     0.016 C 
HETATM   40  C38 STQ 7 622     -44.819 145.993  13.514  1.00 13.75     0.044 C 
HETATM   41  C39 STQ 7 622     -44.426 143.616   8.976  1.00 13.75     0.048 C 
HETATM   42  C40 STQ 7 622     -41.804 139.075   7.659  1.00 13.75     0.048 C 
HETATM   43  O23 STQ 7 622     -49.110 147.404  15.078  1.00 13.75    -0.392 OA
ATOM     44  H23 STQ 7 622     -48.662 148.094  15.554  1.00  0.00     0.210 HD
ENDROOT
TORSDOF 12
BEGIN_RES PHE A  61
REMARK  2 active torsions:
REMARK  status: ('A' for Active; 'I' for Inactive)
REMARK    1  A    between atoms: CA   and  CB  
REMARK    2  A    between atoms: CB   and  CG  
ROOT
ATOM      1  CA  PHE A  61     -36.237 128.293  12.768  1.00 39.40     0.164 C 
ENDROOT
BRANCH   1   2
ATOM      2  CB  PHE A  61     -36.813 128.951  11.509  1.00 39.41     0.058 C 
BRANCH   2   3
ATOM      3  CG  PHE A  61     -36.962 128.019  10.330  1.00 39.01    -0.020 A 
ATOM      4  CD2 PHE A  61     -36.155 126.900  10.202  1.00 40.32    -0.004 A 
ATOM      5  CE2 PHE A  61     -36.291 126.045   9.115  1.00 40.20    -0.000 A 
ATOM      6  CZ  PHE A  61     -37.237 126.297   8.148  1.00 40.34    -0.000 A 
ATOM      7  CE1 PHE A  61     -38.049 127.404   8.262  1.00 41.51    -0.000 A 
ATOM      8  CD1 PHE A  61     -37.909 128.262   9.345  1.00 39.94    -0.004 A 
ENDBRANCH   2   3
ENDBRANCH   1   2
END_RES PHE A  61
BEGIN_RES VAL A 134
REMARK  1 active torsions:
REMARK  status: ('A' for Active; 'I' for Inactive)
REMARK    3  A    between atoms: CA   and  CB  
ROOT
ATOM      9  CA  VAL A 134     -29.766 132.051   9.815  1.00 40.75     0.159 C 
ENDROOT
BRANCH   9  10
ATOM     10  CB  VAL A 134     -30.864 132.765   9.009  1.00 40.76     0.029 C 
ATOM     11  CG1 VAL A 134     -31.179 131.999   7.732  1.00 41.76     0.002 C 
ATOM     12  CG2 VAL A 134     -32.122 132.974   9.838  1.00 40.56     0.002 C 
ENDBRANCH   9  10
END_RES VAL A 134
BEGIN_RES TYR A 338
REMARK  3 active torsions:
REMARK  status: ('A' for Active; 'I' for Inactive)
REMARK    4  A    between atoms: CA   and  CB  
REMARK    5  A    between atoms: CB   and  CG  
REMARK    6  A    between atoms: CZ   and  OH  
ROOT
ATOM     13  CA  TYR A 338     -41.631 124.950   6.058  1.00 38.23     0.164 C 
ENDROOT
BRANCH  13  14
ATOM     14  CB  TYR A 338     -41.621 126.456   6.339  1.00 39.15     0.058 C 
BRANCH  14  15
ATOM     15  CG  TYR A 338     -40.431 127.216   5.800  1.00 39.03    -0.020 A 
ATOM     16  CD2 TYR A 338     -40.256 128.554   6.109  1.00 40.65    -0.002 A 
ATOM     17  CE2 TYR A 338     -39.185 129.286   5.620  1.00 40.91     0.024 A 
ATOM     18  CZ  TYR A 338     -38.256 128.677   4.797  1.00 42.33     0.089 A 
ATOM     19  CE1 TYR A 338     -38.407 127.339   4.477  1.00 40.63     0.024 A 
ATOM     20  CD1 TYR A 338     -39.492 126.628   4.966  1.00 39.27    -0.002 A 
BRANCH  18  21
ATOM     21  OH  TYR A 338     -37.194 129.388   4.312  1.00 43.36    -0.359 OA
ATOM     22  HH  TYR A 338     -36.393 129.461   4.818  1.00  0.00     0.217 HD
ENDBRANCH  18  21
ENDBRANCH  14  15
ENDBRANCH  13  14
END_RES TYR A 338
ENDMDL
MODEL 3
REMARK VINA RESULT:    -6.596      1.543      2.106
REMARK INTER + INTRA:          -8.894
REMARK INTER:                  -4.048
REMARK INTRA:                  -4.846
REMARK UNBOUND:                -2.298
REMARK  0 active torsions:
REMARK  status: ('A' for Active; 'I' for Inactive)
REMARK       I    between atoms: C3_3  and  O3_21 
REMARK       I    between atoms: C6_6  and  C7_7 
REMARK       I    between atoms: C8_8  and  C9_9 
REMARK       I    between atoms: C10_10  and  C11_11 
REMARK       I    between atoms: C12_12  and  C13_13 
REMARK       I    between atoms: C14_14  and  C15_15 
REMARK       I    between atoms: C23_25  and  O23_43 
REMARK       I    between atoms: C26_28  and  C27_29 
REMARK       I    between atoms: C28_30  and  C29_31 
REMARK       I    between atoms: C30_32  and  C31_33 
REMARK       I    between atoms: C32_34  and  C33_35 
REMARK       I    between atoms: C34_36  and  C35_37 
ROOT
HETATM    1  C1  STQ 7 622     -48.317 147.507   9.934  1.00 13.75    -0.018 C 
HETATM    2  C2  STQ 7 622     -49.737 148.046  10.014  1.00 13.75     0.045 C 
HETATM    3  C3  STQ 7 622     -50.470 147.629  11.269  1.00 13.75     0.123 C 
HETATM    4  C4  STQ 7 622     -49.669 148.082  12.460  1.00 13.75     0.066 C 
HETATM    5  C5  STQ 7 622     -48.314 147.438  12.426  1.00 13.75    -0.074 C 
HETATM    6  C6  STQ 7 622     -47.654 147.229  11.274  1.00 13.75    -0.048 C 
HETATM    7  C7  STQ 7 622     -46.236 146.771  11.228  1.00 13.75     0.009 C 
HETATM    8  C8  STQ 7 622     -45.829 145.507  11.404  1.00 13.75     0.007 C 
HETATM    9  C9  STQ 7 622     -44.406 145.125  11.310  1.00 13.75    -0.062 C 
HETATM   10  C10 STQ 7 622     -44.129 143.824  11.152  1.00 13.75     0.007 C 
HETATM   11  C11 STQ 7 622     -42.794 143.253  11.007  1.00 13.75     0.001 C 
HETATM   12  C12 STQ 7 622     -42.780 142.011  10.538  1.00 13.75     0.007 C 
HETATM   13  C13 STQ 7 622     -41.589 141.191  10.263  1.00 13.75    -0.062 C 
HETATM   14  C14 STQ 7 622     -41.783 139.888  10.002  1.00 13.75     0.007 C 
HETATM   15  C15 STQ 7 622     -40.701 138.974   9.674  1.00 13.75     0.001 C 
HETATM   16  C16 STQ 7 622     -47.521 148.523   9.128  1.00 13.75     0.020 C 
HETATM   17  C17 STQ 7 622     -48.361 146.187   9.180  1.00 13.75     0.020 C 
HETATM   18  C18 STQ 7 622     -47.672 147.343  13.770  1.00 13.75     0.044 C 
HETATM   19  C19 STQ 7 622     -43.322 146.157  11.379  1.00 13.75     0.048 C 
HETATM   20  C20 STQ 7 622     -40.216 141.792  10.232  1.00 13.75     0.048 C 
HETATM   21  O3  STQ 7 622     -51.756 148.249  11.307  1.00 13.75    -0.395 OA
ATOM     22  H3  STQ 7 622     -52.261 147.963  10.556  1.00  0.00     0.210 HD
HETATM   23  C21 STQ 7 622     -34.504 128.416   5.708  1.00 13.75    -0.035 C 
HETATM   24  C22 STQ 7 622     -33.117 127.969   5.270  1.00 13.75     0.045 C 
HETATM   25  C23 STQ 7 622     -32.197 127.581   6.419  1.00 13.75     0.142 C 
HETATM   26  C24 STQ 7 622     -32.289 128.549   7.570  1.00 13.75     0.007 C 
HETATM   27  C25 STQ 7 622     -33.370 129.299   7.805  1.00 13.75    -0.077 C 
HETATM   28  C26 STQ 7 622     -34.414 129.546   6.745  1.00 13.75     0.044 C 
HETATM   29  C27 STQ 7 622     -35.775 129.823   7.355  1.00 13.75    -0.016 C 
HETATM   30  C28 STQ 7 622     -36.272 131.045   7.203  1.00 13.75     0.003 C 
HETATM   31  C29 STQ 7 622     -37.584 131.473   7.711  1.00 13.75    -0.062 C 
HETATM   32  C30 STQ 7 622     -37.885 132.768   7.560  1.00 13.75     0.007 C 
HETATM   33  C31 STQ 7 622     -39.138 133.385   7.973  1.00 13.75     0.001 C 
HETATM   34  C32 STQ 7 622     -39.077 134.689   8.204  1.00 13.75     0.007 C 
HETATM   35  C33 STQ 7 622     -40.223 135.516   8.611  1.00 13.75    -0.062 C 
HETATM   36  C34 STQ 7 622     -39.981 136.804   8.891  1.00 13.75     0.007 C 
HETATM   37  C35 STQ 7 622     -41.023 137.747   9.272  1.00 13.75     0.001 C 
HETATM   38  C36 STQ 7 622     -35.308 127.225   6.221  1.00 13.75     0.016 C 
HETATM   39  C37 STQ 7 622     -35.217 128.931   4.464  1.00 13.75     0.016 C 
HETATM   40  C38 STQ 7 622     -33.498 129.914   9.165  1.00 13.75     0.044 C 
HETATM   41  C39 STQ 7 622     -38.534 130.506   8.343  1.00 13.75     0.048 C 
HETATM   42  C40 STQ 7 622     -41.604 134.943   8.692  1.00 13.75     0.048 C 
HETATM   43  O23 STQ 7 622     -30.841 127.560   5.964  1.00 13.75    -0.392 OA
ATOM     44  H23 STQ 7 622     -30.267 127.318   6.681  1.00  0.00     0.210 HD
ENDROOT
TORSDOF 12
BEGIN_RES PHE A  61
REMARK  2 active torsions:
REMARK  status: ('A' for Active; 'I' for Inactive)
REMARK    1  A    between atoms: CA   and  CB  
REMARK    2  A    between atoms: CB   and  CG  
ROOT
ATOM      1  CA  PHE A  61     -36.237 128.293  12.768  1.00 39.40     0.164 C 
ENDROOT
BRANCH   1   2
ATOM      2  CB  PHE A  61     -36.813 128.951  11.509  1.00 39.41     0.058 C 
BRANCH   2   3
ATOM      3  CG  PHE A  61     -36.842 128.055  10.294  1.00 39.01    -0.020 A 
ATOM      4  CD2 PHE A  61     -37.967 127.986   9.487  1.00 40.32    -0.004 A 
ATOM      5  CE2 PHE A  61     -37.994 127.159   8.372  1.00 40.20    -0.000 A 
ATOM      6  CZ  PHE A  61     -36.896 126.394   8.048  1.00 40.34    -0.000 A 
ATOM      7  CE1 PHE A  61     -35.770 126.452   8.839  1.00 41.51    -0.000 A 
ATOM      8  CD1 PHE A  61     -35.745 127.274   9.958  1.00 39.94    -0.004 A 
ENDBRANCH   2   3
ENDBRANCH   1   2
END_RES PHE A  61
BEGIN_RES VAL A 134
REMARK  1 active torsions:
REMARK  status: ('A' for Active; 'I' for Inactive)
REMARK    3  A    between atoms: CA   and  CB  
ROOT
ATOM      9  CA  VAL A 134     -29.766 132.051   9.815  1.00 40.75     0.159 C 
ENDROOT
BRANCH   9  10
ATOM     10  CB  VAL A 134     -30.864 132.765   9.009  1.00 40.76     0.029 C 
ATOM     11  CG1 VAL A 134     -31.132 132.035   7.701  1.00 41.76     0.002 C 
ATOM     12  CG2 VAL A 134     -32.144 132.916   9.816  1.00 40.56     0.002 C 
ENDBRANCH   9  10
END_RES VAL A 134
BEGIN_RES TYR A 338
REMARK  3 active torsions:
REMARK  status: ('A' for Active; 'I' for Inactive)
REMARK    4  A    between atoms: CA   and  CB  
REMARK    5  A    between atoms: CB   and  CG  
REMARK    6  A    between atoms: CZ   and  OH  
ROOT
ATOM     13  CA  TYR A 338     -41.631 124.950   6.058  1.00 38.23     0.164 C 
ENDROOT
BRANCH  13  14
ATOM     14  CB  TYR A 338     -41.621 126.456   6.339  1.00 39.15     0.058 C 
BRANCH  14  15
ATOM     15  CG  TYR A 338     -40.440 127.219   5.785  1.00 39.03    -0.020 A 
ATOM     16  CD2 TYR A 338     -40.304 128.575   6.029  1.00 40.65    -0.002 A 
ATOM     17  CE2 TYR A 338     -39.243 129.309   5.524  1.00 40.91     0.024 A 
ATOM     18  CZ  TYR A 338     -38.283 128.684   4.749  1.00 42.33     0.089 A 
ATOM     19  CE1 TYR A 338     -38.395 127.329   4.494  1.00 40.63     0.024 A 
ATOM     20  CD1 TYR A 338     -39.471 126.615   4.998  1.00 39.27    -0.002 A 
BRANCH  18  21
ATOM     21  OH  TYR A 338     -37.230 129.397   4.249  1.00 43.36    -0.359 OA
ATOM     22  HH  TYR A 338     -36.749 129.078   3.494  1.00  0.00     0.217 HD
ENDBRANCH  18  21
ENDBRANCH  14  15
ENDBRANCH  13  14
END_RES TYR A 338
ENDMDL
