MODEL 1
REMARK VINA RESULT:    -9.776      0.000      0.000
REMARK INTER + INTRA:         -10.260
REMARK INTER:                  -9.776
REMARK INTRA:                  -0.484
REMARK UNBOUND:                -0.484
REMARK  0 active torsions:
REMARK  status: ('A' for Active; 'I' for Inactive)
REMARK       I    between atoms: C3_3  and  O3_21 
REMARK       I    between atoms: C6_6  and  C7_7 
REMARK       I    between atoms: C8_8  and  C9_9 
REMARK       I    between atoms: C10_10  and  C11_11 
REMARK       I    between atoms: C12_12  and  C13_13 
REMARK       I    between atoms: C14_14  and  C15_15 
REMARK       I    between atoms: C23_25  and  O23_43 
REMARK       I    between atoms: C26_28  and  C27_29 
REMARK       I    between atoms: C28_30  and  C29_31 
REMARK       I    between atoms: C30_32  and  C31_33 
REMARK       I    between atoms: C32_34  and  C33_35 
REMARK       I    between atoms: C34_36  and  C35_37 
ROOT
HETATM    1  C1  STQ I8621     -34.080 128.243   7.016  1.00 22.25    -0.018 C 
HETATM    2  C2  STQ I8621     -33.335 127.539   5.871  1.00 20.45     0.045 C 
HETATM    3  C3  STQ I8621     -32.001 128.088   5.374  1.00 22.17     0.123 C 
HETATM    4  C4  STQ I8621     -31.333 129.138   6.274  1.00 20.30     0.066 C 
HETATM    5  C5  STQ I8621     -32.127 129.873   7.302  1.00 20.75    -0.074 C 
HETATM    6  C6  STQ I8621     -33.398 129.488   7.675  1.00 21.23    -0.048 C 
HETATM    7  C7  STQ I8621     -34.226 130.169   8.695  1.00 18.62     0.009 C 
HETATM    8  C8  STQ I8621     -34.938 131.294   8.483  1.00 19.71     0.007 C 
HETATM    9  C9  STQ I8621     -35.766 132.041   9.434  1.00 18.91    -0.062 C 
HETATM   10  C10 STQ I8621     -36.497 133.069   8.953  1.00 16.97     0.007 C 
HETATM   11  C11 STQ I8621     -37.435 133.858   9.694  1.00 17.11     0.001 C 
HETATM   12  C12 STQ I8621     -38.194 134.798   9.112  1.00 17.32     0.007 C 
HETATM   13  C13 STQ I8621     -39.247 135.599   9.748  1.00 18.45    -0.062 C 
HETATM   14  C14 STQ I8621     -39.935 136.467   8.975  1.00 18.02     0.007 C 
HETATM   15  C15 STQ I8621     -41.036 137.289   9.376  1.00 17.18     0.001 C 
HETATM   16  C16 STQ I8621     -34.246 127.114   8.053  1.00 20.14     0.020 C 
HETATM   17  C17 STQ I8621     -35.491 128.610   6.476  1.00 21.86     0.020 C 
HETATM   18  C18 STQ I8621     -31.309 130.999   7.829  1.00 20.13     0.044 C 
HETATM   19  C19 STQ I8621     -35.811 131.558  10.856  1.00 18.10     0.048 C 
HETATM   20  C20 STQ I8621     -39.522 135.368  11.211  1.00 17.04     0.048 C 
HETATM   21  O3  STQ I8621     -31.101 127.019   5.104  1.00 24.42    -0.395 OA
ATOM     22  H3  STQ I8621     -30.271 127.361   4.794  1.00  0.00     0.210 HD
HETATM   23  C21 STQ I8621     -50.966 145.691   9.617  1.00 21.73    -0.035 C 
HETATM   24  C22 STQ I8621     -52.088 146.567  10.214  1.00 20.45     0.045 C 
HETATM   25  C23 STQ I8621     -51.686 147.971  10.669  1.00 19.75     0.142 C 
HETATM   26  C24 STQ I8621     -50.246 148.082  11.179  1.00 19.93     0.007 C 
HETATM   27  C25 STQ I8621     -49.323 147.104  11.021  1.00 21.71    -0.077 C 
HETATM   28  C26 STQ I8621     -49.573 145.764  10.329  1.00 21.39     0.044 C 
HETATM   29  C27 STQ I8621     -48.402 145.324   9.463  1.00 22.08    -0.016 C 
HETATM   30  C28 STQ I8621     -47.739 144.146   9.617  1.00 23.05     0.003 C 
HETATM   31  C29 STQ I8621     -46.707 143.595   8.725  1.00 22.55    -0.062 C 
HETATM   32  C30 STQ I8621     -46.118 142.426   9.059  1.00 20.56     0.007 C 
HETATM   33  C31 STQ I8621     -45.102 141.739   8.297  1.00 20.09     0.001 C 
HETATM   34  C32 STQ I8621     -44.423 140.675   8.785  1.00 17.50     0.007 C 
HETATM   35  C33 STQ I8621     -43.337 139.905   8.163  1.00 16.61    -0.062 C 
HETATM   36  C34 STQ I8621     -42.736 138.956   8.912  1.00 17.58     0.007 C 
HETATM   37  C35 STQ I8621     -41.614 138.134   8.528  1.00 19.85     0.001 C 
HETATM   38  C36 STQ I8621     -50.846 146.106   8.131  1.00 20.06     0.016 C 
HETATM   39  C37 STQ I8621     -51.476 144.234   9.653  1.00 21.16     0.016 C 
HETATM   40  C38 STQ I8621     -48.000 147.430  11.621  1.00 18.60     0.044 C 
HETATM   41  C39 STQ I8621     -46.318 144.409   7.524  1.00 24.32     0.048 C 
HETATM   42  C40 STQ I8621     -42.907 140.274   6.777  1.00 12.09     0.048 C 
HETATM   43  O23 STQ I8621     -52.600 148.434  11.651  1.00 19.68    -0.392 OA
ATOM     44  H23 STQ I8621     -53.493 148.366  11.336  1.00  0.00     0.210 HD
ENDROOT
TORSDOF 12
BEGIN_RES PHE A  61
REMARK  2 active torsions:
REMARK  status: ('A' for Active; 'I' for Inactive)
REMARK    1  A    between atoms: CA   and  CB  
REMARK    2  A    between atoms: CB   and  CG  
ROOT
ATOM      1  CA  PHE A  61     -36.237 128.293  12.768  1.00 39.40     0.164 C 
ENDROOT
BRANCH   1   2
ATOM      2  CB  PHE A  61     -36.813 128.951  11.509  1.00 39.41     0.058 C 
BRANCH   2   3
ATOM      3  CG  PHE A  61     -37.016 128.007  10.348  1.00 39.01    -0.020 A 
ATOM      4  CD2 PHE A  61     -36.284 126.834  10.249  1.00 40.32    -0.004 A 
ATOM      5  CE2 PHE A  61     -36.469 125.967   9.179  1.00 40.20    -0.000 A 
ATOM      6  CZ  PHE A  61     -37.389 126.262   8.199  1.00 40.34    -0.000 A 
ATOM      7  CE1 PHE A  61     -38.126 127.422   8.284  1.00 41.51    -0.000 A 
ATOM      8  CD1 PHE A  61     -37.937 128.292   9.350  1.00 39.94    -0.004 A 
ENDBRANCH   2   3
ENDBRANCH   1   2
END_RES PHE A  61
BEGIN_RES VAL A 134
REMARK  1 active torsions:
REMARK  status: ('A' for Active; 'I' for Inactive)
REMARK    3  A    between atoms: CA   and  CB  
ROOT
ATOM      9  CA  VAL A 134     -29.766 132.051   9.815  1.00 40.75     0.159 C 
ENDROOT
BRANCH   9  10
ATOM     10  CB  VAL A 134     -30.864 132.765   9.009  1.00 40.76     0.029 C 
ATOM     11  CG1 VAL A 134     -32.107 132.976   9.862  1.00 41.76     0.002 C 
ATOM     12  CG2 VAL A 134     -30.371 134.085   8.436  1.00 40.56     0.002 C 
ENDBRANCH   9  10
END_RES VAL A 134
BEGIN_RES TYR A 338
REMARK  3 active torsions:
REMARK  status: ('A' for Active; 'I' for Inactive)
REMARK    4  A    between atoms: CA   and  CB  
REMARK    5  A    between atoms: CB   and  CG  
REMARK    6  A    between atoms: CZ   and  OH  
ROOT
ATOM     13  CA  TYR A 338     -41.631 124.950   6.058  1.00 38.23     0.164 C 
ENDROOT
BRANCH  13  14
ATOM     14  CB  TYR A 338     -41.621 126.456   6.339  1.00 39.15     0.058 C 
BRANCH  14  15
ATOM     15  CG  TYR A 338     -40.415 127.211   5.828  1.00 39.03    -0.020 A 
ATOM     16  CD2 TYR A 338     -40.258 128.556   6.114  1.00 40.65    -0.002 A 
ATOM     17  CE2 TYR A 338     -39.173 129.283   5.649  1.00 40.91     0.024 A 
ATOM     18  CZ  TYR A 338     -38.212 128.662   4.874  1.00 42.33     0.089 A 
ATOM     19  CE1 TYR A 338     -38.345 127.316   4.578  1.00 40.63     0.024 A 
ATOM     20  CD1 TYR A 338     -39.444 126.610   5.042  1.00 39.27    -0.002 A 
BRANCH  18  21
ATOM     21  OH  TYR A 338     -37.136 129.368   4.413  1.00 43.36    -0.359 OA
ATOM     22  HH  TYR A 338     -36.296 128.940   4.294  1.00  0.00     0.217 HD
ENDBRANCH  18  21
ENDBRANCH  14  15
ENDBRANCH  13  14
END_RES TYR A 338
ENDMDL
MODEL 2
REMARK VINA RESULT:    -9.507      2.068      2.645
REMARK INTER + INTRA:          -9.991
REMARK INTER:                  -6.941
REMARK INTRA:                  -3.050
REMARK UNBOUND:                -0.484
REMARK  0 active torsions:
REMARK  status: ('A' for Active; 'I' for Inactive)
REMARK       I    between atoms: C3_3  and  O3_21 
REMARK       I    between atoms: C6_6  and  C7_7 
REMARK       I    between atoms: C8_8  and  C9_9 
REMARK       I    between atoms: C10_10  and  C11_11 
REMARK       I    between atoms: C12_12  and  C13_13 
REMARK       I    between atoms: C14_14  and  C15_15 
REMARK       I    between atoms: C23_25  and  O23_43 
REMARK       I    between atoms: C26_28  and  C27_29 
REMARK       I    between atoms: C28_30  and  C29_31 
REMARK       I    between atoms: C30_32  and  C31_33 
REMARK       I    between atoms: C32_34  and  C33_35 
REMARK       I    between atoms: C34_36  and  C35_37 
ROOT
HETATM    1  C1  STQ I8621     -34.549 127.253   6.061  1.00 22.25    -0.018 C 
HETATM    2  C2  STQ I8621     -34.137 126.573   4.747  1.00 20.45     0.045 C 
HETATM    3  C3  STQ I8621     -32.853 126.993   4.036  1.00 22.17     0.123 C 
HETATM    4  C4  STQ I8621     -31.888 127.861   4.858  1.00 20.30     0.066 C 
HETATM    5  C5  STQ I8621     -32.365 128.589   6.069  1.00 20.75    -0.074 C 
HETATM    6  C6  STQ I8621     -33.587 128.334   6.658  1.00 21.23    -0.048 C 
HETATM    7  C7  STQ I8621     -34.107 129.015   7.865  1.00 18.62     0.009 C 
HETATM    8  C8  STQ I8621     -34.678 130.235   7.874  1.00 19.71     0.007 C 
HETATM    9  C9  STQ I8621     -35.202 130.987   9.018  1.00 18.91    -0.062 C 
HETATM   10  C10 STQ I8621     -35.856 132.141   8.761  1.00 16.97     0.007 C 
HETATM   11  C11 STQ I8621     -36.518 132.967   9.724  1.00 17.11     0.001 C 
HETATM   12  C12 STQ I8621     -37.231 134.047   9.368  1.00 17.32     0.007 C 
HETATM   13  C13 STQ I8621     -38.024 134.911  10.252  1.00 18.45    -0.062 C 
HETATM   14  C14 STQ I8621     -38.713 135.927   9.691  1.00 18.02     0.007 C 
HETATM   15  C15 STQ I8621     -39.592 136.840  10.356  1.00 17.18     0.001 C 
HETATM   16  C16 STQ I8621     -34.678 126.061   7.031  1.00 20.14     0.020 C 
HETATM   17  C17 STQ I8621     -35.968 127.844   5.835  1.00 21.86     0.020 C 
HETATM   18  C18 STQ I8621     -31.313 129.549   6.502  1.00 20.13     0.044 C 
HETATM   19  C19 STQ I8621     -35.051 130.382  10.385  1.00 18.10     0.048 C 
HETATM   20  C20 STQ I8621     -38.053 134.578  11.721  1.00 17.04     0.048 C 
HETATM   21  O3  STQ I8621     -32.180 125.850   3.522  1.00 24.42    -0.395 OA
ATOM     22  H3  STQ I8621     -31.381 126.112   3.080  1.00  0.00     0.210 HD
HETATM   23  C21 STQ I8621     -48.012 146.366  13.117  1.00 21.73    -0.035 C 
HETATM   24  C22 STQ I8621     -48.869 147.316  13.980  1.00 20.45     0.045 C 
HETATM   25  C23 STQ I8621     -48.193 148.609  14.443  1.00 19.75     0.142 C 
HETATM   26  C24 STQ I8621     -46.683 148.488  14.666  1.00 19.93     0.007 C 
HETATM   27  C25 STQ I8621     -45.954 147.422  14.264  1.00 21.71    -0.077 C 
HETATM   28  C26 STQ I8621     -46.516 146.196  13.544  1.00 21.39     0.044 C 
HETATM   29  C27 STQ I8621     -45.600 145.695  12.437  1.00 22.08    -0.016 C 
HETATM   30  C28 STQ I8621     -45.094 144.433  12.377  1.00 23.05     0.003 C 
HETATM   31  C29 STQ I8621     -44.333 143.844  11.264  1.00 22.55    -0.062 C 
HETATM   32  C30 STQ I8621     -43.865 142.583  11.395  1.00 20.56     0.007 C 
HETATM   33  C31 STQ I8621     -43.115 141.849  10.403  1.00 20.09     0.001 C 
HETATM   34  C32 STQ I8621     -42.516 140.666  10.674  1.00 17.50     0.007 C 
HETATM   35  C33 STQ I8621     -41.684 139.828   9.800  1.00 16.61    -0.062 C 
HETATM   36  C34 STQ I8621     -41.095 138.745  10.349  1.00 17.58     0.007 C 
HETATM   37  C35 STQ I8621     -40.192 137.827   9.697  1.00 19.85     0.001 C 
HETATM   38  C36 STQ I8621     -48.111 146.901  11.668  1.00 20.06     0.016 C 
HETATM   39  C37 STQ I8621     -48.708 144.988  13.152  1.00 21.16     0.016 C 
HETATM   40  C38 STQ I8621     -44.510 147.520  14.613  1.00 18.60     0.044 C 
HETATM   41  C39 STQ I8621     -44.062 144.712  10.068  1.00 24.32     0.048 C 
HETATM   42  C40 STQ I8621     -41.470 140.269   8.385  1.00 12.09     0.048 C 
HETATM   43  O23 STQ I8621     -48.835 149.089  15.615  1.00 19.68    -0.392 OA
ATOM     44  H23 STQ I8621     -49.772 149.164  15.477  1.00  0.00     0.210 HD
ENDROOT
TORSDOF 12
BEGIN_RES PHE A  61
REMARK  2 active torsions:
REMARK  status: ('A' for Active; 'I' for Inactive)
REMARK    1  A    between atoms: CA   and  CB  
REMARK    2  A    between atoms: CB   and  CG  
ROOT
ATOM      1  CA  PHE A  61     -36.237 128.293  12.768  1.00 39.40     0.164 C 
ENDROOT
BRANCH   1   2
ATOM      2  CB  PHE A  61     -36.813 128.951  11.509  1.00 39.41     0.058 C 
BRANCH   2   3
ATOM      3  CG  PHE A  61     -37.015 128.007  10.348  1.00 39.01    -0.020 A 
ATOM      4  CD2 PHE A  61     -36.233 126.871  10.210  1.00 40.32    -0.004 A 
ATOM      5  CE2 PHE A  61     -36.418 126.005   9.140  1.00 40.20    -0.000 A 
ATOM      6  CZ  PHE A  61     -37.389 126.262   8.199  1.00 40.34    -0.000 A 
ATOM      7  CE1 PHE A  61     -38.177 127.385   8.323  1.00 41.51    -0.000 A 
ATOM      8  CD1 PHE A  61     -37.987 128.255   9.389  1.00 39.94    -0.004 A 
ENDBRANCH   2   3
ENDBRANCH   1   2
END_RES PHE A  61
BEGIN_RES VAL A 134
REMARK  1 active torsions:
REMARK  status: ('A' for Active; 'I' for Inactive)
REMARK    3  A    between atoms: CA   and  CB  
ROOT
ATOM      9  CA  VAL A 134     -29.766 132.051   9.815  1.00 40.75     0.159 C 
ENDROOT
BRANCH   9  10
ATOM     10  CB  VAL A 134     -30.864 132.765   9.009  1.00 40.76     0.029 C 
ATOM     11  CG1 VAL A 134     -31.178 131.999   7.732  1.00 41.76     0.002 C 
ATOM     12  CG2 VAL A 134     -32.122 132.974   9.837  1.00 40.56     0.002 C 
ENDBRANCH   9  10
END_RES VAL A 134
BEGIN_RES TYR A 338
REMARK  3 active torsions:
REMARK  status: ('A' for Active; 'I' for Inactive)
REMARK    4  A    between atoms: CA   and  CB  
REMARK    5  A    between atoms: CB   and  CG  
REMARK    6  A    between atoms: CZ   and  OH  
ROOT
ATOM     13  CA  TYR A 338     -41.631 124.950   6.058  1.00 38.23     0.164 C 
ENDROOT
BRANCH  13  14
ATOM     14  CB  TYR A 338     -41.621 126.456   6.339  1.00 39.15     0.058 C 
BRANCH  14  15
ATOM     15  CG  TYR A 338     -40.438 127.218   5.789  1.00 39.03    -0.020 A 
ATOM     16  CD2 TYR A 338     -40.245 128.549   6.120  1.00 40.65    -0.002 A 
ATOM     17  CE2 TYR A 338     -39.180 129.282   5.622  1.00 40.91     0.024 A 
ATOM     18  CZ  TYR A 338     -38.275 128.684   4.765  1.00 42.33     0.089 A 
ATOM     19  CE1 TYR A 338     -38.444 127.354   4.423  1.00 40.63     0.024 A 
ATOM     20  CD1 TYR A 338     -39.523 126.641   4.922  1.00 39.27    -0.002 A 
BRANCH  18  21
ATOM     21  OH  TYR A 338     -37.219 129.396   4.271  1.00 43.36    -0.359 OA
ATOM     22  HH  TYR A 338     -37.291 130.335   4.141  1.00  0.00     0.217 HD
ENDBRANCH  18  21
ENDBRANCH  14  15
ENDBRANCH  13  14
END_RES TYR A 338
ENDMDL
MODEL 3
REMARK VINA RESULT:    -7.832      1.342     17.263
REMARK INTER + INTRA:          -8.316
REMARK INTER:                  -7.893
REMARK INTRA:                  -0.423
REMARK UNBOUND:                -0.484
REMARK  0 active torsions:
REMARK  status: ('A' for Active; 'I' for Inactive)
REMARK       I    between atoms: C3_3  and  O3_21 
REMARK       I    between atoms: C6_6  and  C7_7 
REMARK       I    between atoms: C8_8  and  C9_9 
REMARK       I    between atoms: C10_10  and  C11_11 
REMARK       I    between atoms: C12_12  and  C13_13 
REMARK       I    between atoms: C14_14  and  C15_15 
REMARK       I    between atoms: C23_25  and  O23_43 
REMARK       I    between atoms: C26_28  and  C27_29 
REMARK       I    between atoms: C28_30  and  C29_31 
REMARK       I    between atoms: C30_32  and  C31_33 
REMARK       I    between atoms: C32_34  and  C33_35 
REMARK       I    between atoms: C34_36  and  C35_37 
ROOT
HETATM    1  C1  STQ I8621     -50.210 146.319  12.148  1.00 22.25    -0.018 C 
HETATM    2  C2  STQ I8621     -51.133 146.729  13.306  1.00 20.45     0.045 C 
HETATM    3  C3  STQ I8621     -50.630 147.681  14.387  1.00 22.17     0.123 C 
HETATM    4  C4  STQ I8621     -49.322 148.421  14.069  1.00 20.30     0.066 C 
HETATM    5  C5  STQ I8621     -48.405 147.920  13.004  1.00 20.75    -0.074 C 
HETATM    6  C6  STQ I8621     -48.779 146.953  12.094  1.00 21.23    -0.048 C 
HETATM    7  C7  STQ I8621     -47.919 146.427  11.011  1.00 18.62     0.009 C 
HETATM    8  C8  STQ I8621     -46.959 145.496  11.175  1.00 19.71     0.007 C 
HETATM    9  C9  STQ I8621     -46.054 144.934  10.168  1.00 18.91    -0.062 C 
HETATM   10  C10 STQ I8621     -45.260 143.908  10.544  1.00 16.97     0.007 C 
HETATM   11  C11 STQ I8621     -44.382 143.164   9.692  1.00 17.11     0.001 C 
HETATM   12  C12 STQ I8621     -43.703 142.092  10.128  1.00 17.32     0.007 C 
HETATM   13  C13 STQ I8621     -42.851 141.203   9.329  1.00 18.45    -0.062 C 
HETATM   14  C14 STQ I8621     -42.288 140.143   9.947  1.00 18.02     0.007 C 
HETATM   15  C15 STQ I8621     -41.483 139.124   9.345  1.00 17.18     0.001 C 
HETATM   16  C16 STQ I8621     -51.024 146.735  10.906  1.00 20.14     0.020 C 
HETATM   17  C17 STQ I8621     -50.124 144.768  12.169  1.00 21.86     0.020 C 
HETATM   18  C18 STQ I8621     -47.112 148.653  13.095  1.00 20.13     0.044 C 
HETATM   19  C19 STQ I8621     -46.133 145.478   8.770  1.00 18.10     0.048 C 
HETATM   20  C20 STQ I8621     -42.698 141.506   7.861  1.00 17.04     0.048 C 
HETATM   21  O3  STQ I8621     -51.652 148.606  14.740  1.00 24.42    -0.395 OA
ATOM     22  H3  STQ I8621     -51.339 149.199  15.412  1.00  0.00     0.210 HD
HETATM   23  C21 STQ I8621     -34.202 128.567   7.152  1.00 21.73    -0.035 C 
HETATM   24  C22 STQ I8621     -33.295 127.587   6.378  1.00 20.45     0.045 C 
HETATM   25  C23 STQ I8621     -31.791 127.864   6.434  1.00 19.75     0.142 C 
HETATM   26  C24 STQ I8621     -31.425 129.346   6.557  1.00 19.93     0.007 C 
HETATM   27  C25 STQ I8621     -32.327 130.315   6.839  1.00 21.71    -0.077 C 
HETATM   28  C26 STQ I8621     -33.821 130.084   7.068  1.00 21.39     0.044 C 
HETATM   29  C27 STQ I8621     -34.379 130.935   8.198  1.00 22.08    -0.016 C 
HETATM   30  C28 STQ I8621     -35.411 131.811   8.056  1.00 23.05     0.003 C 
HETATM   31  C29 STQ I8621     -36.095 132.546   9.132  1.00 22.55    -0.062 C 
HETATM   32  C30 STQ I8621     -37.075 133.415   8.802  1.00 20.56     0.007 C 
HETATM   33  C31 STQ I8621     -37.854 134.205   9.724  1.00 20.09     0.001 C 
HETATM   34  C32 STQ I8621     -38.685 135.193   9.315  1.00 17.50     0.007 C 
HETATM   35  C33 STQ I8621     -39.500 136.111  10.121  1.00 16.61    -0.062 C 
HETATM   36  C34 STQ I8621     -40.155 137.097   9.473  1.00 17.58     0.007 C 
HETATM   37  C35 STQ I8621     -40.953 138.142  10.068  1.00 19.85     0.001 C 
HETATM   38  C36 STQ I8621     -34.198 128.082   8.621  1.00 20.06     0.016 C 
HETATM   39  C37 STQ I8621     -35.632 128.375   6.602  1.00 21.16     0.016 C 
HETATM   40  C38 STQ I8621     -31.740 131.682   6.884  1.00 18.60     0.044 C 
HETATM   41  C39 STQ I8621     -35.609 132.335  10.537  1.00 24.32     0.048 C 
HETATM   42  C40 STQ I8621     -39.487 135.954  11.610  1.00 12.09     0.048 C 
HETATM   43  O23 STQ I8621     -31.157 127.285   5.304  1.00 19.68    -0.392 OA
ATOM     44  H23 STQ I8621     -31.383 126.366   5.227  1.00  0.00     0.210 HD
ENDROOT
TORSDOF 12
BEGIN_RES PHE A  61
REMARK  2 active torsions:
REMARK  status: ('A' for Active; 'I' for Inactive)
REMARK    1  A    between atoms: CA   and  CB  
REMARK    2  A    between atoms: CB   and  CG  
ROOT
ATOM      1  CA  PHE A  61     -36.237 128.293  12.768  1.00 39.40     0.164 C 
ENDROOT
BRANCH   1   2
ATOM      2  CB  PHE A  61     -36.813 128.951  11.509  1.00 39.41     0.058 C 
BRANCH   2   3
ATOM      3  CG  PHE A  61     -37.024 128.005  10.351  1.00 39.01    -0.020 A 
ATOM      4  CD2 PHE A  61     -36.269 126.848  10.231  1.00 40.32    -0.004 A 
ATOM      5  CE2 PHE A  61     -36.462 125.980   9.163  1.00 40.20    -0.000 A 
ATOM      6  CZ  PHE A  61     -37.413 126.257   8.207  1.00 40.34    -0.000 A 
ATOM      7  CE1 PHE A  61     -38.172 127.401   8.314  1.00 41.51    -0.000 A 
ATOM      8  CD1 PHE A  61     -37.975 128.272   9.377  1.00 39.94    -0.004 A 
ENDBRANCH   2   3
ENDBRANCH   1   2
END_RES PHE A  61
BEGIN_RES VAL A 134
REMARK  1 active torsions:
REMARK  status: ('A' for Active; 'I' for Inactive)
REMARK    3  A    between atoms: CA   and  CB  
ROOT
ATOM      9  CA  VAL A 134     -29.766 132.051   9.815  1.00 40.75     0.159 C 
ENDROOT
BRANCH   9  10
ATOM     10  CB  VAL A 134     -30.864 132.765   9.009  1.00 40.76     0.029 C 
ATOM     11  CG1 VAL A 134     -32.120 132.943   9.850  1.00 41.76     0.002 C 
ATOM     12  CG2 VAL A 134     -30.383 134.102   8.467  1.00 40.56     0.002 C 
ENDBRANCH   9  10
END_RES VAL A 134
BEGIN_RES TYR A 338
REMARK  3 active torsions:
REMARK  status: ('A' for Active; 'I' for Inactive)
REMARK    4  A    between atoms: CA   and  CB  
REMARK    5  A    between atoms: CB   and  CG  
REMARK    6  A    between atoms: CZ   and  OH  
ROOT
ATOM     13  CA  TYR A 338     -41.631 124.950   6.058  1.00 38.23     0.164 C 
ENDROOT
BRANCH  13  14
ATOM     14  CB  TYR A 338     -41.621 126.456   6.339  1.00 39.15     0.058 C 
BRANCH  14  15
ATOM     15  CG  TYR A 338     -40.421 127.213   5.818  1.00 39.03    -0.020 A 
ATOM     16  CD2 TYR A 338     -40.262 128.558   6.104  1.00 40.65    -0.002 A 
ATOM     17  CE2 TYR A 338     -39.183 129.287   5.629  1.00 40.91     0.024 A 
ATOM     18  CZ  TYR A 338     -38.228 128.667   4.846  1.00 42.33     0.089 A 
ATOM     19  CE1 TYR A 338     -38.362 127.322   4.550  1.00 40.63     0.024 A 
ATOM     20  CD1 TYR A 338     -39.456 126.614   5.023  1.00 39.27    -0.002 A 
BRANCH  18  21
ATOM     21  OH  TYR A 338     -37.157 129.375   4.376  1.00 43.36    -0.359 OA
ATOM     22  HH  TYR A 338     -36.272 129.117   4.607  1.00  0.00     0.217 HD
ENDBRANCH  18  21
ENDBRANCH  14  15
ENDBRANCH  13  14
END_RES TYR A 338
ENDMDL
