MODEL 1
REMARK VINA RESULT:    -9.430      0.000      0.000
REMARK INTER + INTRA:         -12.607
REMARK INTER:                  -9.430
REMARK INTRA:                  -3.177
REMARK UNBOUND:                -3.177
REMARK  0 active torsions:
REMARK  status: ('A' for Active; 'I' for Inactive)
REMARK       I    between atoms: C3_3  and  O3_21 
REMARK       I    between atoms: C6_6  and  C7_7 
REMARK       I    between atoms: C8_8  and  C9_9 
REMARK       I    between atoms: C10_10  and  C11_11 
REMARK       I    between atoms: C12_12  and  C13_13 
REMARK       I    between atoms: C14_14  and  C15_15 
REMARK       I    between atoms: C23_25  and  O23_43 
REMARK       I    between atoms: C26_28  and  C27_29 
REMARK       I    between atoms: C28_30  and  C29_31 
REMARK       I    between atoms: C30_32  and  C31_33 
REMARK       I    between atoms: C32_34  and  C33_35 
REMARK       I    between atoms: C34_36  and  C35_37 
ROOT
HETATM    1  C1  STQ 21621     -34.484 126.959   6.218  1.00 90.34    -0.018 C 
HETATM    2  C2  STQ 21621     -34.111 126.333   4.878  1.00 90.34     0.045 C 
HETATM    3  C3  STQ 21621     -32.947 126.938   4.111  1.00 90.34     0.123 C 
HETATM    4  C4  STQ 21621     -31.893 127.493   5.048  1.00 90.34     0.066 C 
HETATM    5  C5  STQ 21621     -32.562 128.490   5.947  1.00 90.34    -0.074 C 
HETATM    6  C6  STQ 21621     -33.662 128.164   6.623  1.00 90.34    -0.048 C 
HETATM    7  C7  STQ 21621     -34.113 128.948   7.800  1.00 90.34     0.009 C 
HETATM    8  C8  STQ 21621     -34.784 130.092   7.648  1.00 90.34     0.007 C 
HETATM    9  C9  STQ 21621     -35.291 130.912   8.756  1.00 90.34    -0.062 C 
HETATM   10  C10 STQ 21621     -36.195 131.832   8.421  1.00 90.34     0.007 C 
HETATM   11  C11 STQ 21621     -36.881 132.756   9.308  1.00 90.34     0.001 C 
HETATM   12  C12 STQ 21621     -37.731 133.571   8.690  1.00 90.34     0.007 C 
HETATM   13  C13 STQ 21621     -38.547 134.553   9.413  1.00 90.34    -0.062 C 
HETATM   14  C14 STQ 21621     -39.404 135.305   8.715  1.00 90.34     0.007 C 
HETATM   15  C15 STQ 21621     -40.274 136.272   9.370  1.00 90.34     0.001 C 
HETATM   16  C16 STQ 21621     -34.385 125.850   7.259  1.00 90.34     0.020 C 
HETATM   17  C17 STQ 21621     -35.922 127.431   6.132  1.00 90.34     0.020 C 
HETATM   18  C18 STQ 21621     -31.512 129.383   6.529  1.00 90.34     0.044 C 
HETATM   19  C19 STQ 21621     -34.832 130.720  10.168  1.00 90.34     0.048 C 
HETATM   20  C20 STQ 21621     -38.432 134.689  10.900  1.00 90.34     0.048 C 
HETATM   21  O3  STQ 21621     -32.350 125.907   3.326  1.00 90.34    -0.395 OA
ATOM     22  H3  STQ 21621     -31.623 126.285   2.846  1.00  0.00     0.210 HD
HETATM   23  C21 STQ 21621     -50.023 144.422  10.861  1.00 90.34    -0.035 C 
HETATM   24  C22 STQ 21621     -50.891 145.272  11.763  1.00 90.34     0.045 C 
HETATM   25  C23 STQ 21621     -50.415 146.703  11.877  1.00 90.34     0.142 C 
HETATM   26  C24 STQ 21621     -48.941 146.734  12.173  1.00 90.34     0.007 C 
HETATM   27  C25 STQ 21621     -48.094 145.795  11.739  1.00 90.34    -0.077 C 
HETATM   28  C26 STQ 21621     -48.555 144.437  11.300  1.00 90.34     0.044 C 
HETATM   29  C27 STQ 21621     -47.678 143.909  10.184  1.00 90.34    -0.016 C 
HETATM   30  C28 STQ 21621     -47.047 142.756  10.368  1.00 90.34     0.003 C 
HETATM   31  C29 STQ 21621     -46.196 142.136   9.342  1.00 90.34    -0.062 C 
HETATM   32  C30 STQ 21621     -45.730 140.924   9.633  1.00 90.34     0.007 C 
HETATM   33  C31 STQ 21621     -44.892 140.113   8.762  1.00 90.34     0.001 C 
HETATM   34  C32 STQ 21621     -43.967 139.375   9.363  1.00 90.34     0.007 C 
HETATM   35  C33 STQ 21621     -43.067 138.481   8.626  1.00 90.34    -0.062 C 
HETATM   36  C34 STQ 21621     -42.079 137.866   9.293  1.00 90.34     0.007 C 
HETATM   37  C35 STQ 21621     -41.170 136.931   8.641  1.00 90.34     0.001 C 
HETATM   38  C36 STQ 21621     -50.201 144.880   9.420  1.00 90.34     0.016 C 
HETATM   39  C37 STQ 21621     -50.571 143.008  10.964  1.00 90.34     0.016 C 
HETATM   40  C38 STQ 21621     -46.632 146.112  11.706  1.00 90.34     0.044 C 
HETATM   41  C39 STQ 21621     -45.891 142.813   8.041  1.00 90.34     0.048 C 
HETATM   42  C40 STQ 21621     -43.288 138.257   7.165  1.00 90.34     0.048 C 
HETATM   43  O23 STQ 21621     -51.127 147.292  12.964  1.00 90.34    -0.392 OA
ATOM     44  H23 STQ 21621     -52.059 147.272  12.777  1.00  0.00     0.210 HD
ENDROOT
TORSDOF 12
BEGIN_RES PHE A  61
REMARK  2 active torsions:
REMARK  status: ('A' for Active; 'I' for Inactive)
REMARK    1  A    between atoms: CA   and  CB  
REMARK    2  A    between atoms: CB   and  CG  
ROOT
ATOM      1  CA  PHE A  61     -36.237 128.293  12.768  1.00 39.40     0.164 C 
ENDROOT
BRANCH   1   2
ATOM      2  CB  PHE A  61     -36.813 128.951  11.509  1.00 39.41     0.058 C 
BRANCH   2   3
ATOM      3  CG  PHE A  61     -37.035 128.003  10.355  1.00 39.01    -0.020 A 
ATOM      4  CD2 PHE A  61     -36.275 126.851  10.224  1.00 40.32    -0.004 A 
ATOM      5  CE2 PHE A  61     -36.478 125.981   9.160  1.00 40.20    -0.000 A 
ATOM      6  CZ  PHE A  61     -37.445 126.250   8.219  1.00 40.34    -0.000 A 
ATOM      7  CE1 PHE A  61     -38.211 127.389   8.336  1.00 41.51    -0.000 A 
ATOM      8  CD1 PHE A  61     -38.003 128.263   9.396  1.00 39.94    -0.004 A 
ENDBRANCH   2   3
ENDBRANCH   1   2
END_RES PHE A  61
BEGIN_RES VAL A 134
REMARK  1 active torsions:
REMARK  status: ('A' for Active; 'I' for Inactive)
REMARK    3  A    between atoms: CA   and  CB  
ROOT
ATOM      9  CA  VAL A 134     -29.766 132.051   9.815  1.00 40.75     0.159 C 
ENDROOT
BRANCH   9  10
ATOM     10  CB  VAL A 134     -30.864 132.765   9.009  1.00 40.76     0.029 C 
ATOM     11  CG1 VAL A 134     -31.179 131.999   7.733  1.00 41.76     0.002 C 
ATOM     12  CG2 VAL A 134     -32.122 132.975   9.838  1.00 40.56     0.002 C 
ENDBRANCH   9  10
END_RES VAL A 134
BEGIN_RES TYR A 338
REMARK  3 active torsions:
REMARK  status: ('A' for Active; 'I' for Inactive)
REMARK    4  A    between atoms: CA   and  CB  
REMARK    5  A    between atoms: CB   and  CG  
REMARK    6  A    between atoms: CZ   and  OH  
ROOT
ATOM     13  CA  TYR A 338     -41.631 124.950   6.058  1.00 38.23     0.164 C 
ENDROOT
BRANCH  13  14
ATOM     14  CB  TYR A 338     -41.621 126.456   6.339  1.00 39.15     0.058 C 
BRANCH  14  15
ATOM     15  CG  TYR A 338     -40.424 127.214   5.813  1.00 39.03    -0.020 A 
ATOM     16  CD2 TYR A 338     -40.250 128.552   6.122  1.00 40.65    -0.002 A 
ATOM     17  CE2 TYR A 338     -39.172 129.281   5.645  1.00 40.91     0.024 A 
ATOM     18  CZ  TYR A 338     -38.235 128.670   4.833  1.00 42.33     0.089 A 
ATOM     19  CE1 TYR A 338     -38.384 127.332   4.514  1.00 40.63     0.024 A 
ATOM     20  CD1 TYR A 338     -39.476 126.623   4.991  1.00 39.27    -0.002 A 
BRANCH  18  21
ATOM     21  OH  TYR A 338     -37.166 129.378   4.360  1.00 43.36    -0.359 OA
ATOM     22  HH  TYR A 338     -36.881 130.170   4.802  1.00  0.00     0.217 HD
ENDBRANCH  18  21
ENDBRANCH  14  15
ENDBRANCH  13  14
END_RES TYR A 338
ENDMDL
MODEL 2
REMARK VINA RESULT:    -7.016      1.645     16.909
REMARK INTER + INTRA:         -10.193
REMARK INTER:                  -9.778
REMARK INTRA:                  -0.415
REMARK UNBOUND:                -3.177
REMARK  0 active torsions:
REMARK  status: ('A' for Active; 'I' for Inactive)
REMARK       I    between atoms: C3_3  and  O3_21 
REMARK       I    between atoms: C6_6  and  C7_7 
REMARK       I    between atoms: C8_8  and  C9_9 
REMARK       I    between atoms: C10_10  and  C11_11 
REMARK       I    between atoms: C12_12  and  C13_13 
REMARK       I    between atoms: C14_14  and  C15_15 
REMARK       I    between atoms: C23_25  and  O23_43 
REMARK       I    between atoms: C26_28  and  C27_29 
REMARK       I    between atoms: C28_30  and  C29_31 
REMARK       I    between atoms: C30_32  and  C31_33 
REMARK       I    between atoms: C32_34  and  C33_35 
REMARK       I    between atoms: C34_36  and  C35_37 
ROOT
HETATM    1  C1  STQ 21621     -49.354 145.727  13.068  1.00 90.34    -0.018 C 
HETATM    2  C2  STQ 21621     -50.069 145.959  14.396  1.00 90.34     0.045 C 
HETATM    3  C3  STQ 21621     -49.380 146.836  15.429  1.00 90.34     0.123 C 
HETATM    4  C4  STQ 21621     -48.552 147.922  14.773  1.00 90.34     0.066 C 
HETATM    5  C5  STQ 21621     -47.576 147.256  13.849  1.00 90.34    -0.074 C 
HETATM    6  C6  STQ 21621     -47.992 146.375  12.942  1.00 90.34    -0.048 C 
HETATM    7  C7  STQ 21621     -47.155 146.009  11.772  1.00 90.34     0.009 C 
HETATM    8  C8  STQ 21621     -46.161 145.124  11.888  1.00 90.34     0.007 C 
HETATM    9  C9  STQ 21621     -45.306 144.686  10.777  1.00 90.34    -0.062 C 
HETATM   10  C10 STQ 21621     -44.592 143.583  11.004  1.00 90.34     0.007 C 
HETATM   11  C11 STQ 21621     -43.691 142.912  10.083  1.00 90.34     0.001 C 
HETATM   12  C12 STQ 21621     -43.106 141.830  10.588  1.00 90.34     0.007 C 
HETATM   13  C13 STQ 21621     -42.189 140.993   9.806  1.00 90.34    -0.062 C 
HETATM   14  C14 STQ 21621     -41.676 139.902  10.382  1.00 90.34     0.007 C 
HETATM   15  C15 STQ 21621     -40.790 139.003   9.655  1.00 90.34     0.001 C 
HETATM   16  C16 STQ 21621     -50.298 146.214  11.975  1.00 90.34     0.020 C 
HETATM   17  C17 STQ 21621     -49.135 144.236  12.907  1.00 90.34     0.020 C 
HETATM   18  C18 STQ 21621     -46.461 148.214  13.569  1.00 90.34     0.044 C 
HETATM   19  C19 STQ 21621     -45.249 145.419   9.473  1.00 90.34     0.048 C 
HETATM   20  C20 STQ 21621     -41.858 141.348   8.390  1.00 90.34     0.048 C 
HETATM   21  O3  STQ 21621     -50.389 147.458  16.224  1.00 90.34    -0.395 OA
ATOM     22  H3  STQ 21621     -49.958 148.005  16.870  1.00  0.00     0.210 HD
HETATM   23  C21 STQ 21621     -34.210 128.365   6.973  1.00 90.34    -0.035 C 
HETATM   24  C22 STQ 21621     -33.408 127.534   5.994  1.00 90.34     0.045 C 
HETATM   25  C23 STQ 21621     -31.917 127.754   6.103  1.00 90.34     0.142 C 
HETATM   26  C24 STQ 21621     -31.611 129.226   6.110  1.00 90.34     0.007 C 
HETATM   27  C25 STQ 21621     -32.446 130.137   6.620  1.00 90.34    -0.077 C 
HETATM   28  C26 STQ 21621     -33.903 129.860   6.837  1.00 90.34     0.044 C 
HETATM   29  C27 STQ 21621     -34.414 130.602   8.056  1.00 90.34    -0.016 C 
HETATM   30  C28 STQ 21621     -35.418 131.456   7.901  1.00 90.34     0.003 C 
HETATM   31  C29 STQ 21621     -36.012 132.205   9.017  1.00 90.34    -0.062 C 
HETATM   32  C30 STQ 21621     -37.088 132.930   8.719  1.00 90.34     0.007 C 
HETATM   33  C31 STQ 21621     -37.851 133.729   9.665  1.00 90.34     0.001 C 
HETATM   34  C32 STQ 21621     -38.352 134.867   9.198  1.00 90.34     0.007 C 
HETATM   35  C33 STQ 21621     -39.171 135.767  10.018  1.00 90.34    -0.062 C 
HETATM   36  C34 STQ 21621     -39.532 136.954   9.511  1.00 90.34     0.007 C 
HETATM   37  C35 STQ 21621     -40.379 137.885  10.246  1.00 90.34     0.001 C 
HETATM   38  C36 STQ 21621     -33.964 127.848   8.384  1.00 90.34     0.016 C 
HETATM   39  C37 STQ 21621     -35.671 128.112   6.639  1.00 90.34     0.016 C 
HETATM   40  C38 STQ 21621     -31.903 131.486   6.971  1.00 90.34     0.044 C 
HETATM   41  C39 STQ 21621     -35.457 132.141  10.406  1.00 90.34     0.048 C 
HETATM   42  C40 STQ 21621     -39.603 135.330  11.381  1.00 90.34     0.048 C 
HETATM   43  O23 STQ 21621     -31.323 127.154   4.951  1.00 90.34    -0.392 OA
ATOM     44  H23 STQ 21621     -31.517 126.224   4.947  1.00  0.00     0.210 HD
ENDROOT
TORSDOF 12
BEGIN_RES PHE A  61
REMARK  2 active torsions:
REMARK  status: ('A' for Active; 'I' for Inactive)
REMARK    1  A    between atoms: CA   and  CB  
REMARK    2  A    between atoms: CB   and  CG  
ROOT
ATOM      1  CA  PHE A  61     -36.237 128.293  12.768  1.00 39.40     0.164 C 
ENDROOT
BRANCH   1   2
ATOM      2  CB  PHE A  61     -36.813 128.951  11.509  1.00 39.41     0.058 C 
BRANCH   2   3
ATOM      3  CG  PHE A  61     -37.022 128.005  10.351  1.00 39.01    -0.020 A 
ATOM      4  CD2 PHE A  61     -36.255 126.858  10.221  1.00 40.32    -0.004 A 
ATOM      5  CE2 PHE A  61     -36.446 125.990   9.153  1.00 40.20    -0.000 A 
ATOM      6  CZ  PHE A  61     -37.408 126.258   8.206  1.00 40.34    -0.000 A 
ATOM      7  CE1 PHE A  61     -38.180 127.393   8.321  1.00 41.51    -0.000 A 
ATOM      8  CD1 PHE A  61     -37.984 128.264   9.385  1.00 39.94    -0.004 A 
ENDBRANCH   2   3
ENDBRANCH   1   2
END_RES PHE A  61
BEGIN_RES VAL A 134
REMARK  1 active torsions:
REMARK  status: ('A' for Active; 'I' for Inactive)
REMARK    3  A    between atoms: CA   and  CB  
ROOT
ATOM      9  CA  VAL A 134     -29.766 132.051   9.815  1.00 40.75     0.159 C 
ENDROOT
BRANCH   9  10
ATOM     10  CB  VAL A 134     -30.864 132.765   9.009  1.00 40.76     0.029 C 
ATOM     11  CG1 VAL A 134     -32.122 132.936   9.848  1.00 41.76     0.002 C 
ATOM     12  CG2 VAL A 134     -30.385 134.106   8.473  1.00 40.56     0.002 C 
ENDBRANCH   9  10
END_RES VAL A 134
BEGIN_RES TYR A 338
REMARK  3 active torsions:
REMARK  status: ('A' for Active; 'I' for Inactive)
REMARK    4  A    between atoms: CA   and  CB  
REMARK    5  A    between atoms: CB   and  CG  
REMARK    6  A    between atoms: CZ   and  OH  
ROOT
ATOM     13  CA  TYR A 338     -41.631 124.950   6.058  1.00 38.23     0.164 C 
ENDROOT
BRANCH  13  14
ATOM     14  CB  TYR A 338     -41.621 126.456   6.339  1.00 39.15     0.058 C 
BRANCH  14  15
ATOM     15  CG  TYR A 338     -40.424 127.214   5.812  1.00 39.03    -0.020 A 
ATOM     16  CD2 TYR A 338     -40.260 128.557   6.106  1.00 40.65    -0.002 A 
ATOM     17  CE2 TYR A 338     -39.183 129.287   5.626  1.00 40.91     0.024 A 
ATOM     18  CZ  TYR A 338     -38.237 128.670   4.829  1.00 42.33     0.089 A 
ATOM     19  CE1 TYR A 338     -38.376 127.327   4.526  1.00 40.63     0.024 A 
ATOM     20  CD1 TYR A 338     -39.468 126.619   5.004  1.00 39.27    -0.002 A 
BRANCH  18  21
ATOM     21  OH  TYR A 338     -37.169 129.379   4.355  1.00 43.36    -0.359 OA
ATOM     22  HH  TYR A 338     -37.295 130.238   3.969  1.00  0.00     0.217 HD
ENDBRANCH  18  21
ENDBRANCH  14  15
ENDBRANCH  13  14
END_RES TYR A 338
ENDMDL
