MODEL 1
REMARK VINA RESULT:   -11.087      0.000      0.000
REMARK INTER + INTRA:         -13.820
REMARK INTER:                 -11.087
REMARK INTRA:                  -2.733
REMARK UNBOUND:                -2.733
REMARK  0 active torsions:
REMARK  status: ('A' for Active; 'I' for Inactive)
REMARK       I    between atoms: C3_3  and  O3_21 
REMARK       I    between atoms: C6_6  and  C7_7 
REMARK       I    between atoms: C8_8  and  C9_9 
REMARK       I    between atoms: C10_10  and  C11_11 
REMARK       I    between atoms: C12_12  and  C13_13 
REMARK       I    between atoms: C14_14  and  C15_15 
REMARK       I    between atoms: C23_25  and  O23_43 
REMARK       I    between atoms: C26_28  and  C27_29 
REMARK       I    between atoms: C28_30  and  C29_31 
REMARK       I    between atoms: C30_32  and  C31_33 
REMARK       I    between atoms: C32_34  and  C33_35 
REMARK       I    between atoms: C34_36  and  C35_37 
ROOT
HETATM    1  C1  STQ 1 617     -34.391 127.433   6.465  1.00 21.49    -0.018 C 
HETATM    2  C2  STQ 1 617     -33.886 127.090   5.068  1.00 21.49     0.045 C 
HETATM    3  C3  STQ 1 617     -32.585 127.729   4.610  1.00 21.49     0.123 C 
HETATM    4  C4  STQ 1 617     -31.602 127.894   5.747  1.00 21.49     0.066 C 
HETATM    5  C5  STQ 1 617     -32.246 128.643   6.879  1.00 21.49    -0.074 C 
HETATM    6  C6  STQ 1 617     -33.525 128.430   7.220  1.00 21.49    -0.048 C 
HETATM    7  C7  STQ 1 617     -34.116 129.168   8.368  1.00 21.49     0.009 C 
HETATM    8  C8  STQ 1 617     -34.796 130.301   8.194  1.00 21.49     0.007 C 
HETATM    9  C9  STQ 1 617     -35.398 131.069   9.295  1.00 21.49    -0.062 C 
HETATM   10  C10 STQ 1 617     -36.140 132.122   8.938  1.00 21.49     0.007 C 
HETATM   11  C11 STQ 1 617     -36.845 133.032   9.831  1.00 21.49     0.001 C 
HETATM   12  C12 STQ 1 617     -37.503 133.974   9.172  1.00 21.49     0.007 C 
HETATM   13  C13 STQ 1 617     -38.337 135.022   9.772  1.00 21.49    -0.062 C 
HETATM   14  C14 STQ 1 617     -39.084 135.737   8.927  1.00 21.49     0.007 C 
HETATM   15  C15 STQ 1 617     -39.993 136.783   9.368  1.00 21.49     0.001 C 
HETATM   16  C16 STQ 1 617     -34.522 126.111   7.219  1.00 21.49     0.020 C 
HETATM   17  C17 STQ 1 617     -35.774 128.048   6.314  1.00 21.49     0.020 C 
HETATM   18  C18 STQ 1 617     -31.369 129.604   7.629  1.00 21.49     0.044 C 
HETATM   19  C19 STQ 1 617     -35.165 130.695  10.725  1.00 21.49     0.048 C 
HETATM   20  C20 STQ 1 617     -38.369 135.267  11.249  1.00 21.49     0.048 C 
HETATM   21  O3  STQ 1 617     -31.989 126.870   3.634  1.00 21.49    -0.395 OA
ATOM     22  H3  STQ 1 617     -31.176 127.269   3.348  1.00  0.00     0.210 HD
HETATM   23  C21 STQ 1 617     -49.656 144.999   9.206  1.00 21.49    -0.035 C 
HETATM   24  C22 STQ 1 617     -50.556 145.742  10.188  1.00 21.49     0.045 C 
HETATM   25  C23 STQ 1 617     -50.090 147.132  10.609  1.00 21.49     0.142 C 
HETATM   26  C24 STQ 1 617     -48.586 147.290  10.622  1.00 21.49     0.007 C 
HETATM   27  C25 STQ 1 617     -47.781 146.484   9.920  1.00 21.49    -0.077 C 
HETATM   28  C26 STQ 1 617     -48.195 145.065   9.652  1.00 21.49     0.044 C 
HETATM   29  C27 STQ 1 617     -47.329 144.398   8.610  1.00 21.49    -0.016 C 
HETATM   30  C28 STQ 1 617     -46.509 143.436   9.007  1.00 21.49     0.003 C 
HETATM   31  C29 STQ 1 617     -45.654 142.716   8.057  1.00 21.49    -0.062 C 
HETATM   32  C30 STQ 1 617     -45.090 141.602   8.514  1.00 21.49     0.007 C 
HETATM   33  C31 STQ 1 617     -44.231 140.736   7.727  1.00 21.49     0.001 C 
HETATM   34  C32 STQ 1 617     -43.460 139.956   8.466  1.00 21.49     0.007 C 
HETATM   35  C33 STQ 1 617     -42.506 138.976   7.941  1.00 21.49    -0.062 C 
HETATM   36  C34 STQ 1 617     -41.765 138.317   8.838  1.00 21.49     0.007 C 
HETATM   37  C35 STQ 1 617     -40.807 137.297   8.454  1.00 21.49     0.001 C 
HETATM   38  C36 STQ 1 617     -49.834 145.540   7.790  1.00 21.49     0.016 C 
HETATM   39  C37 STQ 1 617     -50.101 143.543   9.199  1.00 21.49     0.016 C 
HETATM   40  C38 STQ 1 617     -46.477 147.022   9.416  1.00 21.49     0.044 C 
HETATM   41  C39 STQ 1 617     -45.441 143.198   6.655  1.00 21.49     0.048 C 
HETATM   42  C40 STQ 1 617     -42.390 138.728   6.471  1.00 21.49     0.048 C 
HETATM   43  O23 STQ 1 617     -50.590 147.393  11.922  1.00 21.49    -0.392 OA
ATOM     44  H23 STQ 1 617     -50.300 148.259  12.184  1.00  0.00     0.210 HD
ENDROOT
TORSDOF 12
BEGIN_RES PHE A  61
REMARK  2 active torsions:
REMARK  status: ('A' for Active; 'I' for Inactive)
REMARK    1  A    between atoms: CA   and  CB  
REMARK    2  A    between atoms: CB   and  CG  
ROOT
ATOM      1  CA  PHE A  61     -36.237 128.293  12.768  1.00 39.40     0.164 C 
ENDROOT
BRANCH   1   2
ATOM      2  CB  PHE A  61     -36.813 128.951  11.509  1.00 39.41     0.058 C 
BRANCH   2   3
ATOM      3  CG  PHE A  61     -37.049 128.000  10.360  1.00 39.01    -0.020 A 
ATOM      4  CD2 PHE A  61     -36.310 126.834  10.239  1.00 40.32    -0.004 A 
ATOM      5  CE2 PHE A  61     -36.525 125.961   9.179  1.00 40.20    -0.000 A 
ATOM      6  CZ  PHE A  61     -37.484 126.243   8.232  1.00 40.34    -0.000 A 
ATOM      7  CE1 PHE A  61     -38.228 127.397   8.340  1.00 41.51    -0.000 A 
ATOM      8  CD1 PHE A  61     -38.008 128.273   9.395  1.00 39.94    -0.004 A 
ENDBRANCH   2   3
ENDBRANCH   1   2
END_RES PHE A  61
BEGIN_RES VAL A 134
REMARK  1 active torsions:
REMARK  status: ('A' for Active; 'I' for Inactive)
REMARK    3  A    between atoms: CA   and  CB  
ROOT
ATOM      9  CA  VAL A 134     -29.766 132.051   9.815  1.00 40.75     0.159 C 
ENDROOT
BRANCH   9  10
ATOM     10  CB  VAL A 134     -30.864 132.765   9.009  1.00 40.76     0.029 C 
ATOM     11  CG1 VAL A 134     -30.900 132.253   7.577  1.00 41.76     0.002 C 
ATOM     12  CG2 VAL A 134     -32.227 132.622   9.668  1.00 40.56     0.002 C 
ENDBRANCH   9  10
END_RES VAL A 134
BEGIN_RES TYR A 338
REMARK  3 active torsions:
REMARK  status: ('A' for Active; 'I' for Inactive)
REMARK    4  A    between atoms: CA   and  CB  
REMARK    5  A    between atoms: CB   and  CG  
REMARK    6  A    between atoms: CZ   and  OH  
ROOT
ATOM     13  CA  TYR A 338     -41.631 124.950   6.058  1.00 38.23     0.164 C 
ENDROOT
BRANCH  13  14
ATOM     14  CB  TYR A 338     -41.621 126.456   6.339  1.00 39.15     0.058 C 
BRANCH  14  15
ATOM     15  CG  TYR A 338     -40.426 127.215   5.808  1.00 39.03    -0.020 A 
ATOM     16  CD2 TYR A 338     -40.268 128.560   6.092  1.00 40.65    -0.002 A 
ATOM     17  CE2 TYR A 338     -39.193 129.291   5.609  1.00 40.91     0.024 A 
ATOM     18  CZ  TYR A 338     -38.244 128.672   4.818  1.00 42.33     0.089 A 
ATOM     19  CE1 TYR A 338     -38.377 127.327   4.524  1.00 40.63     0.024 A 
ATOM     20  CD1 TYR A 338     -39.467 126.617   5.006  1.00 39.27    -0.002 A 
BRANCH  18  21
ATOM     21  OH  TYR A 338     -37.177 129.381   4.340  1.00 43.36    -0.359 OA
ATOM     22  HH  TYR A 338     -37.314 130.131   3.772  1.00  0.00     0.217 HD
ENDBRANCH  18  21
ENDBRANCH  14  15
ENDBRANCH  13  14
END_RES TYR A 338
ENDMDL
MODEL 2
REMARK VINA RESULT:    -9.392      1.584     16.600
REMARK INTER + INTRA:         -12.124
REMARK INTER:                 -11.774
REMARK INTRA:                  -0.350
REMARK UNBOUND:                -2.733
REMARK  0 active torsions:
REMARK  status: ('A' for Active; 'I' for Inactive)
REMARK       I    between atoms: C3_3  and  O3_21 
REMARK       I    between atoms: C6_6  and  C7_7 
REMARK       I    between atoms: C8_8  and  C9_9 
REMARK       I    between atoms: C10_10  and  C11_11 
REMARK       I    between atoms: C12_12  and  C13_13 
REMARK       I    between atoms: C14_14  and  C15_15 
REMARK       I    between atoms: C23_25  and  O23_43 
REMARK       I    between atoms: C26_28  and  C27_29 
REMARK       I    between atoms: C28_30  and  C29_31 
REMARK       I    between atoms: C30_32  and  C31_33 
REMARK       I    between atoms: C32_34  and  C33_35 
REMARK       I    between atoms: C34_36  and  C35_37 
ROOT
HETATM    1  C1  STQ 1 617     -49.719 144.922  12.118  1.00 21.49    -0.018 C 
HETATM    2  C2  STQ 1 617     -50.305 144.999  13.524  1.00 21.49     0.045 C 
HETATM    3  C3  STQ 1 617     -49.625 145.922  14.523  1.00 21.49     0.123 C 
HETATM    4  C4  STQ 1 617     -49.079 147.168  13.864  1.00 21.49     0.066 C 
HETATM    5  C5  STQ 1 617     -48.181 146.795  12.719  1.00 21.49    -0.074 C 
HETATM    6  C6  STQ 1 617     -48.474 145.768  11.908  1.00 21.49    -0.048 C 
HETATM    7  C7  STQ 1 617     -47.575 145.450  10.765  1.00 21.49     0.009 C 
HETATM    8  C8  STQ 1 617     -46.609 144.537  10.870  1.00 21.49     0.007 C 
HETATM    9  C9  STQ 1 617     -45.695 144.187   9.773  1.00 21.49    -0.062 C 
HETATM   10  C10 STQ 1 617     -44.856 143.174  10.009  1.00 21.49     0.007 C 
HETATM   11  C11 STQ 1 617     -43.865 142.632   9.089  1.00 21.49     0.001 C 
HETATM   12  C12 STQ 1 617     -43.192 141.619   9.613  1.00 21.49     0.007 C 
HETATM   13  C13 STQ 1 617     -42.151 140.835   8.938  1.00 21.49    -0.062 C 
HETATM   14  C14 STQ 1 617     -41.750 139.725   9.563  1.00 21.49     0.007 C 
HETATM   15  C15 STQ 1 617     -40.758 138.820   9.007  1.00 21.49     0.001 C 
HETATM   16  C16 STQ 1 617     -50.840 145.313  11.156  1.00 21.49     0.020 C 
HETATM   17  C17 STQ 1 617     -49.339 143.472  11.860  1.00 21.49     0.020 C 
HETATM   18  C18 STQ 1 617     -46.969 147.656  12.511  1.00 21.49     0.044 C 
HETATM   19  C19 STQ 1 617     -45.699 144.946   8.482  1.00 21.49     0.048 C 
HETATM   20  C20 STQ 1 617     -41.581 141.240   7.614  1.00 21.49     0.048 C 
HETATM   21  O3  STQ 1 617     -50.600 146.326  15.489  1.00 21.49    -0.395 OA
ATOM     22  H3  STQ 1 617     -50.175 146.902  16.112  1.00  0.00     0.210 HD
HETATM   23  C21 STQ 1 617     -34.114 128.193   7.044  1.00 21.49    -0.035 C 
HETATM   24  C22 STQ 1 617     -33.289 127.534   5.943  1.00 21.49     0.045 C 
HETATM   25  C23 STQ 1 617     -31.792 127.823   5.960  1.00 21.49     0.142 C 
HETATM   26  C24 STQ 1 617     -31.443 129.184   6.519  1.00 21.49     0.007 C 
HETATM   27  C25 STQ 1 617     -32.277 129.859   7.318  1.00 21.49    -0.077 C 
HETATM   28  C26 STQ 1 617     -33.761 129.675   7.175  1.00 21.49     0.044 C 
HETATM   29  C27 STQ 1 617     -34.530 130.267   8.331  1.00 21.49    -0.016 C 
HETATM   30  C28 STQ 1 617     -35.262 131.348   8.101  1.00 21.49     0.003 C 
HETATM   31  C29 STQ 1 617     -36.063 131.971   9.160  1.00 21.49    -0.062 C 
HETATM   32  C30 STQ 1 617     -36.961 132.866   8.758  1.00 21.49     0.007 C 
HETATM   33  C31 STQ 1 617     -37.866 133.575   9.644  1.00 21.49     0.001 C 
HETATM   34  C32 STQ 1 617     -38.350 134.686   9.114  1.00 21.49     0.007 C 
HETATM   35  C33 STQ 1 617     -39.292 135.591   9.775  1.00 21.49    -0.062 C 
HETATM   36  C34 STQ 1 617     -39.627 136.702   9.109  1.00 21.49     0.007 C 
HETATM   37  C35 STQ 1 617     -40.575 137.665   9.636  1.00 21.49     0.001 C 
HETATM   38  C36 STQ 1 617     -33.940 127.456   8.369  1.00 21.49     0.016 C 
HETATM   39  C37 STQ 1 617     -35.579 128.073   6.643  1.00 21.49     0.016 C 
HETATM   40  C38 STQ 1 617     -31.704 130.790   8.343  1.00 21.49     0.044 C 
HETATM   41  C39 STQ 1 617     -35.891 131.611  10.604  1.00 21.49     0.048 C 
HETATM   42  C40 STQ 1 617     -39.852 135.267  11.123  1.00 21.49     0.048 C 
HETATM   43  O23 STQ 1 617     -31.304 127.738   4.620  1.00 21.49    -0.392 OA
ATOM     44  H23 STQ 1 617     -30.372 127.918   4.631  1.00  0.00     0.210 HD
ENDROOT
TORSDOF 12
BEGIN_RES PHE A  61
REMARK  2 active torsions:
REMARK  status: ('A' for Active; 'I' for Inactive)
REMARK    1  A    between atoms: CA   and  CB  
REMARK    2  A    between atoms: CB   and  CG  
ROOT
ATOM      1  CA  PHE A  61     -36.237 128.293  12.768  1.00 39.40     0.164 C 
ENDROOT
BRANCH   1   2
ATOM      2  CB  PHE A  61     -36.813 128.951  11.509  1.00 39.41     0.058 C 
BRANCH   2   3
ATOM      3  CG  PHE A  61     -37.030 128.004  10.353  1.00 39.01    -0.020 A 
ATOM      4  CD2 PHE A  61     -36.284 126.841  10.237  1.00 40.32    -0.004 A 
ATOM      5  CE2 PHE A  61     -36.482 125.972   9.171  1.00 40.20    -0.000 A 
ATOM      6  CZ  PHE A  61     -37.429 126.253   8.213  1.00 40.34    -0.000 A 
ATOM      7  CE1 PHE A  61     -38.180 127.403   8.316  1.00 41.51    -0.000 A 
ATOM      8  CD1 PHE A  61     -37.978 128.276   9.377  1.00 39.94    -0.004 A 
ENDBRANCH   2   3
ENDBRANCH   1   2
END_RES PHE A  61
BEGIN_RES VAL A 134
REMARK  1 active torsions:
REMARK  status: ('A' for Active; 'I' for Inactive)
REMARK    3  A    between atoms: CA   and  CB  
ROOT
ATOM      9  CA  VAL A 134     -29.766 132.051   9.815  1.00 40.75     0.159 C 
ENDROOT
BRANCH   9  10
ATOM     10  CB  VAL A 134     -30.864 132.765   9.009  1.00 40.76     0.029 C 
ATOM     11  CG1 VAL A 134     -32.105 132.980   9.863  1.00 41.76     0.002 C 
ATOM     12  CG2 VAL A 134     -30.370 134.083   8.432  1.00 40.56     0.002 C 
ENDBRANCH   9  10
END_RES VAL A 134
BEGIN_RES TYR A 338
REMARK  3 active torsions:
REMARK  status: ('A' for Active; 'I' for Inactive)
REMARK    4  A    between atoms: CA   and  CB  
REMARK    5  A    between atoms: CB   and  CG  
REMARK    6  A    between atoms: CZ   and  OH  
ROOT
ATOM     13  CA  TYR A 338     -41.631 124.950   6.058  1.00 38.23     0.164 C 
ENDROOT
BRANCH  13  14
ATOM     14  CB  TYR A 338     -41.621 126.456   6.339  1.00 39.15     0.058 C 
BRANCH  14  15
ATOM     15  CG  TYR A 338     -40.418 127.212   5.822  1.00 39.03    -0.020 A 
ATOM     16  CD2 TYR A 338     -40.264 128.559   6.103  1.00 40.65    -0.002 A 
ATOM     17  CE2 TYR A 338     -39.182 129.287   5.632  1.00 40.91     0.024 A 
ATOM     18  CZ  TYR A 338     -38.221 128.665   4.858  1.00 42.33     0.089 A 
ATOM     19  CE1 TYR A 338     -38.351 127.318   4.568  1.00 40.63     0.024 A 
ATOM     20  CD1 TYR A 338     -39.447 126.611   5.037  1.00 39.27    -0.002 A 
BRANCH  18  21
ATOM     21  OH  TYR A 338     -37.148 129.371   4.392  1.00 43.36    -0.359 OA
ATOM     22  HH  TYR A 338     -36.288 129.252   4.780  1.00  0.00     0.217 HD
ENDBRANCH  18  21
ENDBRANCH  14  15
ENDBRANCH  13  14
END_RES TYR A 338
ENDMDL
