MODEL 1
REMARK VINA RESULT:   -12.090      0.000      0.000
REMARK INTER + INTRA:         -12.275
REMARK INTER:                 -12.090
REMARK INTRA:                  -0.185
REMARK UNBOUND:                -0.185
REMARK  0 active torsions:
REMARK  status: ('A' for Active; 'I' for Inactive)
REMARK       I    between atoms: C3_3  and  O3_21 
REMARK       I    between atoms: C6_6  and  C7_7 
REMARK       I    between atoms: C8_8  and  C9_9 
REMARK       I    between atoms: C10_10  and  C11_11 
REMARK       I    between atoms: C12_12  and  C13_13 
REMARK       I    between atoms: C14_14  and  C15_15 
REMARK       I    between atoms: C23_25  and  O23_43 
REMARK       I    between atoms: C26_28  and  C27_29 
REMARK       I    between atoms: C28_30  and  C29_31 
REMARK       I    between atoms: C30_32  and  C31_33 
REMARK       I    between atoms: C32_34  and  C33_35 
REMARK       I    between atoms: C34_36  and  C35_37 
ROOT
HETATM    1  C1  STQ X1621     -34.200 128.061   6.922  1.00 31.86    -0.018 C 
HETATM    2  C2  STQ X1621     -33.598 127.870   5.525  1.00 31.86     0.045 C 
HETATM    3  C3  STQ X1621     -32.309 128.624   5.220  1.00 31.86     0.123 C 
HETATM    4  C4  STQ X1621     -31.602 129.074   6.492  1.00 31.86     0.066 C 
HETATM    5  C5  STQ X1621     -32.596 129.879   7.273  1.00 31.86    -0.074 C 
HETATM    6  C6  STQ X1621     -33.732 129.298   7.658  1.00 31.86    -0.048 C 
HETATM    7  C7  STQ X1621     -34.649 129.915   8.639  1.00 31.86     0.009 C 
HETATM    8  C8  STQ X1621     -34.744 131.246   8.695  1.00 31.86     0.007 C 
HETATM    9  C9  STQ X1621     -35.830 131.842   9.506  1.00 31.86    -0.062 C 
HETATM   10  C10 STQ X1621     -36.243 133.077   9.153  1.00 31.86     0.007 C 
HETATM   11  C11 STQ X1621     -37.410 133.731   9.743  1.00 31.86     0.001 C 
HETATM   12  C12 STQ X1621     -37.912 134.817   9.157  1.00 31.86     0.007 C 
HETATM   13  C13 STQ X1621     -39.144 135.465   9.659  1.00 31.86    -0.062 C 
HETATM   14  C14 STQ X1621     -39.658 136.469   8.919  1.00 31.86     0.007 C 
HETATM   15  C15 STQ X1621     -40.882 137.197   9.261  1.00 31.86     0.001 C 
HETATM   16  C16 STQ X1621     -33.783 126.889   7.808  1.00 31.86     0.020 C 
HETATM   17  C17 STQ X1621     -35.714 128.039   6.788  1.00 31.86     0.020 C 
HETATM   18  C18 STQ X1621     -31.752 130.686   8.219  1.00 31.86     0.044 C 
HETATM   19  C19 STQ X1621     -36.484 131.034  10.603  1.00 31.86     0.048 C 
HETATM   20  C20 STQ X1621     -39.768 134.956  10.935  1.00 31.86     0.048 C 
HETATM   21  O3  STQ X1621     -31.478 127.720   4.496  1.00 31.86    -0.395 OA
ATOM     22  H3  STQ X1621     -31.919 127.440   3.702  1.00  0.00     0.210 HD
HETATM   23  C21 STQ X1621     -50.485 145.777   9.078  1.00 31.86    -0.035 C 
HETATM   24  C22 STQ X1621     -51.556 146.585   9.785  1.00 31.86     0.045 C 
HETATM   25  C23 STQ X1621     -51.103 148.000  10.091  1.00 31.86     0.142 C 
HETATM   26  C24 STQ X1621     -49.711 148.021  10.682  1.00 31.86     0.007 C 
HETATM   27  C25 STQ X1621     -48.858 146.985  10.603  1.00 31.86    -0.077 C 
HETATM   28  C26 STQ X1621     -49.213 145.690   9.921  1.00 31.86     0.044 C 
HETATM   29  C27 STQ X1621     -48.068 145.230   9.047  1.00 31.86    -0.016 C 
HETATM   30  C28 STQ X1621     -47.530 144.031   9.262  1.00 31.86     0.003 C 
HETATM   31  C29 STQ X1621     -46.403 143.524   8.453  1.00 31.86    -0.062 C 
HETATM   32  C30 STQ X1621     -45.897 142.324   8.809  1.00 31.86     0.007 C 
HETATM   33  C31 STQ X1621     -44.750 141.691   8.159  1.00 31.86     0.001 C 
HETATM   34  C32 STQ X1621     -44.248 140.574   8.681  1.00 31.86     0.007 C 
HETATM   35  C33 STQ X1621     -43.043 139.926   8.121  1.00 31.86    -0.062 C 
HETATM   36  C34 STQ X1621     -42.532 138.892   8.821  1.00 31.86     0.007 C 
HETATM   37  C35 STQ X1621     -41.316 138.162   8.456  1.00 31.86     0.001 C 
HETATM   38  C36 STQ X1621     -50.226 146.392   7.706  1.00 31.86     0.016 C 
HETATM   39  C37 STQ X1621     -51.008 144.356   8.903  1.00 31.86     0.016 C 
HETATM   40  C38 STQ X1621     -47.503 147.121  11.237  1.00 31.86     0.044 C 
HETATM   41  C39 STQ X1621     -45.897 144.354   7.300  1.00 31.86     0.048 C 
HETATM   42  C40 STQ X1621     -42.430 140.473   6.859  1.00 31.86     0.048 C 
HETATM   43  O23 STQ X1621     -52.028 148.517  11.046  1.00 31.86    -0.392 OA
ATOM     44  H23 STQ X1621     -52.902 148.504  10.675  1.00  0.00     0.210 HD
ENDROOT
TORSDOF 12
BEGIN_RES PHE A  61
REMARK  2 active torsions:
REMARK  status: ('A' for Active; 'I' for Inactive)
REMARK    1  A    between atoms: CA   and  CB  
REMARK    2  A    between atoms: CB   and  CG  
ROOT
ATOM      1  CA  PHE A  61     -36.237 128.293  12.768  1.00 39.40     0.164 C 
ENDROOT
BRANCH   1   2
ATOM      2  CB  PHE A  61     -36.813 128.951  11.509  1.00 39.41     0.058 C 
BRANCH   2   3
ATOM      3  CG  PHE A  61     -37.048 128.000  10.360  1.00 39.01    -0.020 A 
ATOM      4  CD2 PHE A  61     -36.261 126.871  10.198  1.00 40.32    -0.004 A 
ATOM      5  CE2 PHE A  61     -36.476 125.999   9.138  1.00 40.20    -0.000 A 
ATOM      6  CZ  PHE A  61     -37.483 126.243   8.232  1.00 40.34    -0.000 A 
ATOM      7  CE1 PHE A  61     -38.275 127.360   8.380  1.00 41.51    -0.000 A 
ATOM      8  CD1 PHE A  61     -38.056 128.236   9.435  1.00 39.94    -0.004 A 
ENDBRANCH   2   3
ENDBRANCH   1   2
END_RES PHE A  61
BEGIN_RES VAL A 134
REMARK  1 active torsions:
REMARK  status: ('A' for Active; 'I' for Inactive)
REMARK    3  A    between atoms: CA   and  CB  
ROOT
ATOM      9  CA  VAL A 134     -29.766 132.051   9.815  1.00 40.75     0.159 C 
ENDROOT
BRANCH   9  10
ATOM     10  CB  VAL A 134     -30.864 132.765   9.009  1.00 40.76     0.029 C 
ATOM     11  CG1 VAL A 134     -32.068 133.066   9.889  1.00 41.76     0.002 C 
ATOM     12  CG2 VAL A 134     -30.343 134.034   8.353  1.00 40.56     0.002 C 
ENDBRANCH   9  10
END_RES VAL A 134
BEGIN_RES TYR A 338
REMARK  3 active torsions:
REMARK  status: ('A' for Active; 'I' for Inactive)
REMARK    4  A    between atoms: CA   and  CB  
REMARK    5  A    between atoms: CB   and  CG  
REMARK    6  A    between atoms: CZ   and  OH  
ROOT
ATOM     13  CA  TYR A 338     -41.631 124.950   6.058  1.00 38.23     0.164 C 
ENDROOT
BRANCH  13  14
ATOM     14  CB  TYR A 338     -41.621 126.456   6.339  1.00 39.15     0.058 C 
BRANCH  14  15
ATOM     15  CG  TYR A 338     -40.414 127.210   5.830  1.00 39.03    -0.020 A 
ATOM     16  CD2 TYR A 338     -40.255 128.555   6.119  1.00 40.65    -0.002 A 
ATOM     17  CE2 TYR A 338     -39.170 129.282   5.655  1.00 40.91     0.024 A 
ATOM     18  CZ  TYR A 338     -38.209 128.661   4.879  1.00 42.33     0.089 A 
ATOM     19  CE1 TYR A 338     -38.344 127.316   4.580  1.00 40.63     0.024 A 
ATOM     20  CD1 TYR A 338     -39.444 126.610   5.043  1.00 39.27    -0.002 A 
BRANCH  18  21
ATOM     21  OH  TYR A 338     -37.132 129.366   4.420  1.00 43.36    -0.359 OA
ATOM     22  HH  TYR A 338     -36.973 130.252   4.724  1.00  0.00     0.217 HD
ENDBRANCH  18  21
ENDBRANCH  14  15
ENDBRANCH  13  14
END_RES TYR A 338
ENDMDL
MODEL 2
REMARK VINA RESULT:   -11.557      1.454      1.862
REMARK INTER + INTRA:         -11.742
REMARK INTER:                  -9.136
REMARK INTRA:                  -2.606
REMARK UNBOUND:                -0.185
REMARK  0 active torsions:
REMARK  status: ('A' for Active; 'I' for Inactive)
REMARK       I    between atoms: C3_3  and  O3_21 
REMARK       I    between atoms: C6_6  and  C7_7 
REMARK       I    between atoms: C8_8  and  C9_9 
REMARK       I    between atoms: C10_10  and  C11_11 
REMARK       I    between atoms: C12_12  and  C13_13 
REMARK       I    between atoms: C14_14  and  C15_15 
REMARK       I    between atoms: C23_25  and  O23_43 
REMARK       I    between atoms: C26_28  and  C27_29 
REMARK       I    between atoms: C28_30  and  C29_31 
REMARK       I    between atoms: C30_32  and  C31_33 
REMARK       I    between atoms: C32_34  and  C33_35 
REMARK       I    between atoms: C34_36  and  C35_37 
ROOT
HETATM    1  C1  STQ X1621     -34.422 127.002   6.430  1.00 31.86    -0.018 C 
HETATM    2  C2  STQ X1621     -34.227 126.700   4.940  1.00 31.86     0.045 C 
HETATM    3  C3  STQ X1621     -33.031 127.350   4.254  1.00 31.86     0.123 C 
HETATM    4  C4  STQ X1621     -31.988 127.817   5.260  1.00 31.86     0.066 C 
HETATM    5  C5  STQ X1621     -32.694 128.725   6.221  1.00 31.86    -0.074 C 
HETATM    6  C6  STQ X1621     -33.712 128.241   6.930  1.00 31.86    -0.048 C 
HETATM    7  C7  STQ X1621     -34.301 128.968   8.075  1.00 31.86     0.009 C 
HETATM    8  C8  STQ X1621     -34.310 130.304   8.064  1.00 31.86     0.007 C 
HETATM    9  C9  STQ X1621     -35.108 131.012   9.091  1.00 31.86    -0.062 C 
HETATM   10  C10 STQ X1621     -35.539 132.251   8.778  1.00 31.86     0.007 C 
HETATM   11  C11 STQ X1621     -36.471 133.010   9.610  1.00 31.86     0.001 C 
HETATM   12  C12 STQ X1621     -37.056 134.095   9.106  1.00 31.86     0.007 C 
HETATM   13  C13 STQ X1621     -38.074 134.849   9.871  1.00 31.86    -0.062 C 
HETATM   14  C14 STQ X1621     -38.718 135.845   9.227  1.00 31.86     0.007 C 
HETATM   15  C15 STQ X1621     -39.767 136.669   9.831  1.00 31.86     0.001 C 
HETATM   16  C16 STQ X1621     -33.842 125.853   7.251  1.00 31.86     0.020 C 
HETATM   17  C17 STQ X1621     -35.916 127.073   6.703  1.00 31.86     0.020 C 
HETATM   18  C18 STQ X1621     -31.588 129.523   6.852  1.00 31.86     0.044 C 
HETATM   19  C19 STQ X1621     -35.483 130.306  10.374  1.00 31.86     0.048 C 
HETATM   20  C20 STQ X1621     -38.358 134.449  11.298  1.00 31.86     0.048 C 
HETATM   21  O3  STQ X1621     -32.472 126.356   3.399  1.00 31.86    -0.395 OA
ATOM     22  H3  STQ X1621     -33.123 126.065   2.771  1.00  0.00     0.210 HD
HETATM   23  C21 STQ X1621     -48.626 145.845  11.616  1.00 31.86    -0.035 C 
HETATM   24  C22 STQ X1621     -49.426 146.758  12.525  1.00 31.86     0.045 C 
HETATM   25  C23 STQ X1621     -48.838 148.153  12.604  1.00 31.86     0.142 C 
HETATM   26  C24 STQ X1621     -47.339 148.113  12.803  1.00 31.86     0.007 C 
HETATM   27  C25 STQ X1621     -46.591 147.020  12.571  1.00 31.86    -0.077 C 
HETATM   28  C26 STQ X1621     -47.181 145.718  12.097  1.00 31.86     0.044 C 
HETATM   29  C27 STQ X1621     -46.336 145.139  10.984  1.00 31.86    -0.016 C 
HETATM   30  C28 STQ X1621     -45.821 143.919  11.130  1.00 31.86     0.003 C 
HETATM   31  C29 STQ X1621     -44.979 143.297  10.087  1.00 31.86    -0.062 C 
HETATM   32  C30 STQ X1621     -44.457 142.087  10.377  1.00 31.86     0.007 C 
HETATM   33  C31 STQ X1621     -43.560 141.346   9.490  1.00 31.86     0.001 C 
HETATM   34  C32 STQ X1621     -42.993 140.227   9.935  1.00 31.86     0.007 C 
HETATM   35  C33 STQ X1621     -42.016 139.472   9.122  1.00 31.86    -0.062 C 
HETATM   36  C34 STQ X1621     -41.388 138.444   9.729  1.00 31.86     0.007 C 
HETATM   37  C35 STQ X1621     -40.352 137.617   9.106  1.00 31.86     0.001 C 
HETATM   38  C36 STQ X1621     -48.715 146.369  10.187  1.00 31.86     0.016 C 
HETATM   39  C37 STQ X1621     -49.247 144.454  11.683  1.00 31.86     0.016 C 
HETATM   40  C38 STQ X1621     -45.111 147.099  12.813  1.00 31.86     0.044 C 
HETATM   41  C39 STQ X1621     -44.760 144.031   8.788  1.00 31.86     0.048 C 
HETATM   42  C40 STQ X1621     -41.737 139.911   7.708  1.00 31.86     0.048 C 
HETATM   43  O23 STQ X1621     -49.446 148.780  13.732  1.00 31.86    -0.392 OA
ATOM     44  H23 STQ X1621     -50.387 148.805  13.608  1.00  0.00     0.210 HD
ENDROOT
TORSDOF 12
BEGIN_RES PHE A  61
REMARK  2 active torsions:
REMARK  status: ('A' for Active; 'I' for Inactive)
REMARK    1  A    between atoms: CA   and  CB  
REMARK    2  A    between atoms: CB   and  CG  
ROOT
ATOM      1  CA  PHE A  61     -36.237 128.293  12.768  1.00 39.40     0.164 C 
ENDROOT
BRANCH   1   2
ATOM      2  CB  PHE A  61     -36.813 128.951  11.509  1.00 39.41     0.058 C 
BRANCH   2   3
ATOM      3  CG  PHE A  61     -37.092 127.993  10.376  1.00 39.01    -0.020 A 
ATOM      4  CD2 PHE A  61     -36.373 126.814  10.247  1.00 40.32    -0.004 A 
ATOM      5  CE2 PHE A  61     -36.628 125.935   9.202  1.00 40.20    -0.000 A 
ATOM      6  CZ  PHE A  61     -37.606 126.222   8.277  1.00 40.34    -0.000 A 
ATOM      7  CE1 PHE A  61     -38.331 127.388   8.392  1.00 41.51    -0.000 A 
ATOM      8  CD1 PHE A  61     -38.071 128.270   9.433  1.00 39.94    -0.004 A 
ENDBRANCH   2   3
ENDBRANCH   1   2
END_RES PHE A  61
BEGIN_RES VAL A 134
REMARK  1 active torsions:
REMARK  status: ('A' for Active; 'I' for Inactive)
REMARK    3  A    between atoms: CA   and  CB  
ROOT
ATOM      9  CA  VAL A 134     -29.766 132.051   9.815  1.00 40.75     0.159 C 
ENDROOT
BRANCH   9  10
ATOM     10  CB  VAL A 134     -30.864 132.765   9.009  1.00 40.76     0.029 C 
ATOM     11  CG1 VAL A 134     -31.084 132.075   7.671  1.00 41.76     0.002 C 
ATOM     12  CG2 VAL A 134     -32.165 132.855   9.791  1.00 40.56     0.002 C 
ENDBRANCH   9  10
END_RES VAL A 134
BEGIN_RES TYR A 338
REMARK  3 active torsions:
REMARK  status: ('A' for Active; 'I' for Inactive)
REMARK    4  A    between atoms: CA   and  CB  
REMARK    5  A    between atoms: CB   and  CG  
REMARK    6  A    between atoms: CZ   and  OH  
ROOT
ATOM     13  CA  TYR A 338     -41.631 124.950   6.058  1.00 38.23     0.164 C 
ENDROOT
BRANCH  13  14
ATOM     14  CB  TYR A 338     -41.621 126.456   6.339  1.00 39.15     0.058 C 
BRANCH  14  15
ATOM     15  CG  TYR A 338     -40.409 127.208   5.841  1.00 39.03    -0.020 A 
ATOM     16  CD2 TYR A 338     -40.232 128.544   6.160  1.00 40.65    -0.002 A 
ATOM     17  CE2 TYR A 338     -39.141 129.269   5.707  1.00 40.91     0.024 A 
ATOM     18  CZ  TYR A 338     -38.192 128.655   4.911  1.00 42.33     0.089 A 
ATOM     19  CE1 TYR A 338     -38.343 127.320   4.582  1.00 40.63     0.024 A 
ATOM     20  CD1 TYR A 338     -39.449 126.616   5.034  1.00 39.27    -0.002 A 
BRANCH  18  21
ATOM     21  OH  TYR A 338     -37.109 129.359   4.463  1.00 43.36    -0.359 OA
ATOM     22  HH  TYR A 338     -37.097 130.308   4.515  1.00  0.00     0.217 HD
ENDBRANCH  18  21
ENDBRANCH  14  15
ENDBRANCH  13  14
END_RES TYR A 338
ENDMDL
MODEL 3
REMARK VINA RESULT:    -9.111      1.957     16.916
REMARK INTER + INTRA:          -9.296
REMARK INTER:                  -8.596
REMARK INTRA:                  -0.700
REMARK UNBOUND:                -0.185
REMARK  0 active torsions:
REMARK  status: ('A' for Active; 'I' for Inactive)
REMARK       I    between atoms: C3_3  and  O3_21 
REMARK       I    between atoms: C6_6  and  C7_7 
REMARK       I    between atoms: C8_8  and  C9_9 
REMARK       I    between atoms: C10_10  and  C11_11 
REMARK       I    between atoms: C12_12  and  C13_13 
REMARK       I    between atoms: C14_14  and  C15_15 
REMARK       I    between atoms: C23_25  and  O23_43 
REMARK       I    between atoms: C26_28  and  C27_29 
REMARK       I    between atoms: C28_30  and  C29_31 
REMARK       I    between atoms: C30_32  and  C31_33 
REMARK       I    between atoms: C32_34  and  C33_35 
REMARK       I    between atoms: C34_36  and  C35_37 
ROOT
HETATM    1  C1  STQ X1621     -49.426 146.144  13.185  1.00 31.86    -0.018 C 
HETATM    2  C2  STQ X1621     -49.977 146.081  14.614  1.00 31.86     0.045 C 
HETATM    3  C3  STQ X1621     -49.203 146.838  15.686  1.00 31.86     0.123 C 
HETATM    4  C4  STQ X1621     -48.281 147.889  15.083  1.00 31.86     0.066 C 
HETATM    5  C5  STQ X1621     -47.402 147.175  14.101  1.00 31.86    -0.074 C 
HETATM    6  C6  STQ X1621     -47.969 146.538  13.077  1.00 31.86    -0.048 C 
HETATM    7  C7  STQ X1621     -47.192 146.029  11.927  1.00 31.86     0.009 C 
HETATM    8  C8  STQ X1621     -45.937 145.613  12.121  1.00 31.86     0.007 C 
HETATM    9  C9  STQ X1621     -45.257 144.890  11.023  1.00 31.86    -0.062 C 
HETATM   10  C10 STQ X1621     -44.266 144.045  11.374  1.00 31.86     0.007 C 
HETATM   11  C11 STQ X1621     -43.613 143.138  10.432  1.00 31.86     0.001 C 
HETATM   12  C12 STQ X1621     -42.848 142.154  10.900  1.00 31.86     0.007 C 
HETATM   13  C13 STQ X1621     -42.236 141.155   9.996  1.00 31.86    -0.062 C 
HETATM   14  C14 STQ X1621     -41.599 140.112  10.569  1.00 31.86     0.007 C 
HETATM   15  C15 STQ X1621     -40.964 139.026   9.821  1.00 31.86     0.001 C 
HETATM   16  C16 STQ X1621     -50.186 147.214  12.404  1.00 31.86     0.020 C 
HETATM   17  C17 STQ X1621     -49.685 144.800  12.523  1.00 31.86     0.020 C 
HETATM   18  C18 STQ X1621     -46.231 148.099  13.916  1.00 31.86     0.044 C 
HETATM   19  C19 STQ X1621     -45.746 145.044   9.601  1.00 31.86     0.048 C 
HETATM   20  C20 STQ X1621     -42.383 141.333   8.505  1.00 31.86     0.048 C 
HETATM   21  O3  STQ X1621     -50.177 147.466  16.516  1.00 31.86    -0.395 OA
ATOM     22  H3  STQ X1621     -50.752 146.810  16.893  1.00  0.00     0.210 HD
HETATM   23  C21 STQ X1621     -34.213 128.440   6.954  1.00 31.86    -0.035 C 
HETATM   24  C22 STQ X1621     -33.364 127.626   5.996  1.00 31.86     0.045 C 
HETATM   25  C23 STQ X1621     -31.881 127.766   6.278  1.00 31.86     0.142 C 
HETATM   26  C24 STQ X1621     -31.491 129.211   6.496  1.00 31.86     0.007 C 
HETATM   27  C25 STQ X1621     -32.379 130.182   6.771  1.00 31.86    -0.077 C 
HETATM   28  C26 STQ X1621     -33.859 129.925   6.878  1.00 31.86     0.044 C 
HETATM   29  C27 STQ X1621     -34.424 130.633   8.089  1.00 31.86    -0.016 C 
HETATM   30  C28 STQ X1621     -35.411 131.512   7.923  1.00 31.86     0.003 C 
HETATM   31  C29 STQ X1621     -36.002 132.247   9.060  1.00 31.86    -0.062 C 
HETATM   32  C30 STQ X1621     -36.947 133.163   8.760  1.00 31.86     0.007 C 
HETATM   33  C31 STQ X1621     -37.602 134.019   9.748  1.00 31.86     0.001 C 
HETATM   34  C32 STQ X1621     -38.418 134.984   9.326  1.00 31.86     0.007 C 
HETATM   35  C33 STQ X1621     -39.050 135.934  10.264  1.00 31.86    -0.062 C 
HETATM   36  C34 STQ X1621     -39.729 136.964   9.717  1.00 31.86     0.007 C 
HETATM   37  C35 STQ X1621     -40.375 138.034  10.480  1.00 31.86     0.001 C 
HETATM   38  C36 STQ X1621     -34.045 127.878   8.362  1.00 31.86     0.016 C 
HETATM   39  C37 STQ X1621     -35.669 128.302   6.526  1.00 31.86     0.016 C 
HETATM   40  C38 STQ X1621     -31.872 131.584   6.960  1.00 31.86     0.044 C 
HETATM   41  C39 STQ X1621     -35.529 131.936  10.458  1.00 31.86     0.048 C 
HETATM   42  C40 STQ X1621     -38.865 135.742  11.746  1.00 31.86     0.048 C 
HETATM   43  O23 STQ X1621     -31.207 127.266   5.124  1.00 31.86    -0.392 OA
ATOM     44  H23 STQ X1621     -31.452 126.358   4.986  1.00  0.00     0.210 HD
ENDROOT
TORSDOF 12
BEGIN_RES PHE A  61
REMARK  2 active torsions:
REMARK  status: ('A' for Active; 'I' for Inactive)
REMARK    1  A    between atoms: CA   and  CB  
REMARK    2  A    between atoms: CB   and  CG  
ROOT
ATOM      1  CA  PHE A  61     -36.237 128.293  12.768  1.00 39.40     0.164 C 
ENDROOT
BRANCH   1   2
ATOM      2  CB  PHE A  61     -36.813 128.951  11.509  1.00 39.41     0.058 C 
BRANCH   2   3
ATOM      3  CG  PHE A  61     -37.006 128.009  10.345  1.00 39.01    -0.020 A 
ATOM      4  CD2 PHE A  61     -36.231 126.867  10.217  1.00 40.32    -0.004 A 
ATOM      5  CE2 PHE A  61     -36.407 126.003   9.144  1.00 40.20    -0.000 A 
ATOM      6  CZ  PHE A  61     -37.364 126.267   8.190  1.00 40.34    -0.000 A 
ATOM      7  CE1 PHE A  61     -38.144 127.396   8.304  1.00 41.51    -0.000 A 
ATOM      8  CD1 PHE A  61     -37.963 128.264   9.373  1.00 39.94    -0.004 A 
ENDBRANCH   2   3
ENDBRANCH   1   2
END_RES PHE A  61
BEGIN_RES VAL A 134
REMARK  1 active torsions:
REMARK  status: ('A' for Active; 'I' for Inactive)
REMARK    3  A    between atoms: CA   and  CB  
ROOT
ATOM      9  CA  VAL A 134     -29.766 132.051   9.815  1.00 40.75     0.159 C 
ENDROOT
BRANCH   9  10
ATOM     10  CB  VAL A 134     -30.864 132.765   9.009  1.00 40.76     0.029 C 
ATOM     11  CG1 VAL A 134     -32.120 132.941   9.849  1.00 41.76     0.002 C 
ATOM     12  CG2 VAL A 134     -30.384 134.103   8.469  1.00 40.56     0.002 C 
ENDBRANCH   9  10
END_RES VAL A 134
BEGIN_RES TYR A 338
REMARK  3 active torsions:
REMARK  status: ('A' for Active; 'I' for Inactive)
REMARK    4  A    between atoms: CA   and  CB  
REMARK    5  A    between atoms: CB   and  CG  
REMARK    6  A    between atoms: CZ   and  OH  
ROOT
ATOM     13  CA  TYR A 338     -41.631 124.950   6.058  1.00 38.23     0.164 C 
ENDROOT
BRANCH  13  14
ATOM     14  CB  TYR A 338     -41.621 126.456   6.339  1.00 39.15     0.058 C 
BRANCH  14  15
ATOM     15  CG  TYR A 338     -40.417 127.211   5.826  1.00 39.03    -0.020 A 
ATOM     16  CD2 TYR A 338     -40.258 128.556   6.112  1.00 40.65    -0.002 A 
ATOM     17  CE2 TYR A 338     -39.175 129.284   5.645  1.00 40.91     0.024 A 
ATOM     18  CZ  TYR A 338     -38.215 128.663   4.868  1.00 42.33     0.089 A 
ATOM     19  CE1 TYR A 338     -38.349 127.318   4.571  1.00 40.63     0.024 A 
ATOM     20  CD1 TYR A 338     -39.447 126.611   5.037  1.00 39.27    -0.002 A 
BRANCH  18  21
ATOM     21  OH  TYR A 338     -37.140 129.369   4.405  1.00 43.36    -0.359 OA
ATOM     22  HH  TYR A 338     -36.658 129.946   4.986  1.00  0.00     0.217 HD
ENDBRANCH  18  21
ENDBRANCH  14  15
ENDBRANCH  13  14
END_RES TYR A 338
ENDMDL
