MODEL 1
REMARK VINA RESULT:    -9.209      0.000      0.000
REMARK INTER + INTRA:          -9.113
REMARK INTER:                  -9.209
REMARK INTRA:                   0.096
REMARK UNBOUND:                 0.096
REMARK  0 active torsions:
REMARK  status: ('A' for Active; 'I' for Inactive)
REMARK       I    between atoms: C3_3  and  O3_21 
REMARK       I    between atoms: C6_6  and  C7_7 
REMARK       I    between atoms: C8_8  and  C9_9 
REMARK       I    between atoms: C10_10  and  C11_11 
REMARK       I    between atoms: C12_12  and  C13_13 
REMARK       I    between atoms: C14_14  and  C15_15 
REMARK       I    between atoms: C23_25  and  O23_43 
REMARK       I    between atoms: C26_28  and  C27_29 
REMARK       I    between atoms: C28_30  and  C29_31 
REMARK       I    between atoms: C30_32  and  C31_33 
REMARK       I    between atoms: C32_34  and  C33_35 
REMARK       I    between atoms: C34_36  and  C35_37 
ROOT
HETATM    1  C1  STQ E4621     -34.133 128.188   7.212  1.00 16.11    -0.017 A 
HETATM    2  C2  STQ E4621     -33.358 127.360   6.173  1.00 15.05     0.049 A 
HETATM    3  C3  STQ E4621     -31.926 127.734   5.812  1.00 18.47     0.142 A 
HETATM    4  C4  STQ E4621     -31.385 129.019   6.460  1.00 15.72     0.012 A 
HETATM    5  C5  STQ E4621     -32.185 129.820   7.431  1.00 14.51    -0.056 A 
HETATM    6  C6  STQ E4621     -33.454 129.474   7.798  1.00 15.74    -0.044 A 
HETATM    7  C7  STQ E4621     -34.285 130.252   8.752  1.00 14.17     0.009 C 
HETATM    8  C8  STQ E4621     -34.997 131.365   8.511  1.00 12.66     0.007 C 
HETATM    9  C9  STQ E4621     -35.765 132.136   9.480  1.00 13.35    -0.062 C 
HETATM   10  C10 STQ E4621     -36.530 133.143   9.007  1.00 14.12     0.007 C 
HETATM   11  C11 STQ E4621     -37.436 133.971   9.768  1.00 17.35     0.001 C 
HETATM   12  C12 STQ E4621     -38.234 134.887   9.165  1.00 16.42     0.007 C 
HETATM   13  C13 STQ E4621     -39.255 135.735   9.789  1.00 15.51    -0.062 C 
HETATM   14  C14 STQ E4621     -39.974 136.552   8.989  1.00 14.68     0.007 C 
HETATM   15  C15 STQ E4621     -41.049 137.414   9.379  1.00 15.30     0.001 C 
HETATM   16  C16 STQ E4621     -34.393 127.161   8.338  1.00 14.06     0.020 C 
HETATM   17  C17 STQ E4621     -35.491 128.547   6.560  1.00 11.15     0.020 C 
HETATM   18  C18 STQ E4621     -31.404 130.994   7.890  1.00 14.35     0.048 C 
HETATM   19  C19 STQ E4621     -35.718 131.705  10.922  1.00 12.51     0.048 C 
HETATM   20  C20 STQ E4621     -39.457 135.608  11.268  1.00 15.42     0.048 C 
HETATM   21  O3  STQ E4621     -31.051 126.646   6.076  1.00 20.70    -0.392 OA
ATOM     22  H3  STQ E4621     -30.158 126.879   5.851  1.00  0.00     0.210 HD
HETATM   23  C21 STQ E4621     -50.992 145.752   9.994  1.00 21.70    -0.035 C 
HETATM   24  C22 STQ E4621     -52.071 146.538  10.758  1.00 19.94     0.045 C 
HETATM   25  C23 STQ E4621     -51.733 148.013  10.952  1.00 22.24     0.142 C 
HETATM   26  C24 STQ E4621     -50.252 148.259  11.308  1.00 22.23     0.007 C 
HETATM   27  C25 STQ E4621     -49.297 147.306  11.139  1.00 22.92    -0.077 C 
HETATM   28  C26 STQ E4621     -49.564 145.902  10.604  1.00 22.02     0.044 C 
HETATM   29  C27 STQ E4621     -48.427 145.427   9.692  1.00 21.48    -0.016 C 
HETATM   30  C28 STQ E4621     -47.740 144.258   9.822  1.00 19.73     0.003 C 
HETATM   31  C29 STQ E4621     -46.769 143.690   8.868  1.00 19.82    -0.062 C 
HETATM   32  C30 STQ E4621     -46.151 142.532   9.185  1.00 18.83     0.007 C 
HETATM   33  C31 STQ E4621     -45.196 141.819   8.365  1.00 18.73     0.001 C 
HETATM   34  C32 STQ E4621     -44.472 140.776   8.858  1.00 18.34     0.007 C 
HETATM   35  C33 STQ E4621     -43.433 139.966   8.201  1.00 16.35    -0.062 C 
HETATM   36  C34 STQ E4621     -42.772 139.060   8.953  1.00 13.70     0.007 C 
HETATM   37  C35 STQ E4621     -41.684 138.215   8.520  1.00 15.99     0.001 C 
HETATM   38  C36 STQ E4621     -50.995 146.217   8.503  1.00 20.64     0.016 C 
HETATM   39  C37 STQ E4621     -51.432 144.283  10.035  1.00 21.18     0.016 C 
HETATM   40  C38 STQ E4621     -47.910 147.698  11.531  1.00 23.47     0.044 C 
HETATM   41  C39 STQ E4621     -46.469 144.475   7.620  1.00 19.63     0.048 C 
HETATM   42  C40 STQ E4621     -43.118 140.252   6.761  1.00 14.68     0.048 C 
HETATM   43  O23 STQ E4621     -52.600 148.588  11.920  1.00 24.71    -0.392 OA
ATOM     44  H23 STQ E4621     -53.511 148.437  11.701  1.00  0.00     0.210 HD
ENDROOT
TORSDOF 12
BEGIN_RES PHE A  61
REMARK  2 active torsions:
REMARK  status: ('A' for Active; 'I' for Inactive)
REMARK    1  A    between atoms: CA   and  CB  
REMARK    2  A    between atoms: CB   and  CG  
ROOT
ATOM      1  CA  PHE A  61     -36.237 128.293  12.768  1.00 39.40     0.164 C 
ENDROOT
BRANCH   1   2
ATOM      2  CB  PHE A  61     -36.813 128.951  11.509  1.00 39.41     0.058 C 
BRANCH   2   3
ATOM      3  CG  PHE A  61     -37.053 127.999  10.362  1.00 39.01    -0.020 A 
ATOM      4  CD2 PHE A  61     -36.360 126.802  10.273  1.00 40.32    -0.004 A 
ATOM      5  CE2 PHE A  61     -36.579 125.929   9.215  1.00 40.20    -0.000 A 
ATOM      6  CZ  PHE A  61     -37.496 126.240   8.237  1.00 40.34    -0.000 A 
ATOM      7  CE1 PHE A  61     -38.194 127.425   8.311  1.00 41.51    -0.000 A 
ATOM      8  CD1 PHE A  61     -37.970 128.302   9.365  1.00 39.94    -0.004 A 
ENDBRANCH   2   3
ENDBRANCH   1   2
END_RES PHE A  61
BEGIN_RES VAL A 134
REMARK  1 active torsions:
REMARK  status: ('A' for Active; 'I' for Inactive)
REMARK    3  A    between atoms: CA   and  CB  
ROOT
ATOM      9  CA  VAL A 134     -29.766 132.051   9.815  1.00 40.75     0.159 C 
ENDROOT
BRANCH   9  10
ATOM     10  CB  VAL A 134     -30.864 132.765   9.009  1.00 40.76     0.029 C 
ATOM     11  CG1 VAL A 134     -32.104 132.981   9.863  1.00 41.76     0.002 C 
ATOM     12  CG2 VAL A 134     -30.370 134.082   8.432  1.00 40.56     0.002 C 
ENDBRANCH   9  10
END_RES VAL A 134
BEGIN_RES TYR A 338
REMARK  3 active torsions:
REMARK  status: ('A' for Active; 'I' for Inactive)
REMARK    4  A    between atoms: CA   and  CB  
REMARK    5  A    between atoms: CB   and  CG  
REMARK    6  A    between atoms: CZ   and  OH  
ROOT
ATOM     13  CA  TYR A 338     -41.631 124.950   6.058  1.00 38.23     0.164 C 
ENDROOT
BRANCH  13  14
ATOM     14  CB  TYR A 338     -41.621 126.456   6.339  1.00 39.15     0.058 C 
BRANCH  14  15
ATOM     15  CG  TYR A 338     -40.422 127.213   5.816  1.00 39.03    -0.020 A 
ATOM     16  CD2 TYR A 338     -40.267 128.560   6.096  1.00 40.65    -0.002 A 
ATOM     17  CE2 TYR A 338     -39.188 129.289   5.620  1.00 40.91     0.024 A 
ATOM     18  CZ  TYR A 338     -38.231 128.668   4.840  1.00 42.33     0.089 A 
ATOM     19  CE1 TYR A 338     -38.362 127.321   4.550  1.00 40.63     0.024 A 
ATOM     20  CD1 TYR A 338     -39.455 126.613   5.025  1.00 39.27    -0.002 A 
BRANCH  18  21
ATOM     21  OH  TYR A 338     -37.161 129.376   4.368  1.00 43.36    -0.359 OA
ATOM     22  HH  TYR A 338     -36.299 128.978   4.334  1.00  0.00     0.217 HD
ENDBRANCH  18  21
ENDBRANCH  14  15
ENDBRANCH  13  14
END_RES TYR A 338
ENDMDL
MODEL 2
REMARK VINA RESULT:    -8.208      1.332     17.331
REMARK INTER + INTRA:          -8.113
REMARK INTER:                  -7.762
REMARK INTRA:                  -0.351
REMARK UNBOUND:                 0.096
REMARK  0 active torsions:
REMARK  status: ('A' for Active; 'I' for Inactive)
REMARK       I    between atoms: C3_3  and  O3_21 
REMARK       I    between atoms: C6_6  and  C7_7 
REMARK       I    between atoms: C8_8  and  C9_9 
REMARK       I    between atoms: C10_10  and  C11_11 
REMARK       I    between atoms: C12_12  and  C13_13 
REMARK       I    between atoms: C14_14  and  C15_15 
REMARK       I    between atoms: C23_25  and  O23_43 
REMARK       I    between atoms: C26_28  and  C27_29 
REMARK       I    between atoms: C28_30  and  C29_31 
REMARK       I    between atoms: C30_32  and  C31_33 
REMARK       I    between atoms: C32_34  and  C33_35 
REMARK       I    between atoms: C34_36  and  C35_37 
ROOT
HETATM    1  C1  STQ E4621     -49.805 146.694  12.203  1.00 16.11    -0.017 A 
HETATM    2  C2  STQ E4621     -50.761 147.246  13.273  1.00 15.05     0.049 A 
HETATM    3  C3  STQ E4621     -50.317 148.387  14.180  1.00 18.47     0.142 A 
HETATM    4  C4  STQ E4621     -48.858 148.843  14.017  1.00 15.72     0.012 A 
HETATM    5  C5  STQ E4621     -47.948 148.252  12.995  1.00 14.51    -0.056 A 
HETATM    6  C6  STQ E4621     -48.344 147.259  12.146  1.00 15.74    -0.044 A 
HETATM    7  C7  STQ E4621     -47.463 146.638  11.123  1.00 14.17     0.009 C 
HETATM    8  C8  STQ E4621     -46.535 145.684  11.302  1.00 12.66     0.007 C 
HETATM    9  C9  STQ E4621     -45.649 145.128  10.287  1.00 13.35    -0.062 C 
HETATM   10  C10 STQ E4621     -44.886 144.071  10.639  1.00 14.12     0.007 C 
HETATM   11  C11 STQ E4621     -44.012 143.310   9.776  1.00 17.35     0.001 C 
HETATM   12  C12 STQ E4621     -43.373 142.199  10.219  1.00 16.42     0.007 C 
HETATM   13  C13 STQ E4621     -42.527 141.285   9.446  1.00 15.51    -0.062 C 
HETATM   14  C14 STQ E4621     -42.020 140.204  10.077  1.00 14.68     0.007 C 
HETATM   15  C15 STQ E4621     -41.225 139.162   9.503  1.00 15.30     0.001 C 
HETATM   16  C16 STQ E4621     -50.551 147.010  10.886  1.00 14.06     0.020 C 
HETATM   17  C17 STQ E4621     -49.780 145.157  12.388  1.00 11.15     0.020 C 
HETATM   18  C18 STQ E4621     -46.613 148.894  13.069  1.00 14.35     0.048 C 
HETATM   19  C19 STQ E4621     -45.709 145.713   8.900  1.00 12.51     0.048 C 
HETATM   20  C20 STQ E4621     -42.314 141.592   7.994  1.00 15.42     0.048 C 
HETATM   21  O3  STQ E4621     -51.196 149.495  14.042  1.00 20.70    -0.392 OA
ATOM     22  H3  STQ E4621     -50.920 150.206  14.608  1.00  0.00     0.210 HD
HETATM   23  C21 STQ E4621     -34.239 128.501   6.991  1.00 21.70    -0.035 C 
HETATM   24  C22 STQ E4621     -33.425 127.589   6.057  1.00 19.94     0.045 C 
HETATM   25  C23 STQ E4621     -31.917 127.676   6.275  1.00 22.24     0.142 C 
HETATM   26  C24 STQ E4621     -31.417 129.116   6.517  1.00 22.23     0.007 C 
HETATM   27  C25 STQ E4621     -32.262 130.134   6.830  1.00 22.92    -0.077 C 
HETATM   28  C26 STQ E4621     -33.775 129.990   6.963  1.00 22.02     0.044 C 
HETATM   29  C27 STQ E4621     -34.317 130.849   8.112  1.00 21.48    -0.016 C 
HETATM   30  C28 STQ E4621     -35.329 131.756   8.017  1.00 19.73     0.003 C 
HETATM   31  C29 STQ E4621     -35.991 132.466   9.127  1.00 19.82    -0.062 C 
HETATM   32  C30 STQ E4621     -36.956 133.366   8.838  1.00 18.83     0.007 C 
HETATM   33  C31 STQ E4621     -37.727 134.132   9.793  1.00 18.73     0.001 C 
HETATM   34  C32 STQ E4621     -38.524 135.163   9.402  1.00 18.34     0.007 C 
HETATM   35  C33 STQ E4621     -39.339 136.078  10.219  1.00 16.35    -0.062 C 
HETATM   36  C34 STQ E4621     -39.949 137.106   9.593  1.00 13.70     0.007 C 
HETATM   37  C35 STQ E4621     -40.738 138.143  10.216  1.00 15.99     0.001 C 
HETATM   38  C36 STQ E4621     -34.152 127.935   8.444  1.00 20.64     0.016 C 
HETATM   39  C37 STQ E4621     -35.695 128.393   6.523  1.00 21.18     0.016 C 
HETATM   40  C38 STQ E4621     -31.624 131.469   7.034  1.00 23.47     0.044 C 
HETATM   41  C39 STQ E4621     -35.503 132.194  10.524  1.00 19.63     0.048 C 
HETATM   42  C40 STQ E4621     -39.375 135.856  11.704  1.00 14.68     0.048 C 
HETATM   43  O23 STQ E4621     -31.233 127.067   5.189  1.00 24.71    -0.392 OA
ATOM     44  H23 STQ E4621     -31.541 126.181   5.039  1.00  0.00     0.210 HD
ENDROOT
TORSDOF 12
BEGIN_RES PHE A  61
REMARK  2 active torsions:
REMARK  status: ('A' for Active; 'I' for Inactive)
REMARK    1  A    between atoms: CA   and  CB  
REMARK    2  A    between atoms: CB   and  CG  
ROOT
ATOM      1  CA  PHE A  61     -36.237 128.293  12.768  1.00 39.40     0.164 C 
ENDROOT
BRANCH   1   2
ATOM      2  CB  PHE A  61     -36.813 128.951  11.509  1.00 39.41     0.058 C 
BRANCH   2   3
ATOM      3  CG  PHE A  61     -37.024 128.005  10.351  1.00 39.01    -0.020 A 
ATOM      4  CD2 PHE A  61     -36.271 126.847  10.232  1.00 40.32    -0.004 A 
ATOM      5  CE2 PHE A  61     -36.464 125.979   9.165  1.00 40.20    -0.000 A 
ATOM      6  CZ  PHE A  61     -37.413 126.257   8.207  1.00 40.34    -0.000 A 
ATOM      7  CE1 PHE A  61     -38.171 127.402   8.312  1.00 41.51    -0.000 A 
ATOM      8  CD1 PHE A  61     -37.974 128.273   9.376  1.00 39.94    -0.004 A 
ENDBRANCH   2   3
ENDBRANCH   1   2
END_RES PHE A  61
BEGIN_RES VAL A 134
REMARK  1 active torsions:
REMARK  status: ('A' for Active; 'I' for Inactive)
REMARK    3  A    between atoms: CA   and  CB  
ROOT
ATOM      9  CA  VAL A 134     -29.766 132.051   9.815  1.00 40.75     0.159 C 
ENDROOT
BRANCH   9  10
ATOM     10  CB  VAL A 134     -30.864 132.765   9.009  1.00 40.76     0.029 C 
ATOM     11  CG1 VAL A 134     -32.112 132.963   9.857  1.00 41.76     0.002 C 
ATOM     12  CG2 VAL A 134     -30.376 134.092   8.448  1.00 40.56     0.002 C 
ENDBRANCH   9  10
END_RES VAL A 134
BEGIN_RES TYR A 338
REMARK  3 active torsions:
REMARK  status: ('A' for Active; 'I' for Inactive)
REMARK    4  A    between atoms: CA   and  CB  
REMARK    5  A    between atoms: CB   and  CG  
REMARK    6  A    between atoms: CZ   and  OH  
ROOT
ATOM     13  CA  TYR A 338     -41.631 124.950   6.058  1.00 38.23     0.164 C 
ENDROOT
BRANCH  13  14
ATOM     14  CB  TYR A 338     -41.621 126.456   6.339  1.00 39.15     0.058 C 
BRANCH  14  15
ATOM     15  CG  TYR A 338     -40.424 127.214   5.812  1.00 39.03    -0.020 A 
ATOM     16  CD2 TYR A 338     -40.260 128.557   6.105  1.00 40.65    -0.002 A 
ATOM     17  CE2 TYR A 338     -39.183 129.287   5.626  1.00 40.91     0.024 A 
ATOM     18  CZ  TYR A 338     -38.237 128.670   4.830  1.00 42.33     0.089 A 
ATOM     19  CE1 TYR A 338     -38.376 127.327   4.527  1.00 40.63     0.024 A 
ATOM     20  CD1 TYR A 338     -39.467 126.618   5.005  1.00 39.27    -0.002 A 
BRANCH  18  21
ATOM     21  OH  TYR A 338     -37.168 129.379   4.355  1.00 43.36    -0.359 OA
ATOM     22  HH  TYR A 338     -36.575 128.988   3.725  1.00  0.00     0.217 HD
ENDBRANCH  18  21
ENDBRANCH  14  15
ENDBRANCH  13  14
END_RES TYR A 338
ENDMDL
MODEL 3
REMARK VINA RESULT:    -6.921      2.124      2.624
REMARK INTER + INTRA:          -6.825
REMARK INTER:                  -4.614
REMARK INTRA:                  -2.212
REMARK UNBOUND:                 0.096
REMARK  0 active torsions:
REMARK  status: ('A' for Active; 'I' for Inactive)
REMARK       I    between atoms: C3_3  and  O3_21 
REMARK       I    between atoms: C6_6  and  C7_7 
REMARK       I    between atoms: C8_8  and  C9_9 
REMARK       I    between atoms: C10_10  and  C11_11 
REMARK       I    between atoms: C12_12  and  C13_13 
REMARK       I    between atoms: C14_14  and  C15_15 
REMARK       I    between atoms: C23_25  and  O23_43 
REMARK       I    between atoms: C26_28  and  C27_29 
REMARK       I    between atoms: C28_30  and  C29_31 
REMARK       I    between atoms: C30_32  and  C31_33 
REMARK       I    between atoms: C32_34  and  C33_35 
REMARK       I    between atoms: C34_36  and  C35_37 
ROOT
HETATM    1  C1  STQ E4621     -34.718 127.613   5.984  1.00 16.11    -0.017 A 
HETATM    2  C2  STQ E4621     -34.166 126.884   4.748  1.00 15.05     0.049 A 
HETATM    3  C3  STQ E4621     -32.717 127.092   4.322  1.00 18.47     0.142 A 
HETATM    4  C4  STQ E4621     -31.924 128.132   5.129  1.00 15.72     0.012 A 
HETATM    5  C5  STQ E4621     -32.510 128.852   6.296  1.00 14.51    -0.056 A 
HETATM    6  C6  STQ E4621     -33.792 128.645   6.717  1.00 15.74    -0.044 A 
HETATM    7  C7  STQ E4621     -34.415 129.350   7.867  1.00 14.17     0.009 C 
HETATM    8  C8  STQ E4621     -34.940 130.585   7.892  1.00 12.66     0.007 C 
HETATM    9  C9  STQ E4621     -35.500 131.272   9.049  1.00 13.35    -0.062 C 
HETATM   10  C10 STQ E4621     -36.112 132.457   8.834  1.00 14.12     0.007 C 
HETATM   11  C11 STQ E4621     -36.811 133.258   9.811  1.00 17.35     0.001 C 
HETATM   12  C12 STQ E4621     -37.480 134.383   9.455  1.00 16.42     0.007 C 
HETATM   13  C13 STQ E4621     -38.297 135.248  10.311  1.00 15.51    -0.062 C 
HETATM   14  C14 STQ E4621     -38.918 136.303   9.739  1.00 14.68     0.007 C 
HETATM   15  C15 STQ E4621     -39.802 137.233  10.373  1.00 15.30     0.001 C 
HETATM   16  C16 STQ E4621     -35.075 126.447   6.934  1.00 14.06     0.020 C 
HETATM   17  C17 STQ E4621     -36.035 128.294   5.538  1.00 11.15     0.020 C 
HETATM   18  C18 STQ E4621     -31.512 129.783   6.875  1.00 14.35     0.048 C 
HETATM   19  C19 STQ E4621     -35.433 130.576  10.383  1.00 12.51     0.048 C 
HETATM   20  C20 STQ E4621     -38.420 134.879  11.759  1.00 15.42     0.048 C 
HETATM   21  O3  STQ E4621     -32.026 125.850   4.308  1.00 20.70    -0.392 OA
ATOM     22  H3  STQ E4621     -31.123 125.979   4.042  1.00  0.00     0.210 HD
HETATM   23  C21 STQ E4621     -48.115 146.753  13.376  1.00 21.70    -0.035 C 
HETATM   24  C22 STQ E4621     -48.991 147.541  14.365  1.00 19.94     0.045 C 
HETATM   25  C23 STQ E4621     -48.395 148.883  14.779  1.00 22.24     0.142 C 
HETATM   26  C24 STQ E4621     -46.873 148.824  15.029  1.00 22.23     0.007 C 
HETATM   27  C25 STQ E4621     -46.108 147.782  14.607  1.00 22.92    -0.077 C 
HETATM   28  C26 STQ E4621     -46.646 146.562  13.864  1.00 22.02     0.044 C 
HETATM   29  C27 STQ E4621     -45.668 146.095  12.778  1.00 21.48    -0.016 C 
HETATM   30  C28 STQ E4621     -45.183 144.830  12.637  1.00 19.73     0.003 C 
HETATM   31  C29 STQ E4621     -44.389 144.307  11.510  1.00 19.82    -0.062 C 
HETATM   32  C30 STQ E4621     -43.957 143.027  11.560  1.00 18.83     0.007 C 
HETATM   33  C31 STQ E4621     -43.194 142.340  10.542  1.00 18.73     0.001 C 
HETATM   34  C32 STQ E4621     -42.628 141.124  10.774  1.00 18.34     0.007 C 
HETATM   35  C33 STQ E4621     -41.787 140.299   9.890  1.00 16.35    -0.062 C 
HETATM   36  C34 STQ E4621     -41.243 139.178  10.406  1.00 13.70     0.007 C 
HETATM   37  C35 STQ E4621     -40.346 138.270   9.731  1.00 15.99     0.001 C 
HETATM   38  C36 STQ E4621     -48.136 147.484  11.996  1.00 20.64     0.016 C 
HETATM   39  C37 STQ E4621     -48.795 145.390  13.204  1.00 21.18     0.016 C 
HETATM   40  C38 STQ E4621     -44.652 147.873  14.926  1.00 23.47     0.044 C 
HETATM   41  C39 STQ E4621     -44.042 145.255  10.395  1.00 19.63     0.048 C 
HETATM   42  C40 STQ E4621     -41.524 140.798   8.499  1.00 14.68     0.048 C 
HETATM   43  O23 STQ E4621     -49.085 149.394  15.911  1.00 24.71    -0.392 OA
ATOM     44  H23 STQ E4621     -50.022 149.430  15.757  1.00  0.00     0.210 HD
ENDROOT
TORSDOF 12
BEGIN_RES PHE A  61
REMARK  2 active torsions:
REMARK  status: ('A' for Active; 'I' for Inactive)
REMARK    1  A    between atoms: CA   and  CB  
REMARK    2  A    between atoms: CB   and  CG  
ROOT
ATOM      1  CA  PHE A  61     -36.237 128.293  12.768  1.00 39.40     0.164 C 
ENDROOT
BRANCH   1   2
ATOM      2  CB  PHE A  61     -36.813 128.951  11.509  1.00 39.41     0.058 C 
BRANCH   2   3
ATOM      3  CG  PHE A  61     -37.036 128.002  10.356  1.00 39.01    -0.020 A 
ATOM      4  CD2 PHE A  61     -36.298 126.835  10.241  1.00 40.32    -0.004 A 
ATOM      5  CE2 PHE A  61     -36.502 125.965   9.177  1.00 40.20    -0.000 A 
ATOM      6  CZ  PHE A  61     -37.449 126.249   8.220  1.00 40.34    -0.000 A 
ATOM      7  CE1 PHE A  61     -38.193 127.404   8.321  1.00 41.51    -0.000 A 
ATOM      8  CD1 PHE A  61     -37.984 128.278   9.380  1.00 39.94    -0.004 A 
ENDBRANCH   2   3
ENDBRANCH   1   2
END_RES PHE A  61
BEGIN_RES VAL A 134
REMARK  1 active torsions:
REMARK  status: ('A' for Active; 'I' for Inactive)
REMARK    3  A    between atoms: CA   and  CB  
ROOT
ATOM      9  CA  VAL A 134     -29.766 132.051   9.815  1.00 40.75     0.159 C 
ENDROOT
BRANCH   9  10
ATOM     10  CB  VAL A 134     -30.864 132.765   9.009  1.00 40.76     0.029 C 
ATOM     11  CG1 VAL A 134     -30.841 132.318   7.555  1.00 41.76     0.002 C 
ATOM     12  CG2 VAL A 134     -32.240 132.547   9.620  1.00 40.56     0.002 C 
ENDBRANCH   9  10
END_RES VAL A 134
BEGIN_RES TYR A 338
REMARK  3 active torsions:
REMARK  status: ('A' for Active; 'I' for Inactive)
REMARK    4  A    between atoms: CA   and  CB  
REMARK    5  A    between atoms: CB   and  CG  
REMARK    6  A    between atoms: CZ   and  OH  
ROOT
ATOM     13  CA  TYR A 338     -41.631 124.950   6.058  1.00 38.23     0.164 C 
ENDROOT
BRANCH  13  14
ATOM     14  CB  TYR A 338     -41.621 126.456   6.339  1.00 39.15     0.058 C 
BRANCH  14  15
ATOM     15  CG  TYR A 338     -40.447 127.221   5.773  1.00 39.03    -0.020 A 
ATOM     16  CD2 TYR A 338     -40.287 128.568   6.054  1.00 40.65    -0.002 A 
ATOM     17  CE2 TYR A 338     -39.231 129.304   5.539  1.00 40.91     0.024 A 
ATOM     18  CZ  TYR A 338     -38.303 128.691   4.719  1.00 42.33     0.089 A 
ATOM     19  CE1 TYR A 338     -38.438 127.345   4.428  1.00 40.63     0.024 A 
ATOM     20  CD1 TYR A 338     -39.508 126.629   4.942  1.00 39.27    -0.002 A 
BRANCH  18  21
ATOM     21  OH  TYR A 338     -37.255 129.406   4.210  1.00 43.36    -0.359 OA
ATOM     22  HH  TYR A 338     -36.792 129.098   3.439  1.00  0.00     0.217 HD
ENDBRANCH  18  21
ENDBRANCH  14  15
ENDBRANCH  13  14
END_RES TYR A 338
ENDMDL
