MODEL 1
REMARK VINA RESULT:    -9.536      0.000      0.000
REMARK INTER + INTRA:         -11.888
REMARK INTER:                  -9.536
REMARK INTRA:                  -2.352
REMARK UNBOUND:                -2.352
REMARK  0 active torsions:
REMARK  status: ('A' for Active; 'I' for Inactive)
REMARK       I    between atoms: C3_3  and  O3_21 
REMARK       I    between atoms: C6_6  and  C7_7 
REMARK       I    between atoms: C8_8  and  C9_9 
REMARK       I    between atoms: C10_10  and  C11_11 
REMARK       I    between atoms: C12_12  and  C13_13 
REMARK       I    between atoms: C14_14  and  C15_15 
REMARK       I    between atoms: C23_25  and  O23_43 
REMARK       I    between atoms: C26_28  and  C27_29 
REMARK       I    between atoms: C28_30  and  C29_31 
REMARK       I    between atoms: C30_32  and  C31_33 
REMARK       I    between atoms: C32_34  and  C33_35 
REMARK       I    between atoms: C34_36  and  C35_37 
ROOT
HETATM    1  C1  STQ 1 316     -34.333 127.235   6.590  1.00 73.24    -0.018 C 
HETATM    2  C2  STQ 1 316     -33.777 126.670   5.281  1.00 72.84     0.045 C 
HETATM    3  C3  STQ 1 316     -32.631 127.439   4.636  1.00 72.53     0.123 C 
HETATM    4  C4  STQ 1 316     -31.643 127.891   5.695  1.00 72.61     0.066 C 
HETATM    5  C5  STQ 1 316     -32.357 128.754   6.702  1.00 72.68    -0.074 C 
HETATM    6  C6  STQ 1 316     -33.558 128.408   7.166  1.00 72.79    -0.048 C 
HETATM    7  C7  STQ 1 316     -34.168 129.187   8.271  1.00 71.90     0.009 C 
HETATM    8  C8  STQ 1 316     -34.838 130.313   8.016  1.00 71.51     0.007 C 
HETATM    9  C9  STQ 1 316     -35.471 131.129   9.074  1.00 70.48    -0.062 C 
HETATM   10  C10 STQ 1 316     -36.173 132.210   8.702  1.00 69.46     0.007 C 
HETATM   11  C11 STQ 1 316     -36.862 133.112   9.623  1.00 69.85     0.001 C 
HETATM   12  C12 STQ 1 316     -37.536 134.120   9.069  1.00 72.15     0.007 C 
HETATM   13  C13 STQ 1 316     -38.309 135.126   9.828  1.00 73.74    -0.062 C 
HETATM   14  C14 STQ 1 316     -39.140 135.927   9.136  1.00 74.04     0.007 C 
HETATM   15  C15 STQ 1 316     -39.980 136.945   9.763  1.00 74.62     0.001 C 
HETATM   16  C16 STQ 1 316     -34.346 126.113   7.620  1.00 72.68     0.020 C 
HETATM   17  C17 STQ 1 316     -35.761 127.704   6.339  1.00 73.05     0.020 C 
HETATM   18  C18 STQ 1 316     -31.538 129.799   7.405  1.00 72.13     0.044 C 
HETATM   19  C19 STQ 1 316     -35.324 130.760  10.521  1.00 70.45     0.048 C 
HETATM   20  C20 STQ 1 316     -38.167 135.251  11.318  1.00 72.89     0.048 C 
HETATM   21  O3  STQ 1 316     -31.958 126.591   3.695  1.00 71.04    -0.395 OA
ATOM     22  H3  STQ 1 316     -32.577 126.308   3.032  1.00  0.00     0.210 HD
HETATM   23  C21 STQ 1 316     -49.836 145.225  10.829  1.00 90.36    -0.035 C 
HETATM   24  C22 STQ 1 316     -50.631 146.134  11.756  1.00 90.85     0.045 C 
HETATM   25  C23 STQ 1 316     -50.267 147.605  11.605  1.00 91.26     0.142 C 
HETATM   26  C24 STQ 1 316     -48.771 147.798  11.534  1.00 91.05     0.007 C 
HETATM   27  C25 STQ 1 316     -47.935 146.852  11.078  1.00 90.19    -0.077 C 
HETATM   28  C26 STQ 1 316     -48.335 145.402  11.040  1.00 99.69     0.044 C 
HETATM   29  C27 STQ 1 316     -47.590 144.663   9.948  1.00 98.61    -0.016 C 
HETATM   30  C28 STQ 1 316     -46.717 143.726  10.307  1.00 97.01     0.003 C 
HETATM   31  C29 STQ 1 316     -45.953 142.936   9.323  1.00 94.72    -0.062 C 
HETATM   32  C30 STQ 1 316     -45.109 142.003   9.785  1.00 91.32     0.007 C 
HETATM   33  C31 STQ 1 316     -44.305 141.134   8.930  1.00 87.88     0.001 C 
HETATM   34  C32 STQ 1 316     -43.435 140.340   9.547  1.00 84.19     0.007 C 
HETATM   35  C33 STQ 1 316     -42.559 139.376   8.858  1.00 80.79    -0.062 C 
HETATM   36  C34 STQ 1 316     -41.687 138.663   9.593  1.00 78.84     0.007 C 
HETATM   37  C35 STQ 1 316     -40.806 137.662   8.996  1.00 76.79     0.001 C 
HETATM   38  C36 STQ 1 316     -50.205 145.505   9.377  1.00 90.82     0.016 C 
HETATM   39  C37 STQ 1 316     -50.202 143.781  11.152  1.00 99.86     0.016 C 
HETATM   40  C38 STQ 1 316     -46.570 147.254  10.609  1.00 99.64     0.044 C 
HETATM   41  C39 STQ 1 316     -46.126 143.163   7.852  1.00 95.37     0.048 C 
HETATM   42  C40 STQ 1 316     -42.665 139.184   7.374  1.00 90.13     0.048 C 
HETATM   43  O23 STQ 1 316     -50.773 148.325  12.735  1.00 91.59    -0.392 OA
ATOM     44  H23 STQ 1 316     -50.546 149.243  12.641  1.00  0.00     0.210 HD
ENDROOT
TORSDOF 12
BEGIN_RES PHE A  61
REMARK  2 active torsions:
REMARK  status: ('A' for Active; 'I' for Inactive)
REMARK    1  A    between atoms: CA   and  CB  
REMARK    2  A    between atoms: CB   and  CG  
ROOT
ATOM      1  CA  PHE A  61     -36.237 128.293  12.768  1.00 39.40     0.164 C 
ENDROOT
BRANCH   1   2
ATOM      2  CB  PHE A  61     -36.813 128.951  11.509  1.00 39.41     0.058 C 
BRANCH   2   3
ATOM      3  CG  PHE A  61     -37.073 127.996  10.369  1.00 39.01    -0.020 A 
ATOM      4  CD2 PHE A  61     -36.370 126.806  10.263  1.00 40.32    -0.004 A 
ATOM      5  CE2 PHE A  61     -36.608 125.929   9.212  1.00 40.20    -0.000 A 
ATOM      6  CZ  PHE A  61     -37.552 126.230   8.257  1.00 40.34    -0.000 A 
ATOM      7  CE1 PHE A  61     -38.261 127.408   8.349  1.00 41.51    -0.000 A 
ATOM      8  CD1 PHE A  61     -38.019 128.288   9.397  1.00 39.94    -0.004 A 
ENDBRANCH   2   3
ENDBRANCH   1   2
END_RES PHE A  61
BEGIN_RES VAL A 134
REMARK  1 active torsions:
REMARK  status: ('A' for Active; 'I' for Inactive)
REMARK    3  A    between atoms: CA   and  CB  
ROOT
ATOM      9  CA  VAL A 134     -29.766 132.051   9.815  1.00 40.75     0.159 C 
ENDROOT
BRANCH   9  10
ATOM     10  CB  VAL A 134     -30.864 132.765   9.009  1.00 40.76     0.029 C 
ATOM     11  CG1 VAL A 134     -30.873 132.282   7.566  1.00 41.76     0.002 C 
ATOM     12  CG2 VAL A 134     -32.233 132.588   9.647  1.00 40.56     0.002 C 
ENDBRANCH   9  10
END_RES VAL A 134
BEGIN_RES TYR A 338
REMARK  3 active torsions:
REMARK  status: ('A' for Active; 'I' for Inactive)
REMARK    4  A    between atoms: CA   and  CB  
REMARK    5  A    between atoms: CB   and  CG  
REMARK    6  A    between atoms: CZ   and  OH  
ROOT
ATOM     13  CA  TYR A 338     -41.631 124.950   6.058  1.00 38.23     0.164 C 
ENDROOT
BRANCH  13  14
ATOM     14  CB  TYR A 338     -41.621 126.456   6.339  1.00 39.15     0.058 C 
BRANCH  14  15
ATOM     15  CG  TYR A 338     -40.424 127.214   5.813  1.00 39.03    -0.020 A 
ATOM     16  CD2 TYR A 338     -40.250 128.552   6.122  1.00 40.65    -0.002 A 
ATOM     17  CE2 TYR A 338     -39.172 129.282   5.644  1.00 40.91     0.024 A 
ATOM     18  CZ  TYR A 338     -38.235 128.670   4.834  1.00 42.33     0.089 A 
ATOM     19  CE1 TYR A 338     -38.384 127.332   4.515  1.00 40.63     0.024 A 
ATOM     20  CD1 TYR A 338     -39.476 126.623   4.992  1.00 39.27    -0.002 A 
BRANCH  18  21
ATOM     21  OH  TYR A 338     -37.166 129.378   4.360  1.00 43.36    -0.359 OA
ATOM     22  HH  TYR A 338     -37.188 130.328   4.344  1.00  0.00     0.217 HD
ENDBRANCH  18  21
ENDBRANCH  14  15
ENDBRANCH  13  14
END_RES TYR A 338
ENDMDL
