MODEL 1
REMARK VINA RESULT:    -8.697      0.000      0.000
REMARK INTER + INTRA:          -9.197
REMARK INTER:                  -8.697
REMARK INTRA:                  -0.500
REMARK UNBOUND:                -0.500
REMARK  0 active torsions:
REMARK  status: ('A' for Active; 'I' for Inactive)
REMARK       I    between atoms: C3_3  and  O3_21 
REMARK       I    between atoms: C6_6  and  C7_7 
REMARK       I    between atoms: C8_8  and  C9_9 
REMARK       I    between atoms: C10_10  and  C11_11 
REMARK       I    between atoms: C12_12  and  C13_13 
REMARK       I    between atoms: C14_14  and  C15_15 
REMARK       I    between atoms: C23_25  and  O23_43 
REMARK       I    between atoms: C26_28  and  C27_29 
REMARK       I    between atoms: C28_30  and  C29_31 
REMARK       I    between atoms: C30_32  and  C31_33 
REMARK       I    between atoms: C32_34  and  C33_35 
REMARK       I    between atoms: C34_36  and  C35_37 
ROOT
HETATM    1  C1  STQ C2621     -34.047 128.364   7.149  1.00 21.49    -0.018 C 
HETATM    2  C2  STQ C2621     -33.259 127.580   6.086  1.00 20.69     0.045 C 
HETATM    3  C3  STQ C2621     -31.882 128.057   5.626  1.00 22.34     0.123 C 
HETATM    4  C4  STQ C2621     -31.281 129.228   6.428  1.00 20.89     0.066 C 
HETATM    5  C5  STQ C2621     -32.096 129.977   7.441  1.00 22.34    -0.074 C 
HETATM    6  C6  STQ C2621     -33.372 129.615   7.813  1.00 21.76    -0.048 C 
HETATM    7  C7  STQ C2621     -34.208 130.333   8.820  1.00 21.22     0.009 C 
HETATM    8  C8  STQ C2621     -34.940 131.466   8.599  1.00 19.00     0.007 C 
HETATM    9  C9  STQ C2621     -35.755 132.216   9.562  1.00 18.63    -0.062 C 
HETATM   10  C10 STQ C2621     -36.509 133.237   9.095  1.00 17.22     0.007 C 
HETATM   11  C11 STQ C2621     -37.441 134.040   9.860  1.00 17.28     0.001 C 
HETATM   12  C12 STQ C2621     -38.221 134.983   9.280  1.00 18.91     0.007 C 
HETATM   13  C13 STQ C2621     -39.275 135.828   9.893  1.00 19.02    -0.062 C 
HETATM   14  C14 STQ C2621     -39.948 136.681   9.087  1.00 19.35     0.007 C 
HETATM   15  C15 STQ C2621     -41.040 137.568   9.441  1.00 19.45     0.001 C 
HETATM   16  C16 STQ C2621     -34.346 127.281   8.214  1.00 20.30     0.020 C 
HETATM   17  C17 STQ C2621     -35.382 128.761   6.498  1.00 19.22     0.020 C 
HETATM   18  C18 STQ C2621     -31.302 131.109   7.977  1.00 22.01     0.044 C 
HETATM   19  C19 STQ C2621     -35.754 131.746  10.991  1.00 17.51     0.048 C 
HETATM   20  C20 STQ C2621     -39.549 135.657  11.361  1.00 16.64     0.048 C 
HETATM   21  O3  STQ C2621     -30.968 126.965   5.570  1.00 21.61    -0.395 OA
ATOM     22  H3  STQ C2621     -31.338 126.243   5.076  1.00  0.00     0.210 HD
HETATM   23  C21 STQ C2621     -50.817 145.941   9.811  1.00 19.74    -0.035 C 
HETATM   24  C22 STQ C2621     -51.990 146.703  10.471  1.00 17.55     0.045 C 
HETATM   25  C23 STQ C2621     -51.707 148.160  10.846  1.00 19.51     0.142 C 
HETATM   26  C24 STQ C2621     -50.233 148.437  11.242  1.00 19.59     0.007 C 
HETATM   27  C25 STQ C2621     -49.235 147.527  11.079  1.00 19.92    -0.077 C 
HETATM   28  C26 STQ C2621     -49.425 146.128  10.502  1.00 18.67     0.044 C 
HETATM   29  C27 STQ C2621     -48.237 145.695   9.635  1.00 17.95    -0.016 C 
HETATM   30  C28 STQ C2621     -47.562 144.515   9.747  1.00 18.06     0.003 C 
HETATM   31  C29 STQ C2621     -46.651 143.918   8.754  1.00 18.23    -0.062 C 
HETATM   32  C30 STQ C2621     -46.028 142.759   9.059  1.00 17.68     0.007 C 
HETATM   33  C31 STQ C2621     -45.078 142.048   8.223  1.00 17.41     0.001 C 
HETATM   34  C32 STQ C2621     -44.369 141.010   8.727  1.00 17.19     0.007 C 
HETATM   35  C33 STQ C2621     -43.310 140.192   8.112  1.00 16.24    -0.062 C 
HETATM   36  C34 STQ C2621     -42.696 139.275   8.891  1.00 17.04     0.007 C 
HETATM   37  C35 STQ C2621     -41.606 138.392   8.540  1.00 18.96     0.001 C 
HETATM   38  C36 STQ C2621     -50.754 146.413   8.323  1.00 17.68     0.016 C 
HETATM   39  C37 STQ C2621     -51.198 144.441   9.831  1.00 17.82     0.016 C 
HETATM   40  C38 STQ C2621     -47.879 147.952  11.517  1.00 18.56     0.044 C 
HETATM   41  C39 STQ C2621     -46.406 144.680   7.489  1.00 19.51     0.048 C 
HETATM   42  C40 STQ C2621     -42.942 140.478   6.696  1.00 13.63     0.048 C 
HETATM   43  O23 STQ C2621     -52.599 148.576  11.875  1.00 19.91    -0.392 OA
ATOM     44  H23 STQ C2621     -52.423 149.480  12.108  1.00  0.00     0.210 HD
ENDROOT
TORSDOF 12
BEGIN_RES PHE A  61
REMARK  2 active torsions:
REMARK  status: ('A' for Active; 'I' for Inactive)
REMARK    1  A    between atoms: CA   and  CB  
REMARK    2  A    between atoms: CB   and  CG  
ROOT
ATOM      1  CA  PHE A  61     -36.237 128.293  12.768  1.00 39.40     0.164 C 
ENDROOT
BRANCH   1   2
ATOM      2  CB  PHE A  61     -36.813 128.951  11.509  1.00 39.41     0.058 C 
BRANCH   2   3
ATOM      3  CG  PHE A  61     -37.003 128.009  10.344  1.00 39.01    -0.020 A 
ATOM      4  CD2 PHE A  61     -36.284 126.827  10.260  1.00 40.32    -0.004 A 
ATOM      5  CE2 PHE A  61     -36.458 125.964   9.186  1.00 40.20    -0.000 A 
ATOM      6  CZ  PHE A  61     -37.354 126.269   8.187  1.00 40.34    -0.000 A 
ATOM      7  CE1 PHE A  61     -38.078 127.439   8.257  1.00 41.51    -0.000 A 
ATOM      8  CD1 PHE A  61     -37.900 128.306   9.327  1.00 39.94    -0.004 A 
ENDBRANCH   2   3
ENDBRANCH   1   2
END_RES PHE A  61
BEGIN_RES VAL A 134
REMARK  1 active torsions:
REMARK  status: ('A' for Active; 'I' for Inactive)
REMARK    3  A    between atoms: CA   and  CB  
ROOT
ATOM      9  CA  VAL A 134     -29.766 132.051   9.815  1.00 40.75     0.159 C 
ENDROOT
BRANCH   9  10
ATOM     10  CB  VAL A 134     -30.864 132.765   9.009  1.00 40.76     0.029 C 
ATOM     11  CG1 VAL A 134     -32.084 133.029   9.879  1.00 41.76     0.002 C 
ATOM     12  CG2 VAL A 134     -30.354 134.056   8.387  1.00 40.56     0.002 C 
ENDBRANCH   9  10
END_RES VAL A 134
BEGIN_RES TYR A 338
REMARK  3 active torsions:
REMARK  status: ('A' for Active; 'I' for Inactive)
REMARK    4  A    between atoms: CA   and  CB  
REMARK    5  A    between atoms: CB   and  CG  
REMARK    6  A    between atoms: CZ   and  OH  
ROOT
ATOM     13  CA  TYR A 338     -41.631 124.950   6.058  1.00 38.23     0.164 C 
ENDROOT
BRANCH  13  14
ATOM     14  CB  TYR A 338     -41.621 126.456   6.339  1.00 39.15     0.058 C 
BRANCH  14  15
ATOM     15  CG  TYR A 338     -40.416 127.211   5.826  1.00 39.03    -0.020 A 
ATOM     16  CD2 TYR A 338     -40.263 128.559   6.105  1.00 40.65    -0.002 A 
ATOM     17  CE2 TYR A 338     -39.179 129.286   5.638  1.00 40.91     0.024 A 
ATOM     18  CZ  TYR A 338     -38.214 128.662   4.869  1.00 42.33     0.089 A 
ATOM     19  CE1 TYR A 338     -38.343 127.315   4.581  1.00 40.63     0.024 A 
ATOM     20  CD1 TYR A 338     -39.441 126.609   5.047  1.00 39.27    -0.002 A 
BRANCH  18  21
ATOM     21  OH  TYR A 338     -37.139 129.368   4.407  1.00 43.36    -0.359 OA
ATOM     22  HH  TYR A 338     -36.326 128.923   4.198  1.00  0.00     0.217 HD
ENDBRANCH  18  21
ENDBRANCH  14  15
ENDBRANCH  13  14
END_RES TYR A 338
ENDMDL
MODEL 2
REMARK VINA RESULT:    -8.283      1.395     17.321
REMARK INTER + INTRA:          -8.783
REMARK INTER:                  -7.850
REMARK INTRA:                  -0.933
REMARK UNBOUND:                -0.500
REMARK  0 active torsions:
REMARK  status: ('A' for Active; 'I' for Inactive)
REMARK       I    between atoms: C3_3  and  O3_21 
REMARK       I    between atoms: C6_6  and  C7_7 
REMARK       I    between atoms: C8_8  and  C9_9 
REMARK       I    between atoms: C10_10  and  C11_11 
REMARK       I    between atoms: C12_12  and  C13_13 
REMARK       I    between atoms: C14_14  and  C15_15 
REMARK       I    between atoms: C23_25  and  O23_43 
REMARK       I    between atoms: C26_28  and  C27_29 
REMARK       I    between atoms: C28_30  and  C29_31 
REMARK       I    between atoms: C30_32  and  C31_33 
REMARK       I    between atoms: C32_34  and  C33_35 
REMARK       I    between atoms: C34_36  and  C35_37 
ROOT
HETATM    1  C1  STQ C2621     -49.791 146.564  12.422  1.00 21.49    -0.018 C 
HETATM    2  C2  STQ C2621     -50.753 147.052  13.519  1.00 20.69     0.045 C 
HETATM    3  C3  STQ C2621     -50.278 148.022  14.600  1.00 22.34     0.123 C 
HETATM    4  C4  STQ C2621     -48.867 148.608  14.395  1.00 20.89     0.066 C 
HETATM    5  C5  STQ C2621     -47.955 148.085  13.324  1.00 22.34    -0.074 C 
HETATM    6  C6  STQ C2621     -48.334 147.149  12.388  1.00 21.76    -0.048 C 
HETATM    7  C7  STQ C2621     -47.456 146.612  11.307  1.00 21.22     0.009 C 
HETATM    8  C8  STQ C2621     -46.522 145.623  11.445  1.00 19.00     0.007 C 
HETATM    9  C9  STQ C2621     -45.623 145.081  10.419  1.00 18.63    -0.062 C 
HETATM   10  C10 STQ C2621     -44.869 144.006  10.740  1.00 17.22     0.007 C 
HETATM   11  C11 STQ C2621     -43.990 143.274   9.853  1.00 17.28     0.001 C 
HETATM   12  C12 STQ C2621     -43.345 142.150  10.247  1.00 18.91     0.007 C 
HETATM   13  C13 STQ C2621     -42.482 141.242   9.451  1.00 19.02    -0.062 C 
HETATM   14  C14 STQ C2621     -41.975 140.151  10.069  1.00 19.35     0.007 C 
HETATM   15  C15 STQ C2621     -41.151 139.104   9.496  1.00 19.45     0.001 C 
HETATM   16  C16 STQ C2621     -50.549 146.923  11.123  1.00 20.30     0.020 C 
HETATM   17  C17 STQ C2621     -49.747 145.031  12.530  1.00 19.22     0.020 C 
HETATM   18  C18 STQ C2621     -46.636 148.756  13.426  1.00 22.01     0.044 C 
HETATM   19  C19 STQ C2621     -45.661 145.713   9.054  1.00 17.51     0.048 C 
HETATM   20  C20 STQ C2621     -42.255 141.576   8.003  1.00 16.64     0.048 C 
HETATM   21  O3  STQ C2621     -51.231 149.063  14.791  1.00 21.61    -0.395 OA
ATOM     22  H3  STQ C2621     -52.101 148.702  14.918  1.00  0.00     0.210 HD
HETATM   23  C21 STQ C2621     -34.162 128.596   6.932  1.00 19.74    -0.035 C 
HETATM   24  C22 STQ C2621     -33.378 127.615   6.029  1.00 17.55     0.045 C 
HETATM   25  C23 STQ C2621     -31.852 127.694   6.131  1.00 19.51     0.142 C 
HETATM   26  C24 STQ C2621     -31.312 129.112   6.453  1.00 19.59     0.007 C 
HETATM   27  C25 STQ C2621     -32.113 130.150   6.813  1.00 19.92    -0.077 C 
HETATM   28  C26 STQ C2621     -33.632 130.069   6.940  1.00 18.67     0.044 C 
HETATM   29  C27 STQ C2621     -34.159 130.914   8.105  1.00 17.95    -0.016 C 
HETATM   30  C28 STQ C2621     -35.176 131.821   8.029  1.00 18.06     0.003 C 
HETATM   31  C29 STQ C2621     -35.926 132.405   9.155  1.00 18.23    -0.062 C 
HETATM   32  C30 STQ C2621     -36.873 133.332   8.892  1.00 17.68     0.007 C 
HETATM   33  C31 STQ C2621     -37.683 134.034   9.871  1.00 17.41     0.001 C 
HETATM   34  C32 STQ C2621     -38.449 135.087   9.494  1.00 17.19     0.007 C 
HETATM   35  C33 STQ C2621     -39.286 135.991  10.299  1.00 16.24    -0.062 C 
HETATM   36  C34 STQ C2621     -39.868 137.034   9.666  1.00 17.04     0.007 C 
HETATM   37  C35 STQ C2621     -40.687 138.079  10.237  1.00 18.96     0.001 C 
HETATM   38  C36 STQ C2621     -34.131 127.999   8.376  1.00 17.68     0.016 C 
HETATM   39  C37 STQ C2621     -35.626 128.584   6.430  1.00 17.82     0.016 C 
HETATM   40  C38 STQ C2621     -31.433 131.445   7.080  1.00 18.56     0.044 C 
HETATM   41  C39 STQ C2621     -35.536 131.992  10.540  1.00 19.51     0.048 C 
HETATM   42  C40 STQ C2621     -39.378 135.737  11.765  1.00 13.63     0.048 C 
HETATM   43  O23 STQ C2621     -31.261 127.180   4.942  1.00 19.91    -0.392 OA
ATOM     44  H23 STQ C2621     -30.315 127.229   5.006  1.00  0.00     0.210 HD
ENDROOT
TORSDOF 12
BEGIN_RES PHE A  61
REMARK  2 active torsions:
REMARK  status: ('A' for Active; 'I' for Inactive)
REMARK    1  A    between atoms: CA   and  CB  
REMARK    2  A    between atoms: CB   and  CG  
ROOT
ATOM      1  CA  PHE A  61     -36.237 128.293  12.768  1.00 39.40     0.164 C 
ENDROOT
BRANCH   1   2
ATOM      2  CB  PHE A  61     -36.813 128.951  11.509  1.00 39.41     0.058 C 
BRANCH   2   3
ATOM      3  CG  PHE A  61     -36.975 128.016  10.335  1.00 39.01    -0.020 A 
ATOM      4  CD2 PHE A  61     -36.164 126.901  10.196  1.00 40.32    -0.004 A 
ATOM      5  CE2 PHE A  61     -36.312 126.043   9.113  1.00 40.20    -0.000 A 
ATOM      6  CZ  PHE A  61     -37.275 126.288   8.160  1.00 40.34    -0.000 A 
ATOM      7  CE1 PHE A  61     -38.090 127.390   8.285  1.00 41.51    -0.000 A 
ATOM      8  CD1 PHE A  61     -37.938 128.252   9.364  1.00 39.94    -0.004 A 
ENDBRANCH   2   3
ENDBRANCH   1   2
END_RES PHE A  61
BEGIN_RES VAL A 134
REMARK  1 active torsions:
REMARK  status: ('A' for Active; 'I' for Inactive)
REMARK    3  A    between atoms: CA   and  CB  
ROOT
ATOM      9  CA  VAL A 134     -29.766 132.051   9.815  1.00 40.75     0.159 C 
ENDROOT
BRANCH   9  10
ATOM     10  CB  VAL A 134     -30.864 132.765   9.009  1.00 40.76     0.029 C 
ATOM     11  CG1 VAL A 134     -32.111 132.966   9.858  1.00 41.76     0.002 C 
ATOM     12  CG2 VAL A 134     -30.375 134.090   8.445  1.00 40.56     0.002 C 
ENDBRANCH   9  10
END_RES VAL A 134
BEGIN_RES TYR A 338
REMARK  3 active torsions:
REMARK  status: ('A' for Active; 'I' for Inactive)
REMARK    4  A    between atoms: CA   and  CB  
REMARK    5  A    between atoms: CB   and  CG  
REMARK    6  A    between atoms: CZ   and  OH  
ROOT
ATOM     13  CA  TYR A 338     -41.631 124.950   6.058  1.00 38.23     0.164 C 
ENDROOT
BRANCH  13  14
ATOM     14  CB  TYR A 338     -41.621 126.456   6.339  1.00 39.15     0.058 C 
BRANCH  14  15
ATOM     15  CG  TYR A 338     -40.424 127.214   5.812  1.00 39.03    -0.020 A 
ATOM     16  CD2 TYR A 338     -40.258 128.556   6.109  1.00 40.65    -0.002 A 
ATOM     17  CE2 TYR A 338     -39.181 129.285   5.630  1.00 40.91     0.024 A 
ATOM     18  CZ  TYR A 338     -38.238 128.670   4.829  1.00 42.33     0.089 A 
ATOM     19  CE1 TYR A 338     -38.379 127.329   4.521  1.00 40.63     0.024 A 
ATOM     20  CD1 TYR A 338     -39.470 126.620   5.000  1.00 39.27    -0.002 A 
BRANCH  18  21
ATOM     21  OH  TYR A 338     -37.169 129.379   4.354  1.00 43.36    -0.359 OA
ATOM     22  HH  TYR A 338     -37.104 129.588   3.430  1.00  0.00     0.217 HD
ENDBRANCH  18  21
ENDBRANCH  14  15
ENDBRANCH  13  14
END_RES TYR A 338
ENDMDL
MODEL 3
REMARK VINA RESULT:    -8.097      1.979      2.560
REMARK INTER + INTRA:          -8.597
REMARK INTER:                  -5.665
REMARK INTRA:                  -2.932
REMARK UNBOUND:                -0.500
REMARK  0 active torsions:
REMARK  status: ('A' for Active; 'I' for Inactive)
REMARK       I    between atoms: C3_3  and  O3_21 
REMARK       I    between atoms: C6_6  and  C7_7 
REMARK       I    between atoms: C8_8  and  C9_9 
REMARK       I    between atoms: C10_10  and  C11_11 
REMARK       I    between atoms: C12_12  and  C13_13 
REMARK       I    between atoms: C14_14  and  C15_15 
REMARK       I    between atoms: C23_25  and  O23_43 
REMARK       I    between atoms: C26_28  and  C27_29 
REMARK       I    between atoms: C28_30  and  C29_31 
REMARK       I    between atoms: C30_32  and  C31_33 
REMARK       I    between atoms: C32_34  and  C33_35 
REMARK       I    between atoms: C34_36  and  C35_37 
ROOT
HETATM    1  C1  STQ C2621     -34.583 127.407   5.980  1.00 21.49    -0.018 C 
HETATM    2  C2  STQ C2621     -34.085 126.672   4.724  1.00 20.69     0.045 C 
HETATM    3  C3  STQ C2621     -32.741 127.030   4.090  1.00 22.34     0.123 C 
HETATM    4  C4  STQ C2621     -31.865 128.010   4.896  1.00 20.89     0.066 C 
HETATM    5  C5  STQ C2621     -32.402 128.720   6.104  1.00 22.34    -0.074 C 
HETATM    6  C6  STQ C2621     -33.644 128.474   6.646  1.00 21.76    -0.048 C 
HETATM    7  C7  STQ C2621     -34.206 129.157   7.848  1.00 21.22     0.009 C 
HETATM    8  C8  STQ C2621     -34.797 130.391   7.872  1.00 19.00     0.007 C 
HETATM    9  C9  STQ C2621     -35.341 131.109   9.030  1.00 18.63    -0.062 C 
HETATM   10  C10 STQ C2621     -36.006 132.264   8.805  1.00 17.22     0.007 C 
HETATM   11  C11 STQ C2621     -36.687 133.073   9.794  1.00 17.28     0.001 C 
HETATM   12  C12 STQ C2621     -37.405 134.169   9.454  1.00 18.91     0.007 C 
HETATM   13  C13 STQ C2621     -38.224 135.055  10.319  1.00 19.02    -0.062 C 
HETATM   14  C14 STQ C2621     -38.885 136.077   9.731  1.00 19.35     0.007 C 
HETATM   15  C15 STQ C2621     -39.773 137.040  10.353  1.00 19.45     0.001 C 
HETATM   16  C16 STQ C2621     -34.865 126.245   6.962  1.00 20.30     0.020 C 
HETATM   17  C17 STQ C2621     -35.932 128.043   5.607  1.00 19.22     0.020 C 
HETATM   18  C18 STQ C2621     -31.384 129.671   6.613  1.00 22.01     0.044 C 
HETATM   19  C19 STQ C2621     -35.188 130.468  10.382  1.00 17.51     0.048 C 
HETATM   20  C20 STQ C2621     -38.291 134.736  11.787  1.00 16.64     0.048 C 
HETATM   21  O3  STQ C2621     -32.010 125.850   3.769  1.00 21.61    -0.395 OA
ATOM     22  H3  STQ C2621     -32.549 125.246   3.272  1.00  0.00     0.210 HD
HETATM   23  C21 STQ C2621     -48.100 146.435  13.225  1.00 19.74    -0.035 C 
HETATM   24  C22 STQ C2621     -49.039 147.247  14.148  1.00 17.55     0.045 C 
HETATM   25  C23 STQ C2621     -48.499 148.600  14.618  1.00 19.51     0.142 C 
HETATM   26  C24 STQ C2621     -46.958 148.643  14.787  1.00 19.59     0.007 C 
HETATM   27  C25 STQ C2621     -46.135 147.645  14.366  1.00 19.92    -0.077 C 
HETATM   28  C26 STQ C2621     -46.606 146.362  13.687  1.00 18.67     0.044 C 
HETATM   29  C27 STQ C2621     -45.637 145.899  12.593  1.00 17.95    -0.016 C 
HETATM   30  C28 STQ C2621     -45.127 144.640  12.468  1.00 18.06     0.003 C 
HETATM   31  C29 STQ C2621     -44.472 144.065  11.280  1.00 18.23    -0.062 C 
HETATM   32  C30 STQ C2621     -43.979 142.809  11.354  1.00 17.68     0.007 C 
HETATM   33  C31 STQ C2621     -43.278 142.098  10.301  1.00 17.41     0.001 C 
HETATM   34  C32 STQ C2621     -42.654 140.925  10.569  1.00 17.19     0.007 C 
HETATM   35  C33 STQ C2621     -41.828 140.067   9.703  1.00 16.24    -0.062 C 
HETATM   36  C34 STQ C2621     -41.238 138.992  10.269  1.00 17.04     0.007 C 
HETATM   37  C35 STQ C2621     -40.350 138.034   9.650  1.00 18.96     0.001 C 
HETATM   38  C36 STQ C2621     -48.199 147.077  11.805  1.00 17.68     0.016 C 
HETATM   39  C37 STQ C2621     -48.681 145.002  13.155  1.00 17.82     0.016 C 
HETATM   40  C38 STQ C2621     -44.682 147.843  14.611  1.00 18.56     0.044 C 
HETATM   41  C39 STQ C2621     -44.318 144.943  10.077  1.00 19.51     0.048 C 
HETATM   42  C40 STQ C2621     -41.645 140.480   8.282  1.00 13.63     0.048 C 
HETATM   43  O23 STQ C2621     -49.155 148.990  15.820  1.00 19.91    -0.392 OA
ATOM     44  H23 STQ C2621     -48.821 149.830  16.112  1.00  0.00     0.210 HD
ENDROOT
TORSDOF 12
BEGIN_RES PHE A  61
REMARK  2 active torsions:
REMARK  status: ('A' for Active; 'I' for Inactive)
REMARK    1  A    between atoms: CA   and  CB  
REMARK    2  A    between atoms: CB   and  CG  
ROOT
ATOM      1  CA  PHE A  61     -36.237 128.293  12.768  1.00 39.40     0.164 C 
ENDROOT
BRANCH   1   2
ATOM      2  CB  PHE A  61     -36.813 128.951  11.509  1.00 39.41     0.058 C 
BRANCH   2   3
ATOM      3  CG  PHE A  61     -37.004 128.009  10.344  1.00 39.01    -0.020 A 
ATOM      4  CD2 PHE A  61     -36.212 126.880  10.205  1.00 40.32    -0.004 A 
ATOM      5  CE2 PHE A  61     -36.387 126.016   9.132  1.00 40.20    -0.000 A 
ATOM      6  CZ  PHE A  61     -37.355 126.269   8.187  1.00 40.34    -0.000 A 
ATOM      7  CE1 PHE A  61     -38.151 127.386   8.312  1.00 41.51    -0.000 A 
ATOM      8  CD1 PHE A  61     -37.973 128.254   9.382  1.00 39.94    -0.004 A 
ENDBRANCH   2   3
ENDBRANCH   1   2
END_RES PHE A  61
BEGIN_RES VAL A 134
REMARK  1 active torsions:
REMARK  status: ('A' for Active; 'I' for Inactive)
REMARK    3  A    between atoms: CA   and  CB  
ROOT
ATOM      9  CA  VAL A 134     -29.766 132.051   9.815  1.00 40.75     0.159 C 
ENDROOT
BRANCH   9  10
ATOM     10  CB  VAL A 134     -30.864 132.765   9.009  1.00 40.76     0.029 C 
ATOM     11  CG1 VAL A 134     -30.928 132.223   7.589  1.00 41.76     0.002 C 
ATOM     12  CG2 VAL A 134     -32.220 132.657   9.690  1.00 40.56     0.002 C 
ENDBRANCH   9  10
END_RES VAL A 134
BEGIN_RES TYR A 338
REMARK  3 active torsions:
REMARK  status: ('A' for Active; 'I' for Inactive)
REMARK    4  A    between atoms: CA   and  CB  
REMARK    5  A    between atoms: CB   and  CG  
REMARK    6  A    between atoms: CZ   and  OH  
ROOT
ATOM     13  CA  TYR A 338     -41.631 124.950   6.058  1.00 38.23     0.164 C 
ENDROOT
BRANCH  13  14
ATOM     14  CB  TYR A 338     -41.621 126.456   6.339  1.00 39.15     0.058 C 
BRANCH  14  15
ATOM     15  CG  TYR A 338     -40.441 127.219   5.782  1.00 39.03    -0.020 A 
ATOM     16  CD2 TYR A 338     -40.255 128.553   6.104  1.00 40.65    -0.002 A 
ATOM     17  CE2 TYR A 338     -39.193 129.288   5.600  1.00 40.91     0.024 A 
ATOM     18  CZ  TYR A 338     -38.286 128.687   4.748  1.00 42.33     0.089 A 
ATOM     19  CE1 TYR A 338     -38.448 127.353   4.415  1.00 40.63     0.024 A 
ATOM     20  CD1 TYR A 338     -39.524 126.639   4.920  1.00 39.27    -0.002 A 
BRANCH  18  21
ATOM     21  OH  TYR A 338     -37.232 129.400   4.248  1.00 43.36    -0.359 OA
ATOM     22  HH  TYR A 338     -36.857 130.117   4.747  1.00  0.00     0.217 HD
ENDBRANCH  18  21
ENDBRANCH  14  15
ENDBRANCH  13  14
END_RES TYR A 338
ENDMDL
