MODEL 1
REMARK VINA RESULT:   -10.440      0.000      0.000
REMARK INTER + INTRA:         -10.752
REMARK INTER:                 -10.440
REMARK INTRA:                  -0.311
REMARK UNBOUND:                -0.311
REMARK  0 active torsions:
REMARK  status: ('A' for Active; 'I' for Inactive)
REMARK       I    between atoms: C3_3  and  O3_21 
REMARK       I    between atoms: C6_6  and  C7_7 
REMARK       I    between atoms: C8_8  and  C9_9 
REMARK       I    between atoms: C10_10  and  C11_11 
REMARK       I    between atoms: C12_12  and  C13_13 
REMARK       I    between atoms: C14_14  and  C15_15 
REMARK       I    between atoms: C23_25  and  O23_43 
REMARK       I    between atoms: C26_28  and  C27_29 
REMARK       I    between atoms: C28_30  and  C29_31 
REMARK       I    between atoms: C30_32  and  C31_33 
REMARK       I    between atoms: C32_34  and  C33_35 
REMARK       I    between atoms: C34_36  and  C35_37 
ROOT
HETATM    1  C1  STQ Y1621     -34.205 128.256   6.889  1.00 26.19    -0.018 C 
HETATM    2  C2  STQ Y1621     -33.365 127.566   5.821  1.00 26.65     0.045 C 
HETATM    3  C3  STQ Y1621     -32.097 128.268   5.376  1.00 28.07     0.123 C 
HETATM    4  C4  STQ Y1621     -31.386 128.917   6.535  1.00 30.07     0.066 C 
HETATM    5  C5  STQ Y1621     -32.324 129.863   7.212  1.00 28.83    -0.074 C 
HETATM    6  C6  STQ Y1621     -33.556 129.464   7.547  1.00 27.49    -0.048 C 
HETATM    7  C7  STQ Y1621     -34.350 130.173   8.582  1.00 29.45     0.009 C 
HETATM    8  C8  STQ Y1621     -34.916 131.362   8.363  1.00 27.83     0.007 C 
HETATM    9  C9  STQ Y1621     -35.735 132.045   9.369  1.00 26.06    -0.062 C 
HETATM   10  C10 STQ Y1621     -36.490 133.042   8.913  1.00 25.01     0.007 C 
HETATM   11  C11 STQ Y1621     -37.412 133.812   9.718  1.00 25.09     0.001 C 
HETATM   12  C12 STQ Y1621     -38.084 134.729   9.048  1.00 26.01     0.007 C 
HETATM   13  C13 STQ Y1621     -39.119 135.565   9.657  1.00 26.36    -0.062 C 
HETATM   14  C14 STQ Y1621     -39.795 136.392   8.856  1.00 27.67     0.007 C 
HETATM   15  C15 STQ Y1621     -40.866 137.230   9.372  1.00 28.38     0.001 C 
HETATM   16  C16 STQ Y1621     -34.499 127.178   7.916  1.00 26.46     0.020 C 
HETATM   17  C17 STQ Y1621     -35.508 128.731   6.262  1.00 26.61     0.020 C 
HETATM   18  C18 STQ Y1621     -31.478 130.728   8.086  1.00 29.43     0.044 C 
HETATM   19  C19 STQ Y1621     -35.733 131.633  10.806  1.00 26.07     0.048 C 
HETATM   20  C20 STQ Y1621     -39.437 135.443  11.115  1.00 25.83     0.048 C 
HETATM   21  O3  STQ Y1621     -31.226 127.307   4.784  1.00 27.44    -0.395 OA
ATOM     22  H3  STQ Y1621     -31.674 126.898   4.052  1.00  0.00     0.210 HD
HETATM   23  C21 STQ Y1621     -50.549 145.353   9.266  1.00 36.06    -0.035 C 
HETATM   24  C22 STQ Y1621     -51.651 146.079  10.002  1.00 35.97     0.045 C 
HETATM   25  C23 STQ Y1621     -51.370 147.501  10.450  1.00 37.89     0.142 C 
HETATM   26  C24 STQ Y1621     -49.938 147.696  10.871  1.00 35.66     0.007 C 
HETATM   27  C25 STQ Y1621     -48.978 146.792  10.637  1.00 33.59    -0.077 C 
HETATM   28  C26 STQ Y1621     -49.236 145.435  10.047  1.00 33.73     0.044 C 
HETATM   29  C27 STQ Y1621     -48.091 145.011   9.159  1.00 31.94    -0.016 C 
HETATM   30  C28 STQ Y1621     -47.505 143.850   9.403  1.00 31.56     0.003 C 
HETATM   31  C29 STQ Y1621     -46.405 143.342   8.590  1.00 29.73    -0.062 C 
HETATM   32  C30 STQ Y1621     -46.066 142.073   8.794  1.00 28.64     0.007 C 
HETATM   33  C31 STQ Y1621     -44.997 141.398   8.090  1.00 27.79     0.001 C 
HETATM   34  C32 STQ Y1621     -44.361 140.484   8.801  1.00 27.11     0.007 C 
HETATM   35  C33 STQ Y1621     -43.258 139.694   8.257  1.00 25.78    -0.062 C 
HETATM   36  C34 STQ Y1621     -42.621 138.825   9.044  1.00 26.10     0.007 C 
HETATM   37  C35 STQ Y1621     -41.533 138.006   8.534  1.00 27.22     0.001 C 
HETATM   38  C36 STQ Y1621     -50.407 145.902   7.849  1.00 34.31     0.016 C 
HETATM   39  C37 STQ Y1621     -51.021 143.909   9.191  1.00 37.49     0.016 C 
HETATM   40  C38 STQ Y1621     -47.580 147.122  11.017  1.00 34.38     0.044 C 
HETATM   41  C39 STQ Y1621     -45.724 144.216   7.591  1.00 32.37     0.048 C 
HETATM   42  C40 STQ Y1621     -42.879 139.873   6.831  1.00 25.14     0.048 C 
HETATM   43  O23 STQ Y1621     -52.229 147.753  11.566  1.00 41.29    -0.392 OA
ATOM     44  H23 STQ Y1621     -52.053 148.643  11.846  1.00  0.00     0.210 HD
ENDROOT
TORSDOF 12
BEGIN_RES PHE A  61
REMARK  2 active torsions:
REMARK  status: ('A' for Active; 'I' for Inactive)
REMARK    1  A    between atoms: CA   and  CB  
REMARK    2  A    between atoms: CB   and  CG  
ROOT
ATOM      1  CA  PHE A  61     -36.237 128.293  12.768  1.00 39.40     0.164 C 
ENDROOT
BRANCH   1   2
ATOM      2  CB  PHE A  61     -36.813 128.951  11.509  1.00 39.41     0.058 C 
BRANCH   2   3
ATOM      3  CG  PHE A  61     -37.012 128.007  10.347  1.00 39.01    -0.020 A 
ATOM      4  CD2 PHE A  61     -36.291 126.827  10.258  1.00 40.32    -0.004 A 
ATOM      5  CE2 PHE A  61     -36.472 125.961   9.186  1.00 40.20    -0.000 A 
ATOM      6  CZ  PHE A  61     -37.378 126.264   8.195  1.00 40.34    -0.000 A 
ATOM      7  CE1 PHE A  61     -38.103 127.432   8.270  1.00 41.51    -0.000 A 
ATOM      8  CD1 PHE A  61     -37.918 128.301   9.338  1.00 39.94    -0.004 A 
ENDBRANCH   2   3
ENDBRANCH   1   2
END_RES PHE A  61
BEGIN_RES VAL A 134
REMARK  1 active torsions:
REMARK  status: ('A' for Active; 'I' for Inactive)
REMARK    3  A    between atoms: CA   and  CB  
ROOT
ATOM      9  CA  VAL A 134     -29.766 132.051   9.815  1.00 40.75     0.159 C 
ENDROOT
BRANCH   9  10
ATOM     10  CB  VAL A 134     -30.864 132.765   9.009  1.00 40.76     0.029 C 
ATOM     11  CG1 VAL A 134     -32.100 132.991   9.867  1.00 41.76     0.002 C 
ATOM     12  CG2 VAL A 134     -30.366 134.077   8.422  1.00 40.56     0.002 C 
ENDBRANCH   9  10
END_RES VAL A 134
BEGIN_RES TYR A 338
REMARK  3 active torsions:
REMARK  status: ('A' for Active; 'I' for Inactive)
REMARK    4  A    between atoms: CA   and  CB  
REMARK    5  A    between atoms: CB   and  CG  
REMARK    6  A    between atoms: CZ   and  OH  
ROOT
ATOM     13  CA  TYR A 338     -41.631 124.950   6.058  1.00 38.23     0.164 C 
ENDROOT
BRANCH  13  14
ATOM     14  CB  TYR A 338     -41.621 126.456   6.339  1.00 39.15     0.058 C 
BRANCH  14  15
ATOM     15  CG  TYR A 338     -40.427 127.215   5.808  1.00 39.03    -0.020 A 
ATOM     16  CD2 TYR A 338     -40.269 128.561   6.090  1.00 40.65    -0.002 A 
ATOM     17  CE2 TYR A 338     -39.195 129.291   5.607  1.00 40.91     0.024 A 
ATOM     18  CZ  TYR A 338     -38.244 128.672   4.816  1.00 42.33     0.089 A 
ATOM     19  CE1 TYR A 338     -38.377 127.327   4.524  1.00 40.63     0.024 A 
ATOM     20  CD1 TYR A 338     -39.466 126.617   5.006  1.00 39.27    -0.002 A 
BRANCH  18  21
ATOM     21  OH  TYR A 338     -37.178 129.382   4.338  1.00 43.36    -0.359 OA
ATOM     22  HH  TYR A 338     -37.316 130.138   3.779  1.00  0.00     0.217 HD
ENDBRANCH  18  21
ENDBRANCH  14  15
ENDBRANCH  13  14
END_RES TYR A 338
ENDMDL
MODEL 2
REMARK VINA RESULT:   -10.261      2.003      2.642
REMARK INTER + INTRA:         -10.573
REMARK INTER:                  -6.777
REMARK INTRA:                  -3.796
REMARK UNBOUND:                -0.311
REMARK  0 active torsions:
REMARK  status: ('A' for Active; 'I' for Inactive)
REMARK       I    between atoms: C3_3  and  O3_21 
REMARK       I    between atoms: C6_6  and  C7_7 
REMARK       I    between atoms: C8_8  and  C9_9 
REMARK       I    between atoms: C10_10  and  C11_11 
REMARK       I    between atoms: C12_12  and  C13_13 
REMARK       I    between atoms: C14_14  and  C15_15 
REMARK       I    between atoms: C23_25  and  O23_43 
REMARK       I    between atoms: C26_28  and  C27_29 
REMARK       I    between atoms: C28_30  and  C29_31 
REMARK       I    between atoms: C30_32  and  C31_33 
REMARK       I    between atoms: C32_34  and  C33_35 
REMARK       I    between atoms: C34_36  and  C35_37 
ROOT
HETATM    1  C1  STQ Y1621     -34.549 126.983   5.832  1.00 26.19    -0.018 C 
HETATM    2  C2  STQ Y1621     -34.074 126.275   4.569  1.00 26.65     0.045 C 
HETATM    3  C3  STQ Y1621     -32.870 126.860   3.857  1.00 28.07     0.123 C 
HETATM    4  C4  STQ Y1621     -31.833 127.353   4.833  1.00 30.07     0.066 C 
HETATM    5  C5  STQ Y1621     -32.464 128.350   5.750  1.00 28.83    -0.074 C 
HETATM    6  C6  STQ Y1621     -33.621 128.068   6.357  1.00 27.49    -0.048 C 
HETATM    7  C7  STQ Y1621     -34.057 128.792   7.578  1.00 29.45     0.009 C 
HETATM    8  C8  STQ Y1621     -34.510 130.047   7.545  1.00 27.83     0.007 C 
HETATM    9  C9  STQ Y1621     -34.980 130.750   8.743  1.00 26.06    -0.062 C 
HETATM   10  C10 STQ Y1621     -35.694 131.850   8.518  1.00 25.01     0.007 C 
HETATM   11  C11 STQ Y1621     -36.301 132.664   9.549  1.00 25.09     0.001 C 
HETATM   12  C12 STQ Y1621     -36.994 133.690   9.094  1.00 26.01     0.007 C 
HETATM   13  C13 STQ Y1621     -37.747 134.594   9.965  1.00 26.36    -0.062 C 
HETATM   14  C14 STQ Y1621     -38.487 135.539   9.380  1.00 27.67     0.007 C 
HETATM   15  C15 STQ Y1621     -39.297 136.454  10.169  1.00 28.38     0.001 C 
HETATM   16  C16 STQ Y1621     -34.722 125.880   6.860  1.00 26.46     0.020 C 
HETATM   17  C17 STQ Y1621     -35.895 127.637   5.555  1.00 26.61     0.020 C 
HETATM   18  C18 STQ Y1621     -31.336 129.059   6.424  1.00 29.43     0.044 C 
HETATM   19  C19 STQ Y1621     -34.690 130.249  10.121  1.00 26.07     0.048 C 
HETATM   20  C20 STQ Y1621     -37.726 134.414  11.451  1.00 25.83     0.048 C 
HETATM   21  O3  STQ Y1621     -32.286 125.850   3.038  1.00 27.44    -0.395 OA
ATOM     22  H3  STQ Y1621     -32.940 125.540   2.422  1.00  0.00     0.210 HD
HETATM   23  C21 STQ Y1621     -47.671 145.579  12.692  1.00 36.06    -0.035 C 
HETATM   24  C22 STQ Y1621     -48.473 146.373  13.698  1.00 35.97     0.045 C 
HETATM   25  C23 STQ Y1621     -47.923 147.723  14.116  1.00 37.89     0.142 C 
HETATM   26  C24 STQ Y1621     -46.420 147.734  14.187  1.00 35.66     0.007 C 
HETATM   27  C25 STQ Y1621     -45.659 146.746  13.695  1.00 33.59    -0.077 C 
HETATM   28  C26 STQ Y1621     -46.212 145.467  13.136  1.00 33.73     0.044 C 
HETATM   29  C27 STQ Y1621     -45.367 144.977  11.984  1.00 31.94    -0.016 C 
HETATM   30  C28 STQ Y1621     -44.887 143.746  12.038  1.00 31.56     0.003 C 
HETATM   31  C29 STQ Y1621     -44.078 143.174  10.965  1.00 29.73    -0.062 C 
HETATM   32  C30 STQ Y1621     -43.858 141.865  11.036  1.00 28.64     0.007 C 
HETATM   33  C31 STQ Y1621     -43.075 141.123  10.071  1.00 27.79     0.001 C 
HETATM   34  C32 STQ Y1621     -42.405 140.101  10.575  1.00 27.11     0.007 C 
HETATM   35  C33 STQ Y1621     -41.566 139.233   9.752  1.00 25.78    -0.062 C 
HETATM   36  C34 STQ Y1621     -40.872 138.250  10.331  1.00 26.10     0.007 C 
HETATM   37  C35 STQ Y1621     -40.042 137.351   9.545  1.00 27.22     0.001 C 
HETATM   38  C36 STQ Y1621     -47.800 146.199  11.304  1.00 34.31     0.016 C 
HETATM   39  C37 STQ Y1621     -48.320 144.204  12.681  1.00 37.49     0.016 C 
HETATM   40  C38 STQ Y1621     -44.181 146.896  13.739  1.00 34.38     0.044 C 
HETATM   41  C39 STQ Y1621     -43.550 144.030   9.864  1.00 32.37     0.048 C 
HETATM   42  C40 STQ Y1621     -41.514 139.460   8.285  1.00 25.14     0.048 C 
HETATM   43  O23 STQ Y1621     -48.458 147.996  15.414  1.00 41.29    -0.392 OA
ATOM     44  H23 STQ Y1621     -48.115 148.842  15.676  1.00  0.00     0.210 HD
ENDROOT
TORSDOF 12
BEGIN_RES PHE A  61
REMARK  2 active torsions:
REMARK  status: ('A' for Active; 'I' for Inactive)
REMARK    1  A    between atoms: CA   and  CB  
REMARK    2  A    between atoms: CB   and  CG  
ROOT
ATOM      1  CA  PHE A  61     -36.237 128.293  12.768  1.00 39.40     0.164 C 
ENDROOT
BRANCH   1   2
ATOM      2  CB  PHE A  61     -36.813 128.951  11.509  1.00 39.41     0.058 C 
BRANCH   2   3
ATOM      3  CG  PHE A  61     -36.961 128.019  10.330  1.00 39.01    -0.020 A 
ATOM      4  CD2 PHE A  61     -36.116 126.932  10.171  1.00 40.32    -0.004 A 
ATOM      5  CE2 PHE A  61     -36.252 126.078   9.084  1.00 40.20    -0.000 A 
ATOM      6  CZ  PHE A  61     -37.236 126.297   8.147  1.00 40.34    -0.000 A 
ATOM      7  CE1 PHE A  61     -38.085 127.372   8.292  1.00 41.51    -0.000 A 
ATOM      8  CD1 PHE A  61     -37.946 128.230   9.375  1.00 39.94    -0.004 A 
ENDBRANCH   2   3
ENDBRANCH   1   2
END_RES PHE A  61
BEGIN_RES VAL A 134
REMARK  1 active torsions:
REMARK  status: ('A' for Active; 'I' for Inactive)
REMARK    3  A    between atoms: CA   and  CB  
ROOT
ATOM      9  CA  VAL A 134     -29.766 132.051   9.815  1.00 40.75     0.159 C 
ENDROOT
BRANCH   9  10
ATOM     10  CB  VAL A 134     -30.864 132.765   9.009  1.00 40.76     0.029 C 
ATOM     11  CG1 VAL A 134     -31.178 132.000   7.732  1.00 41.76     0.002 C 
ATOM     12  CG2 VAL A 134     -32.123 132.973   9.837  1.00 40.56     0.002 C 
ENDBRANCH   9  10
END_RES VAL A 134
BEGIN_RES TYR A 338
REMARK  3 active torsions:
REMARK  status: ('A' for Active; 'I' for Inactive)
REMARK    4  A    between atoms: CA   and  CB  
REMARK    5  A    between atoms: CB   and  CG  
REMARK    6  A    between atoms: CZ   and  OH  
ROOT
ATOM     13  CA  TYR A 338     -41.631 124.950   6.058  1.00 38.23     0.164 C 
ENDROOT
BRANCH  13  14
ATOM     14  CB  TYR A 338     -41.621 126.456   6.339  1.00 39.15     0.058 C 
BRANCH  14  15
ATOM     15  CG  TYR A 338     -40.434 127.217   5.795  1.00 39.03    -0.020 A 
ATOM     16  CD2 TYR A 338     -40.238 128.545   6.134  1.00 40.65    -0.002 A 
ATOM     17  CE2 TYR A 338     -39.169 129.278   5.642  1.00 40.91     0.024 A 
ATOM     18  CZ  TYR A 338     -38.264 128.680   4.785  1.00 42.33     0.089 A 
ATOM     19  CE1 TYR A 338     -38.435 127.352   4.436  1.00 40.63     0.024 A 
ATOM     20  CD1 TYR A 338     -39.518 126.640   4.929  1.00 39.27    -0.002 A 
BRANCH  18  21
ATOM     21  OH  TYR A 338     -37.203 129.391   4.297  1.00 43.36    -0.359 OA
ATOM     22  HH  TYR A 338     -36.769 129.119   3.497  1.00  0.00     0.217 HD
ENDBRANCH  18  21
ENDBRANCH  14  15
ENDBRANCH  13  14
END_RES TYR A 338
ENDMDL
MODEL 3
REMARK VINA RESULT:   -10.156      1.852     16.808
REMARK INTER + INTRA:         -10.467
REMARK INTER:                 -10.135
REMARK INTRA:                  -0.332
REMARK UNBOUND:                -0.311
REMARK  0 active torsions:
REMARK  status: ('A' for Active; 'I' for Inactive)
REMARK       I    between atoms: C3_3  and  O3_21 
REMARK       I    between atoms: C6_6  and  C7_7 
REMARK       I    between atoms: C8_8  and  C9_9 
REMARK       I    between atoms: C10_10  and  C11_11 
REMARK       I    between atoms: C12_12  and  C13_13 
REMARK       I    between atoms: C14_14  and  C15_15 
REMARK       I    between atoms: C23_25  and  O23_43 
REMARK       I    between atoms: C26_28  and  C27_29 
REMARK       I    between atoms: C28_30  and  C29_31 
REMARK       I    between atoms: C30_32  and  C31_33 
REMARK       I    between atoms: C32_34  and  C33_35 
REMARK       I    between atoms: C34_36  and  C35_37 
ROOT
HETATM    1  C1  STQ Y1621     -49.238 145.779  13.095  1.00 26.19    -0.018 C 
HETATM    2  C2  STQ Y1621     -50.090 146.245  14.269  1.00 26.65     0.045 C 
HETATM    3  C3  STQ Y1621     -49.392 147.027  15.365  1.00 28.07     0.123 C 
HETATM    4  C4  STQ Y1621     -48.368 147.978  14.802  1.00 30.07     0.066 C 
HETATM    5  C5  STQ Y1621     -47.392 147.208  13.973  1.00 28.83    -0.074 C 
HETATM    6  C6  STQ Y1621     -47.827 146.346  13.049  1.00 27.49    -0.048 C 
HETATM    7  C7  STQ Y1621     -46.962 145.902  11.927  1.00 29.45     0.009 C 
HETATM    8  C8  STQ Y1621     -45.955 145.041  12.095  1.00 27.83     0.007 C 
HETATM    9  C9  STQ Y1621     -45.125 144.569  10.982  1.00 26.06    -0.062 C 
HETATM   10  C10 STQ Y1621     -44.390 143.489  11.233  1.00 25.01     0.007 C 
HETATM   11  C11 STQ Y1621     -43.544 142.824  10.266  1.00 25.09     0.001 C 
HETATM   12  C12 STQ Y1621     -42.934 141.749  10.726  1.00 26.01     0.007 C 
HETATM   13  C13 STQ Y1621     -42.092 140.890   9.891  1.00 26.36    -0.062 C 
HETATM   14  C14 STQ Y1621     -41.605 139.777  10.446  1.00 27.67     0.007 C 
HETATM   15  C15 STQ Y1621     -40.792 138.849   9.677  1.00 28.38     0.001 C 
HETATM   16  C16 STQ Y1621     -50.020 146.183  11.857  1.00 26.46     0.020 C 
HETATM   17  C17 STQ Y1621     -49.114 144.263  13.146  1.00 26.61     0.020 C 
HETATM   18  C18 STQ Y1621     -46.225 148.115  13.762  1.00 29.43     0.044 C 
HETATM   19  C19 STQ Y1621     -45.122 145.250   9.651  1.00 26.07     0.048 C 
HETATM   20  C20 STQ Y1621     -41.846 141.230   8.454  1.00 25.83     0.048 C 
HETATM   21  O3  STQ Y1621     -50.367 147.775  16.086  1.00 27.44    -0.395 OA
ATOM     22  H3  STQ Y1621     -51.012 147.175  16.442  1.00  0.00     0.210 HD
HETATM   23  C21 STQ Y1621     -34.230 128.386   6.987  1.00 36.06    -0.035 C 
HETATM   24  C22 STQ Y1621     -33.467 127.544   5.990  1.00 35.97     0.045 C 
HETATM   25  C23 STQ Y1621     -31.954 127.651   6.004  1.00 37.89     0.142 C 
HETATM   26  C24 STQ Y1621     -31.480 129.044   6.320  1.00 35.66     0.007 C 
HETATM   27  C25 STQ Y1621     -32.293 130.004   6.781  1.00 33.59    -0.077 C 
HETATM   28  C26 STQ Y1621     -33.780 129.846   6.915  1.00 33.73     0.044 C 
HETATM   29  C27 STQ Y1621     -34.292 130.595   8.121  1.00 31.94    -0.016 C 
HETATM   30  C28 STQ Y1621     -35.262 131.477   7.947  1.00 31.56     0.003 C 
HETATM   31  C29 STQ Y1621     -35.839 132.235   9.052  1.00 29.73    -0.062 C 
HETATM   32  C30 STQ Y1621     -36.952 132.908   8.780  1.00 28.64     0.007 C 
HETATM   33  C31 STQ Y1621     -37.663 133.721   9.743  1.00 27.79     0.001 C 
HETATM   34  C32 STQ Y1621     -38.263 134.782   9.233  1.00 27.11     0.007 C 
HETATM   35  C33 STQ Y1621     -39.034 135.716  10.050  1.00 25.78    -0.062 C 
HETATM   36  C34 STQ Y1621     -39.570 136.799   9.483  1.00 26.10     0.007 C 
HETATM   37  C35 STQ Y1621     -40.361 137.741  10.257  1.00 27.22     0.001 C 
HETATM   38  C36 STQ Y1621     -34.079 127.810   8.392  1.00 34.31     0.016 C 
HETATM   39  C37 STQ Y1621     -35.685 128.267   6.558  1.00 37.49     0.016 C 
HETATM   40  C38 STQ Y1621     -31.706 131.320   7.145  1.00 34.38     0.044 C 
HETATM   41  C39 STQ Y1621     -35.199 132.232  10.400  1.00 32.37     0.048 C 
HETATM   42  C40 STQ Y1621     -39.210 135.431  11.498  1.00 25.14     0.048 C 
HETATM   43  O23 STQ Y1621     -31.509 127.287   4.694  1.00 41.29    -0.392 OA
ATOM     44  H23 STQ Y1621     -30.562 127.354   4.702  1.00  0.00     0.210 HD
ENDROOT
TORSDOF 12
BEGIN_RES PHE A  61
REMARK  2 active torsions:
REMARK  status: ('A' for Active; 'I' for Inactive)
REMARK    1  A    between atoms: CA   and  CB  
REMARK    2  A    between atoms: CB   and  CG  
ROOT
ATOM      1  CA  PHE A  61     -36.237 128.293  12.768  1.00 39.40     0.164 C 
ENDROOT
BRANCH   1   2
ATOM      2  CB  PHE A  61     -36.813 128.951  11.509  1.00 39.41     0.058 C 
BRANCH   2   3
ATOM      3  CG  PHE A  61     -37.025 128.005  10.352  1.00 39.01    -0.020 A 
ATOM      4  CD2 PHE A  61     -36.273 126.846  10.233  1.00 40.32    -0.004 A 
ATOM      5  CE2 PHE A  61     -36.467 125.978   9.166  1.00 40.20    -0.000 A 
ATOM      6  CZ  PHE A  61     -37.415 126.256   8.208  1.00 40.34    -0.000 A 
ATOM      7  CE1 PHE A  61     -38.172 127.402   8.313  1.00 41.51    -0.000 A 
ATOM      8  CD1 PHE A  61     -37.974 128.274   9.376  1.00 39.94    -0.004 A 
ENDBRANCH   2   3
ENDBRANCH   1   2
END_RES PHE A  61
BEGIN_RES VAL A 134
REMARK  1 active torsions:
REMARK  status: ('A' for Active; 'I' for Inactive)
REMARK    3  A    between atoms: CA   and  CB  
ROOT
ATOM      9  CA  VAL A 134     -29.766 132.051   9.815  1.00 40.75     0.159 C 
ENDROOT
BRANCH   9  10
ATOM     10  CB  VAL A 134     -30.864 132.765   9.009  1.00 40.76     0.029 C 
ATOM     11  CG1 VAL A 134     -32.107 132.974   9.861  1.00 41.76     0.002 C 
ATOM     12  CG2 VAL A 134     -30.372 134.086   8.438  1.00 40.56     0.002 C 
ENDBRANCH   9  10
END_RES VAL A 134
BEGIN_RES TYR A 338
REMARK  3 active torsions:
REMARK  status: ('A' for Active; 'I' for Inactive)
REMARK    4  A    between atoms: CA   and  CB  
REMARK    5  A    between atoms: CB   and  CG  
REMARK    6  A    between atoms: CZ   and  OH  
ROOT
ATOM     13  CA  TYR A 338     -41.631 124.950   6.058  1.00 38.23     0.164 C 
ENDROOT
BRANCH  13  14
ATOM     14  CB  TYR A 338     -41.621 126.456   6.339  1.00 39.15     0.058 C 
BRANCH  14  15
ATOM     15  CG  TYR A 338     -40.423 127.214   5.813  1.00 39.03    -0.020 A 
ATOM     16  CD2 TYR A 338     -40.259 128.556   6.108  1.00 40.65    -0.002 A 
ATOM     17  CE2 TYR A 338     -39.181 129.286   5.630  1.00 40.91     0.024 A 
ATOM     18  CZ  TYR A 338     -38.235 128.670   4.833  1.00 42.33     0.089 A 
ATOM     19  CE1 TYR A 338     -38.375 127.327   4.528  1.00 40.63     0.024 A 
ATOM     20  CD1 TYR A 338     -39.467 126.618   5.005  1.00 39.27    -0.002 A 
BRANCH  18  21
ATOM     21  OH  TYR A 338     -37.166 129.378   4.360  1.00 43.36    -0.359 OA
ATOM     22  HH  TYR A 338     -36.344 128.940   4.172  1.00  0.00     0.217 HD
ENDBRANCH  18  21
ENDBRANCH  14  15
ENDBRANCH  13  14
END_RES TYR A 338
ENDMDL
