MODEL 1
REMARK VINA RESULT:   -11.655      0.000      0.000
REMARK INTER + INTRA:         -12.044
REMARK INTER:                 -11.655
REMARK INTRA:                  -0.388
REMARK UNBOUND:                -0.388
REMARK  0 active torsions:
REMARK  status: ('A' for Active; 'I' for Inactive)
REMARK       I    between atoms: C3_3  and  O3_21 
REMARK       I    between atoms: C6_6  and  C7_7 
REMARK       I    between atoms: C8_8  and  C9_9 
REMARK       I    between atoms: C10_10  and  C11_11 
REMARK       I    between atoms: C12_12  and  C13_13 
REMARK       I    between atoms: C14_14  and  C15_15 
REMARK       I    between atoms: C23_25  and  O23_43 
REMARK       I    between atoms: C26_28  and  C27_29 
REMARK       I    between atoms: C28_30  and  C29_31 
REMARK       I    between atoms: C30_32  and  C31_33 
REMARK       I    between atoms: C32_34  and  C33_35 
REMARK       I    between atoms: C34_36  and  C35_37 
ROOT
HETATM    1  C1  STQ G1620     -34.137 128.177   6.943  1.00 66.29    -0.018 C 
HETATM    2  C2  STQ G1620     -33.395 127.761   5.679  1.00 66.29     0.045 C 
HETATM    3  C3  STQ G1620     -32.087 128.463   5.348  1.00 66.29     0.123 C 
HETATM    4  C4  STQ G1620     -31.341 128.867   6.601  1.00 66.29     0.066 C 
HETATM    5  C5  STQ G1620     -32.239 129.702   7.464  1.00 66.29    -0.074 C 
HETATM    6  C6  STQ G1620     -33.508 129.342   7.686  1.00 66.29    -0.048 C 
HETATM    7  C7  STQ G1620     -34.333 130.067   8.686  1.00 66.29     0.009 C 
HETATM    8  C8  STQ G1620     -35.024 131.162   8.359  1.00 66.29     0.007 C 
HETATM    9  C9  STQ G1620     -35.857 131.889   9.325  1.00 66.29    -0.062 C 
HETATM   10  C10 STQ G1620     -36.434 133.019   8.908  1.00 66.29     0.007 C 
HETATM   11  C11 STQ G1620     -37.295 133.832   9.750  1.00 66.29     0.001 C 
HETATM   12  C12 STQ G1620     -37.954 134.795   9.123  1.00 66.29     0.007 C 
HETATM   13  C13 STQ G1620     -38.885 135.708   9.800  1.00 66.29    -0.062 C 
HETATM   14  C14 STQ G1620     -39.584 136.553   9.036  1.00 66.29     0.007 C 
HETATM   15  C15 STQ G1620     -40.552 137.484   9.592  1.00 66.29     0.001 C 
HETATM   16  C16 STQ G1620     -34.239 126.949   7.840  1.00 66.29     0.020 C 
HETATM   17  C17 STQ G1620     -35.542 128.589   6.532  1.00 66.29     0.020 C 
HETATM   18  C18 STQ G1620     -31.531 130.725   8.304  1.00 66.29     0.044 C 
HETATM   19  C19 STQ G1620     -36.055 131.370  10.717  1.00 66.29     0.048 C 
HETATM   20  C20 STQ G1620     -39.049 135.684  11.289  1.00 66.29     0.048 C 
HETATM   21  O3  STQ G1620     -31.267 127.564   4.597  1.00 66.29    -0.395 OA
ATOM     22  H3  STQ G1620     -31.734 127.310   3.810  1.00  0.00     0.210 HD
HETATM   23  C21 STQ G1620     -50.553 145.316   9.241  1.00 66.29    -0.035 C 
HETATM   24  C22 STQ G1620     -51.584 146.025  10.114  1.00 66.29     0.045 C 
HETATM   25  C23 STQ G1620     -51.365 147.526  10.265  1.00 66.29     0.142 C 
HETATM   26  C24 STQ G1620     -49.902 147.875  10.416  1.00 66.29     0.007 C 
HETATM   27  C25 STQ G1620     -48.953 147.144   9.819  1.00 66.29    -0.077 C 
HETATM   28  C26 STQ G1620     -49.131 145.658   9.691  1.00 66.29     0.044 C 
HETATM   29  C27 STQ G1620     -48.129 145.059   8.732  1.00 66.29    -0.016 C 
HETATM   30  C28 STQ G1620     -47.192 144.264   9.236  1.00 66.29     0.003 C 
HETATM   31  C29 STQ G1620     -46.181 143.620   8.385  1.00 66.29    -0.062 C 
HETATM   32  C30 STQ G1620     -45.544 142.569   8.906  1.00 66.29     0.007 C 
HETATM   33  C31 STQ G1620     -44.528 141.793   8.209  1.00 66.29     0.001 C 
HETATM   34  C32 STQ G1620     -43.925 140.858   8.932  1.00 66.29     0.007 C 
HETATM   35  C33 STQ G1620     -42.893 139.969   8.387  1.00 66.29    -0.062 C 
HETATM   36  C34 STQ G1620     -42.313 139.098   9.218  1.00 66.29     0.007 C 
HETATM   37  C35 STQ G1620     -41.301 138.169   8.737  1.00 66.29     0.001 C 
HETATM   38  C36 STQ G1620     -50.770 145.650   7.767  1.00 66.29     0.016 C 
HETATM   39  C37 STQ G1620     -50.777 143.822   9.409  1.00 66.29     0.016 C 
HETATM   40  C38 STQ G1620     -47.733 147.832   9.283  1.00 66.29     0.044 C 
HETATM   41  C39 STQ G1620     -45.886 144.123   7.002  1.00 66.29     0.048 C 
HETATM   42  C40 STQ G1620     -42.530 140.036   6.933  1.00 66.29     0.048 C 
HETATM   43  O23 STQ G1620     -52.063 147.995  11.422  1.00 66.29    -0.392 OA
ATOM     44  H23 STQ G1620     -52.982 147.777  11.327  1.00  0.00     0.210 HD
ENDROOT
TORSDOF 12
BEGIN_RES PHE A  61
REMARK  2 active torsions:
REMARK  status: ('A' for Active; 'I' for Inactive)
REMARK    1  A    between atoms: CA   and  CB  
REMARK    2  A    between atoms: CB   and  CG  
ROOT
ATOM      1  CA  PHE A  61     -36.237 128.293  12.768  1.00 39.40     0.164 C 
ENDROOT
BRANCH   1   2
ATOM      2  CB  PHE A  61     -36.813 128.951  11.509  1.00 39.41     0.058 C 
BRANCH   2   3
ATOM      3  CG  PHE A  61     -37.024 128.005  10.351  1.00 39.01    -0.020 A 
ATOM      4  CD2 PHE A  61     -36.279 126.842  10.238  1.00 40.32    -0.004 A 
ATOM      5  CE2 PHE A  61     -36.472 125.974   9.170  1.00 40.20    -0.000 A 
ATOM      6  CZ  PHE A  61     -37.414 126.257   8.208  1.00 40.34    -0.000 A 
ATOM      7  CE1 PHE A  61     -38.164 127.407   8.307  1.00 41.51    -0.000 A 
ATOM      8  CD1 PHE A  61     -37.967 128.279   9.370  1.00 39.94    -0.004 A 
ENDBRANCH   2   3
ENDBRANCH   1   2
END_RES PHE A  61
BEGIN_RES VAL A 134
REMARK  1 active torsions:
REMARK  status: ('A' for Active; 'I' for Inactive)
REMARK    3  A    between atoms: CA   and  CB  
ROOT
ATOM      9  CA  VAL A 134     -29.766 132.051   9.815  1.00 40.75     0.159 C 
ENDROOT
BRANCH   9  10
ATOM     10  CB  VAL A 134     -30.864 132.765   9.009  1.00 40.76     0.029 C 
ATOM     11  CG1 VAL A 134     -32.104 132.983   9.864  1.00 41.76     0.002 C 
ATOM     12  CG2 VAL A 134     -30.369 134.081   8.429  1.00 40.56     0.002 C 
ENDBRANCH   9  10
END_RES VAL A 134
BEGIN_RES TYR A 338
REMARK  3 active torsions:
REMARK  status: ('A' for Active; 'I' for Inactive)
REMARK    4  A    between atoms: CA   and  CB  
REMARK    5  A    between atoms: CB   and  CG  
REMARK    6  A    between atoms: CZ   and  OH  
ROOT
ATOM     13  CA  TYR A 338     -41.631 124.950   6.058  1.00 38.23     0.164 C 
ENDROOT
BRANCH  13  14
ATOM     14  CB  TYR A 338     -41.621 126.456   6.339  1.00 39.15     0.058 C 
BRANCH  14  15
ATOM     15  CG  TYR A 338     -40.421 127.213   5.818  1.00 39.03    -0.020 A 
ATOM     16  CD2 TYR A 338     -40.269 128.561   6.093  1.00 40.65    -0.002 A 
ATOM     17  CE2 TYR A 338     -39.189 129.290   5.619  1.00 40.91     0.024 A 
ATOM     18  CZ  TYR A 338     -38.227 128.667   4.846  1.00 42.33     0.089 A 
ATOM     19  CE1 TYR A 338     -38.354 127.318   4.562  1.00 40.63     0.024 A 
ATOM     20  CD1 TYR A 338     -39.449 126.611   5.035  1.00 39.27    -0.002 A 
BRANCH  18  21
ATOM     21  OH  TYR A 338     -37.156 129.374   4.377  1.00 43.36    -0.359 OA
ATOM     22  HH  TYR A 338     -36.704 129.992   4.939  1.00  0.00     0.217 HD
ENDBRANCH  18  21
ENDBRANCH  14  15
ENDBRANCH  13  14
END_RES TYR A 338
ENDMDL
MODEL 2
REMARK VINA RESULT:    -9.011      1.892     16.869
REMARK INTER + INTRA:          -9.399
REMARK INTER:                  -9.197
REMARK INTRA:                  -0.202
REMARK UNBOUND:                -0.388
REMARK  0 active torsions:
REMARK  status: ('A' for Active; 'I' for Inactive)
REMARK       I    between atoms: C3_3  and  O3_21 
REMARK       I    between atoms: C6_6  and  C7_7 
REMARK       I    between atoms: C8_8  and  C9_9 
REMARK       I    between atoms: C10_10  and  C11_11 
REMARK       I    between atoms: C12_12  and  C13_13 
REMARK       I    between atoms: C14_14  and  C15_15 
REMARK       I    between atoms: C23_25  and  O23_43 
REMARK       I    between atoms: C26_28  and  C27_29 
REMARK       I    between atoms: C28_30  and  C29_31 
REMARK       I    between atoms: C30_32  and  C31_33 
REMARK       I    between atoms: C32_34  and  C33_35 
REMARK       I    between atoms: C34_36  and  C35_37 
ROOT
HETATM    1  C1  STQ G1620     -50.126 145.152  13.151  1.00 66.29    -0.018 C 
HETATM    2  C2  STQ G1620     -50.704 145.421  14.535  1.00 66.29     0.045 C 
HETATM    3  C3  STQ G1620     -49.970 146.393  15.446  1.00 66.29     0.123 C 
HETATM    4  C4  STQ G1620     -49.283 147.485  14.654  1.00 66.29     0.066 C 
HETATM    5  C5  STQ G1620     -48.381 146.863  13.631  1.00 66.29    -0.074 C 
HETATM    6  C6  STQ G1620     -48.797 145.836  12.881  1.00 66.29    -0.048 C 
HETATM    7  C7  STQ G1620     -47.972 145.346  11.748  1.00 66.29     0.009 C 
HETATM    8  C8  STQ G1620     -47.015 144.431  11.924  1.00 66.29     0.007 C 
HETATM    9  C9  STQ G1620     -46.194 143.922  10.818  1.00 66.29    -0.062 C 
HETATM   10  C10 STQ G1620     -45.210 143.073  11.126  1.00 66.29     0.007 C 
HETATM   11  C11 STQ G1620     -44.330 142.480  10.134  1.00 66.29     0.001 C 
HETATM   12  C12 STQ G1620     -43.555 141.502  10.577  1.00 66.29     0.007 C 
HETATM   13  C13 STQ G1620     -42.613 140.769   9.722  1.00 66.29    -0.062 C 
HETATM   14  C14 STQ G1620     -41.981 139.719  10.258  1.00 66.29     0.007 C 
HETATM   15  C15 STQ G1620     -41.047 138.904   9.500  1.00 66.29     0.001 C 
HETATM   16  C16 STQ G1620     -51.173 145.573  12.128  1.00 66.29     0.020 C 
HETATM   17  C17 STQ G1620     -49.912 143.651  13.030  1.00 66.29     0.020 C 
HETATM   18  C18 STQ G1620     -47.168 147.676  13.285  1.00 66.29     0.044 C 
HETATM   19  C19 STQ G1620     -46.464 144.336   9.404  1.00 66.29     0.048 C 
HETATM   20  C20 STQ G1620     -42.378 141.177   8.299  1.00 66.29     0.048 C 
HETATM   21  O3  STQ G1620     -50.921 146.996  16.327  1.00 66.29    -0.395 OA
ATOM     22  H3  STQ G1620     -51.351 146.311  16.825  1.00  0.00     0.210 HD
HETATM   23  C21 STQ G1620     -34.254 128.467   6.969  1.00 66.29    -0.035 C 
HETATM   24  C22 STQ G1620     -33.484 127.745   5.868  1.00 66.29     0.045 C 
HETATM   25  C23 STQ G1620     -31.968 127.783   6.021  1.00 66.29     0.142 C 
HETATM   26  C24 STQ G1620     -31.480 129.128   6.505  1.00 66.29     0.007 C 
HETATM   27  C25 STQ G1620     -32.227 129.882   7.320  1.00 66.29    -0.077 C 
HETATM   28  C26 STQ G1620     -33.721 129.888   7.163  1.00 66.29     0.044 C 
HETATM   29  C27 STQ G1620     -34.401 130.536   8.347  1.00 66.29    -0.016 C 
HETATM   30  C28 STQ G1620     -35.011 131.699   8.148  1.00 66.29     0.003 C 
HETATM   31  C29 STQ G1620     -35.715 132.401   9.230  1.00 66.29    -0.062 C 
HETATM   32  C30 STQ G1620     -36.598 133.332   8.862  1.00 66.29     0.007 C 
HETATM   33  C31 STQ G1620     -37.403 134.116   9.789  1.00 66.29     0.001 C 
HETATM   34  C32 STQ G1620     -38.137 135.075   9.239  1.00 66.29     0.007 C 
HETATM   35  C33 STQ G1620     -39.024 135.947  10.018  1.00 66.29    -0.062 C 
HETATM   36  C34 STQ G1620     -39.677 136.916   9.370  1.00 66.29     0.007 C 
HETATM   37  C35 STQ G1620     -40.593 137.799  10.077  1.00 66.29     0.001 C 
HETATM   38  C36 STQ G1620     -34.214 127.670   8.270  1.00 66.29     0.016 C 
HETATM   39  C37 STQ G1620     -35.706 128.543   6.524  1.00 66.29     0.016 C 
HETATM   40  C38 STQ G1620     -31.551 130.699   8.381  1.00 66.29     0.044 C 
HETATM   41  C39 STQ G1620     -35.451 132.082  10.672  1.00 66.29     0.048 C 
HETATM   42  C40 STQ G1620     -39.194 135.728  11.492  1.00 66.29     0.048 C 
HETATM   43  O23 STQ G1620     -31.354 127.507   4.760  1.00 66.29    -0.392 OA
ATOM     44  H23 STQ G1620     -31.660 126.661   4.455  1.00  0.00     0.210 HD
ENDROOT
TORSDOF 12
BEGIN_RES PHE A  61
REMARK  2 active torsions:
REMARK  status: ('A' for Active; 'I' for Inactive)
REMARK    1  A    between atoms: CA   and  CB  
REMARK    2  A    between atoms: CB   and  CG  
ROOT
ATOM      1  CA  PHE A  61     -36.237 128.293  12.768  1.00 39.40     0.164 C 
ENDROOT
BRANCH   1   2
ATOM      2  CB  PHE A  61     -36.813 128.951  11.509  1.00 39.41     0.058 C 
BRANCH   2   3
ATOM      3  CG  PHE A  61     -37.024 128.005  10.351  1.00 39.01    -0.020 A 
ATOM      4  CD2 PHE A  61     -36.274 126.845  10.234  1.00 40.32    -0.004 A 
ATOM      5  CE2 PHE A  61     -36.467 125.977   9.167  1.00 40.20    -0.000 A 
ATOM      6  CZ  PHE A  61     -37.414 126.256   8.208  1.00 40.34    -0.000 A 
ATOM      7  CE1 PHE A  61     -38.169 127.404   8.311  1.00 41.51    -0.000 A 
ATOM      8  CD1 PHE A  61     -37.972 128.275   9.374  1.00 39.94    -0.004 A 
ENDBRANCH   2   3
ENDBRANCH   1   2
END_RES PHE A  61
BEGIN_RES VAL A 134
REMARK  1 active torsions:
REMARK  status: ('A' for Active; 'I' for Inactive)
REMARK    3  A    between atoms: CA   and  CB  
ROOT
ATOM      9  CA  VAL A 134     -29.766 132.051   9.815  1.00 40.75     0.159 C 
ENDROOT
BRANCH   9  10
ATOM     10  CB  VAL A 134     -30.864 132.765   9.009  1.00 40.76     0.029 C 
ATOM     11  CG1 VAL A 134     -32.077 133.047   9.884  1.00 41.76     0.002 C 
ATOM     12  CG2 VAL A 134     -30.349 134.046   8.371  1.00 40.56     0.002 C 
ENDBRANCH   9  10
END_RES VAL A 134
BEGIN_RES TYR A 338
REMARK  3 active torsions:
REMARK  status: ('A' for Active; 'I' for Inactive)
REMARK    4  A    between atoms: CA   and  CB  
REMARK    5  A    between atoms: CB   and  CG  
REMARK    6  A    between atoms: CZ   and  OH  
ROOT
ATOM     13  CA  TYR A 338     -41.631 124.950   6.058  1.00 38.23     0.164 C 
ENDROOT
BRANCH  13  14
ATOM     14  CB  TYR A 338     -41.621 126.456   6.339  1.00 39.15     0.058 C 
BRANCH  14  15
ATOM     15  CG  TYR A 338     -40.426 127.215   5.808  1.00 39.03    -0.020 A 
ATOM     16  CD2 TYR A 338     -40.267 128.560   6.093  1.00 40.65    -0.002 A 
ATOM     17  CE2 TYR A 338     -39.192 129.290   5.610  1.00 40.91     0.024 A 
ATOM     18  CZ  TYR A 338     -38.244 128.672   4.818  1.00 42.33     0.089 A 
ATOM     19  CE1 TYR A 338     -38.378 127.327   4.523  1.00 40.63     0.024 A 
ATOM     20  CD1 TYR A 338     -39.467 126.618   5.005  1.00 39.27    -0.002 A 
BRANCH  18  21
ATOM     21  OH  TYR A 338     -37.177 129.382   4.340  1.00 43.36    -0.359 OA
ATOM     22  HH  TYR A 338     -36.536 129.747   4.938  1.00  0.00     0.217 HD
ENDBRANCH  18  21
ENDBRANCH  14  15
ENDBRANCH  13  14
END_RES TYR A 338
ENDMDL
