MODEL 1
REMARK VINA RESULT:   -10.004      0.000      0.000
REMARK INTER + INTRA:         -12.020
REMARK INTER:                 -10.004
REMARK INTRA:                  -2.015
REMARK UNBOUND:                -2.015
REMARK  0 active torsions:
REMARK  status: ('A' for Active; 'I' for Inactive)
REMARK       I    between atoms: C3_3  and  O3_21 
REMARK       I    between atoms: C6_6  and  C7_7 
REMARK       I    between atoms: C8_8  and  C9_9 
REMARK       I    between atoms: C10_10  and  C11_11 
REMARK       I    between atoms: C12_12  and  C13_13 
REMARK       I    between atoms: C14_14  and  C15_15 
REMARK       I    between atoms: C23_25  and  O23_43 
REMARK       I    between atoms: C26_28  and  C27_29 
REMARK       I    between atoms: C28_30  and  C29_31 
REMARK       I    between atoms: C30_32  and  C31_33 
REMARK       I    between atoms: C32_34  and  C33_35 
REMARK       I    between atoms: C34_36  and  C35_37 
ROOT
HETATM    1  C1  STQ 6 619     -34.129 127.125   6.657  1.00 45.52    -0.018 C 
HETATM    2  C2  STQ 6 619     -34.421 127.452   5.194  1.00 45.52     0.045 C 
HETATM    3  C3  STQ 6 619     -33.519 128.528   4.603  1.00 45.52     0.123 C 
HETATM    4  C4  STQ 6 619     -32.145 128.446   5.242  1.00 45.52     0.066 C 
HETATM    5  C5  STQ 6 619     -32.324 128.791   6.692  1.00 45.52    -0.074 C 
HETATM    6  C6  STQ 6 619     -33.330 128.199   7.349  1.00 45.52    -0.048 C 
HETATM    7  C7  STQ 6 619     -33.861 128.774   8.588  1.00 45.52     0.009 C 
HETATM    8  C8  STQ 6 619     -34.300 130.009   8.335  1.00 45.52     0.007 C 
HETATM    9  C9  STQ 6 619     -35.040 130.815   9.330  1.00 45.52    -0.062 C 
HETATM   10  C10 STQ 6 619     -35.638 131.923   8.867  1.00 45.52     0.007 C 
HETATM   11  C11 STQ 6 619     -36.478 132.803   9.674  1.00 45.52     0.001 C 
HETATM   12  C12 STQ 6 619     -37.126 133.785   9.068  1.00 45.52     0.007 C 
HETATM   13  C13 STQ 6 619     -38.044 134.685   9.781  1.00 45.52    -0.062 C 
HETATM   14  C14 STQ 6 619     -38.750 135.516   9.005  1.00 45.52     0.007 C 
HETATM   15  C15 STQ 6 619     -39.741 136.472   9.479  1.00 45.52     0.001 C 
HETATM   16  C16 STQ 6 619     -33.297 125.850   6.733  1.00 45.52     0.020 C 
HETATM   17  C17 STQ 6 619     -35.428 126.926   7.424  1.00 45.52     0.020 C 
HETATM   18  C18 STQ 6 619     -31.464 129.896   7.255  1.00 45.52     0.044 C 
HETATM   19  C19 STQ 6 619     -35.117 130.373  10.765  1.00 45.52     0.048 C 
HETATM   20  C20 STQ 6 619     -38.146 134.629  11.276  1.00 45.52     0.048 C 
HETATM   21  O3  STQ 6 619     -33.391 128.339   3.191  1.00 45.52    -0.395 OA
ATOM     22  H3  STQ 6 619     -32.828 129.010   2.823  1.00  0.00     0.210 HD
HETATM   23  C21 STQ 6 619     -49.332 145.054   8.602  1.00 45.52    -0.035 C 
HETATM   24  C22 STQ 6 619     -50.264 145.735   9.582  1.00 45.52     0.045 C 
HETATM   25  C23 STQ 6 619     -49.810 147.125  10.004  1.00 45.52     0.142 C 
HETATM   26  C24 STQ 6 619     -48.319 147.363   9.869  1.00 45.52     0.007 C 
HETATM   27  C25 STQ 6 619     -47.447 146.430   9.457  1.00 45.52    -0.077 C 
HETATM   28  C26 STQ 6 619     -47.917 145.036   9.163  1.00 45.52     0.044 C 
HETATM   29  C27 STQ 6 619     -47.043 144.273   8.199  1.00 45.52    -0.016 C 
HETATM   30  C28 STQ 6 619     -46.258 143.328   8.696  1.00 45.52     0.003 C 
HETATM   31  C29 STQ 6 619     -45.391 142.511   7.838  1.00 45.52    -0.062 C 
HETATM   32  C30 STQ 6 619     -44.656 141.585   8.465  1.00 45.52     0.007 C 
HETATM   33  C31 STQ 6 619     -43.732 140.670   7.811  1.00 45.52     0.001 C 
HETATM   34  C32 STQ 6 619     -43.050 139.841   8.585  1.00 45.52     0.007 C 
HETATM   35  C33 STQ 6 619     -42.070 138.894   8.040  1.00 45.52    -0.062 C 
HETATM   36  C34 STQ 6 619     -41.386 138.155   8.930  1.00 45.52     0.007 C 
HETATM   37  C35 STQ 6 619     -40.371 137.179   8.555  1.00 45.52     0.001 C 
HETATM   38  C36 STQ 6 619     -49.396 145.736   7.241  1.00 45.52     0.016 C 
HETATM   39  C37 STQ 6 619     -49.817 143.620   8.449  1.00 45.52     0.016 C 
HETATM   40  C38 STQ 6 619     -46.003 146.813   9.308  1.00 45.52     0.044 C 
HETATM   41  C39 STQ 6 619     -45.401 142.726   6.354  1.00 45.52     0.048 C 
HETATM   42  C40 STQ 6 619     -41.887 138.828   6.552  1.00 45.52     0.048 C 
HETATM   43  O23 STQ 6 619     -50.222 147.340  11.359  1.00 45.52    -0.392 OA
ATOM     44  H23 STQ 6 619     -49.939 148.208  11.622  1.00  0.00     0.210 HD
ENDROOT
TORSDOF 12
BEGIN_RES PHE A  61
REMARK  2 active torsions:
REMARK  status: ('A' for Active; 'I' for Inactive)
REMARK    1  A    between atoms: CA   and  CB  
REMARK    2  A    between atoms: CB   and  CG  
ROOT
ATOM      1  CA  PHE A  61     -36.237 128.293  12.768  1.00 39.40     0.164 C 
ENDROOT
BRANCH   1   2
ATOM      2  CB  PHE A  61     -36.813 128.951  11.509  1.00 39.41     0.058 C 
BRANCH   2   3
ATOM      3  CG  PHE A  61     -37.116 127.989  10.385  1.00 39.01    -0.020 A 
ATOM      4  CD2 PHE A  61     -38.049 128.305   9.410  1.00 40.32    -0.004 A 
ATOM      5  CE2 PHE A  61     -38.330 127.418   8.379  1.00 40.20    -0.000 A 
ATOM      6  CZ  PHE A  61     -37.678 126.207   8.308  1.00 40.34    -0.000 A 
ATOM      7  CE1 PHE A  61     -36.746 125.879   9.268  1.00 41.51    -0.000 A 
ATOM      8  CD1 PHE A  61     -36.471 126.763  10.303  1.00 39.94    -0.004 A 
ENDBRANCH   2   3
ENDBRANCH   1   2
END_RES PHE A  61
BEGIN_RES VAL A 134
REMARK  1 active torsions:
REMARK  status: ('A' for Active; 'I' for Inactive)
REMARK    3  A    between atoms: CA   and  CB  
ROOT
ATOM      9  CA  VAL A 134     -29.766 132.051   9.815  1.00 40.75     0.159 C 
ENDROOT
BRANCH   9  10
ATOM     10  CB  VAL A 134     -30.864 132.765   9.009  1.00 40.76     0.029 C 
ATOM     11  CG1 VAL A 134     -30.938 132.212   7.593  1.00 41.76     0.002 C 
ATOM     12  CG2 VAL A 134     -32.217 132.671   9.698  1.00 40.56     0.002 C 
ENDBRANCH   9  10
END_RES VAL A 134
BEGIN_RES TYR A 338
REMARK  3 active torsions:
REMARK  status: ('A' for Active; 'I' for Inactive)
REMARK    4  A    between atoms: CA   and  CB  
REMARK    5  A    between atoms: CB   and  CG  
REMARK    6  A    between atoms: CZ   and  OH  
ROOT
ATOM     13  CA  TYR A 338     -41.631 124.950   6.058  1.00 38.23     0.164 C 
ENDROOT
BRANCH  13  14
ATOM     14  CB  TYR A 338     -41.621 126.456   6.339  1.00 39.15     0.058 C 
BRANCH  14  15
ATOM     15  CG  TYR A 338     -40.394 127.203   5.869  1.00 39.03    -0.020 A 
ATOM     16  CD2 TYR A 338     -40.234 128.545   6.167  1.00 40.65    -0.002 A 
ATOM     17  CE2 TYR A 338     -39.129 129.265   5.739  1.00 40.91     0.024 A 
ATOM     18  CZ  TYR A 338     -38.151 128.640   4.990  1.00 42.33     0.089 A 
ATOM     19  CE1 TYR A 338     -38.286 127.297   4.683  1.00 40.63     0.024 A 
ATOM     20  CD1 TYR A 338     -39.405 126.598   5.109  1.00 39.27    -0.002 A 
BRANCH  18  21
ATOM     21  OH  TYR A 338     -37.055 129.339   4.566  1.00 43.36    -0.359 OA
ATOM     22  HH  TYR A 338     -37.146 130.032   3.923  1.00  0.00     0.217 HD
ENDBRANCH  18  21
ENDBRANCH  14  15
ENDBRANCH  13  14
END_RES TYR A 338
ENDMDL
MODEL 2
REMARK VINA RESULT:    -7.808      1.778     16.389
REMARK INTER + INTRA:          -9.823
REMARK INTER:                  -9.630
REMARK INTRA:                  -0.193
REMARK UNBOUND:                -2.015
REMARK  0 active torsions:
REMARK  status: ('A' for Active; 'I' for Inactive)
REMARK       I    between atoms: C3_3  and  O3_21 
REMARK       I    between atoms: C6_6  and  C7_7 
REMARK       I    between atoms: C8_8  and  C9_9 
REMARK       I    between atoms: C10_10  and  C11_11 
REMARK       I    between atoms: C12_12  and  C13_13 
REMARK       I    between atoms: C14_14  and  C15_15 
REMARK       I    between atoms: C23_25  and  O23_43 
REMARK       I    between atoms: C26_28  and  C27_29 
REMARK       I    between atoms: C28_30  and  C29_31 
REMARK       I    between atoms: C30_32  and  C31_33 
REMARK       I    between atoms: C32_34  and  C33_35 
REMARK       I    between atoms: C34_36  and  C35_37 
ROOT
HETATM    1  C1  STQ 6 619     -51.060 144.122  11.597  1.00 45.52    -0.018 C 
HETATM    2  C2  STQ 6 619     -51.065 143.282  12.872  1.00 45.52     0.045 C 
HETATM    3  C3  STQ 6 619     -50.075 143.748  13.931  1.00 45.52     0.123 C 
HETATM    4  C4  STQ 6 619     -49.924 145.256  13.858  1.00 45.52     0.066 C 
HETATM    5  C5  STQ 6 619     -49.299 145.562  12.527  1.00 45.52    -0.074 C 
HETATM    6  C6  STQ 6 619     -49.812 144.953  11.449  1.00 45.52    -0.048 C 
HETATM    7  C7  STQ 6 619     -49.031 144.826  10.216  1.00 45.52     0.009 C 
HETATM    8  C8  STQ 6 619     -47.909 144.153  10.485  1.00 45.52     0.007 C 
HETATM    9  C9  STQ 6 619     -46.968 143.711   9.433  1.00 45.52    -0.062 C 
HETATM   10  C10 STQ 6 619     -46.027 142.835   9.812  1.00 45.52     0.007 C 
HETATM   11  C11 STQ 6 619     -45.060 142.223   8.904  1.00 45.52     0.001 C 
HETATM   12  C12 STQ 6 619     -44.273 141.267   9.374  1.00 45.52     0.007 C 
HETATM   13  C13 STQ 6 619     -43.313 140.547   8.527  1.00 45.52    -0.062 C 
HETATM   14  C14 STQ 6 619     -42.713 139.498   9.103  1.00 45.52     0.007 C 
HETATM   15  C15 STQ 6 619     -41.752 138.617   8.455  1.00 45.52     0.001 C 
HETATM   16  C16 STQ 6 619     -52.229 145.100  11.631  1.00 45.52     0.020 C 
HETATM   17  C17 STQ 6 619     -51.186 143.227  10.374  1.00 45.52     0.020 C 
HETATM   18  C18 STQ 6 619     -48.043 146.398  12.526  1.00 45.52     0.044 C 
HETATM   19  C19 STQ 6 619     -47.107 144.218   8.024  1.00 45.52     0.048 C 
HETATM   20  C20 STQ 6 619     -43.064 140.997   7.118  1.00 45.52     0.048 C 
HETATM   21  O3  STQ 6 619     -50.543 143.387  15.234  1.00 45.52    -0.395 OA
ATOM     22  H3  STQ 6 619     -49.925 143.678  15.894  1.00  0.00     0.210 HD
HETATM   23  C21 STQ 6 619     -34.241 128.225   7.042  1.00 45.52    -0.035 C 
HETATM   24  C22 STQ 6 619     -33.439 127.618   5.910  1.00 45.52     0.045 C 
HETATM   25  C23 STQ 6 619     -31.964 127.989   5.929  1.00 45.52     0.142 C 
HETATM   26  C24 STQ 6 619     -31.653 129.282   6.657  1.00 45.52     0.007 C 
HETATM   27  C25 STQ 6 619     -32.587 130.072   7.208  1.00 45.52    -0.077 C 
HETATM   28  C26 STQ 6 619     -34.042 129.733   7.064  1.00 45.52     0.044 C 
HETATM   29  C27 STQ 6 619     -34.925 130.304   8.147  1.00 45.52    -0.016 C 
HETATM   30  C28 STQ 6 619     -35.688 131.342   7.836  1.00 45.52     0.003 C 
HETATM   31  C29 STQ 6 619     -36.602 131.951   8.809  1.00 45.52    -0.062 C 
HETATM   32  C30 STQ 6 619     -37.323 132.987   8.363  1.00 45.52     0.007 C 
HETATM   33  C31 STQ 6 619     -38.286 133.735   9.157  1.00 45.52     0.001 C 
HETATM   34  C32 STQ 6 619     -38.885 134.761   8.573  1.00 45.52     0.007 C 
HETATM   35  C33 STQ 6 619     -39.853 135.605   9.283  1.00 45.52    -0.062 C 
HETATM   36  C34 STQ 6 619     -40.340 136.661   8.610  1.00 45.52     0.007 C 
HETATM   37  C35 STQ 6 619     -41.299 137.603   9.174  1.00 45.52     0.001 C 
HETATM   38  C36 STQ 6 619     -33.863 127.580   8.370  1.00 45.52     0.016 C 
HETATM   39  C37 STQ 6 619     -35.706 127.928   6.758  1.00 45.52     0.016 C 
HETATM   40  C38 STQ 6 619     -32.143 131.296   7.955  1.00 45.52     0.044 C 
HETATM   41  C39 STQ 6 619     -36.701 131.379  10.192  1.00 45.52     0.048 C 
HETATM   42  C40 STQ 6 619     -40.214 135.250  10.697  1.00 45.52     0.048 C 
HETATM   43  O23 STQ 6 619     -31.501 128.063   4.575  1.00 45.52    -0.392 OA
ATOM     44  H23 STQ 6 619     -30.580 128.295   4.587  1.00  0.00     0.210 HD
ENDROOT
TORSDOF 12
BEGIN_RES PHE A  61
REMARK  2 active torsions:
REMARK  status: ('A' for Active; 'I' for Inactive)
REMARK    1  A    between atoms: CA   and  CB  
REMARK    2  A    between atoms: CB   and  CG  
ROOT
ATOM      1  CA  PHE A  61     -36.237 128.293  12.768  1.00 39.40     0.164 C 
ENDROOT
BRANCH   1   2
ATOM      2  CB  PHE A  61     -36.813 128.951  11.509  1.00 39.41     0.058 C 
BRANCH   2   3
ATOM      3  CG  PHE A  61     -37.054 127.999  10.362  1.00 39.01    -0.020 A 
ATOM      4  CD2 PHE A  61     -36.291 126.851  10.218  1.00 40.32    -0.004 A 
ATOM      5  CE2 PHE A  61     -36.511 125.978   9.160  1.00 40.20    -0.000 A 
ATOM      6  CZ  PHE A  61     -37.499 126.240   8.238  1.00 40.34    -0.000 A 
ATOM      7  CE1 PHE A  61     -38.267 127.376   8.368  1.00 41.51    -0.000 A 
ATOM      8  CD1 PHE A  61     -38.043 128.252   9.422  1.00 39.94    -0.004 A 
ENDBRANCH   2   3
ENDBRANCH   1   2
END_RES PHE A  61
BEGIN_RES VAL A 134
REMARK  1 active torsions:
REMARK  status: ('A' for Active; 'I' for Inactive)
REMARK    3  A    between atoms: CA   and  CB  
ROOT
ATOM      9  CA  VAL A 134     -29.766 132.051   9.815  1.00 40.75     0.159 C 
ENDROOT
BRANCH   9  10
ATOM     10  CB  VAL A 134     -30.864 132.765   9.009  1.00 40.76     0.029 C 
ATOM     11  CG1 VAL A 134     -32.103 132.984   9.864  1.00 41.76     0.002 C 
ATOM     12  CG2 VAL A 134     -30.369 134.081   8.429  1.00 40.56     0.002 C 
ENDBRANCH   9  10
END_RES VAL A 134
BEGIN_RES TYR A 338
REMARK  3 active torsions:
REMARK  status: ('A' for Active; 'I' for Inactive)
REMARK    4  A    between atoms: CA   and  CB  
REMARK    5  A    between atoms: CB   and  CG  
REMARK    6  A    between atoms: CZ   and  OH  
ROOT
ATOM     13  CA  TYR A 338     -41.631 124.950   6.058  1.00 38.23     0.164 C 
ENDROOT
BRANCH  13  14
ATOM     14  CB  TYR A 338     -41.621 126.456   6.339  1.00 39.15     0.058 C 
BRANCH  14  15
ATOM     15  CG  TYR A 338     -40.414 127.210   5.831  1.00 39.03    -0.020 A 
ATOM     16  CD2 TYR A 338     -40.248 128.551   6.132  1.00 40.65    -0.002 A 
ATOM     17  CE2 TYR A 338     -39.161 129.278   5.669  1.00 40.91     0.024 A 
ATOM     18  CZ  TYR A 338     -38.207 128.660   4.883  1.00 42.33     0.089 A 
ATOM     19  CE1 TYR A 338     -38.349 127.319   4.572  1.00 40.63     0.024 A 
ATOM     20  CD1 TYR A 338     -39.449 126.614   5.034  1.00 39.27    -0.002 A 
BRANCH  18  21
ATOM     21  OH  TYR A 338     -37.130 129.366   4.425  1.00 43.36    -0.359 OA
ATOM     22  HH  TYR A 338     -36.623 129.908   5.018  1.00  0.00     0.217 HD
ENDBRANCH  18  21
ENDBRANCH  14  15
ENDBRANCH  13  14
END_RES TYR A 338
ENDMDL
