MODEL 1
REMARK VINA RESULT:   -11.249      0.000      0.000
REMARK INTER + INTRA:         -13.758
REMARK INTER:                 -11.249
REMARK INTRA:                  -2.509
REMARK UNBOUND:                -2.509
REMARK  0 active torsions:
REMARK  status: ('A' for Active; 'I' for Inactive)
REMARK       I    between atoms: C3_3  and  O3_21 
REMARK       I    between atoms: C6_6  and  C7_7 
REMARK       I    between atoms: C8_8  and  C9_9 
REMARK       I    between atoms: C10_10  and  C11_11 
REMARK       I    between atoms: C12_12  and  C13_13 
REMARK       I    between atoms: C14_14  and  C15_15 
REMARK       I    between atoms: C23_25  and  O23_43 
REMARK       I    between atoms: C26_28  and  C27_29 
REMARK       I    between atoms: C28_30  and  C29_31 
REMARK       I    between atoms: C30_32  and  C31_33 
REMARK       I    between atoms: C32_34  and  C33_35 
REMARK       I    between atoms: C34_36  and  C35_37 
ROOT
HETATM    1  C1  STQ Y1620     -34.298 127.142   6.595  1.00 33.25    -0.018 C 
HETATM    2  C2  STQ Y1620     -33.947 126.786   5.159  1.00 33.25     0.045 C 
HETATM    3  C3  STQ Y1620     -32.769 127.510   4.532  1.00 33.25     0.123 C 
HETATM    4  C4  STQ Y1620     -31.693 127.776   5.545  1.00 33.25     0.066 C 
HETATM    5  C5  STQ Y1620     -32.249 128.557   6.681  1.00 33.25    -0.074 C 
HETATM    6  C6  STQ Y1620     -33.448 128.257   7.178  1.00 33.25    -0.048 C 
HETATM    7  C7  STQ Y1620     -33.958 129.020   8.332  1.00 33.25     0.009 C 
HETATM    8  C8  STQ Y1620     -34.728 130.077   8.128  1.00 33.25     0.007 C 
HETATM    9  C9  STQ Y1620     -35.280 130.880   9.211  1.00 33.25    -0.062 C 
HETATM   10  C10 STQ Y1620     -35.849 132.012   8.817  1.00 33.25     0.007 C 
HETATM   11  C11 STQ Y1620     -36.492 132.971   9.680  1.00 33.25     0.001 C 
HETATM   12  C12 STQ Y1620     -37.264 133.790   8.997  1.00 33.25     0.007 C 
HETATM   13  C13 STQ Y1620     -38.070 134.815   9.635  1.00 33.25    -0.062 C 
HETATM   14  C14 STQ Y1620     -38.864 135.529   8.850  1.00 33.25     0.007 C 
HETATM   15  C15 STQ Y1620     -39.748 136.524   9.414  1.00 33.25     0.001 C 
HETATM   16  C16 STQ Y1620     -34.209 125.850   7.402  1.00 33.25     0.020 C 
HETATM   17  C17 STQ Y1620     -35.742 127.609   6.598  1.00 33.25     0.020 C 
HETATM   18  C18 STQ Y1620     -31.354 129.616   7.245  1.00 33.25     0.044 C 
HETATM   19  C19 STQ Y1620     -35.189 130.442  10.637  1.00 33.25     0.048 C 
HETATM   20  C20 STQ Y1620     -38.022 135.013  11.112  1.00 33.25     0.048 C 
HETATM   21  O3  STQ Y1620     -32.191 126.685   3.524  1.00 33.25    -0.395 OA
ATOM     22  H3  STQ Y1620     -31.455 127.138   3.132  1.00  0.00     0.210 HD
HETATM   23  C21 STQ Y1620     -49.744 144.194   9.877  1.00 33.25    -0.035 C 
HETATM   24  C22 STQ Y1620     -50.622 145.048  10.776  1.00 33.25     0.045 C 
HETATM   25  C23 STQ Y1620     -50.352 146.539  10.684  1.00 33.25     0.142 C 
HETATM   26  C24 STQ Y1620     -48.880 146.851  10.637  1.00 33.25     0.007 C 
HETATM   27  C25 STQ Y1620     -47.968 145.957  10.250  1.00 33.25    -0.077 C 
HETATM   28  C26 STQ Y1620     -48.273 144.483  10.169  1.00 33.25     0.044 C 
HETATM   29  C27 STQ Y1620     -47.403 143.827   9.124  1.00 33.25    -0.016 C 
HETATM   30  C28 STQ Y1620     -46.523 142.933   9.531  1.00 33.25     0.003 C 
HETATM   31  C29 STQ Y1620     -45.645 142.252   8.582  1.00 33.25    -0.062 C 
HETATM   32  C30 STQ Y1620     -45.020 141.178   9.042  1.00 33.25     0.007 C 
HETATM   33  C31 STQ Y1620     -44.122 140.374   8.246  1.00 33.25     0.001 C 
HETATM   34  C32 STQ Y1620     -43.307 139.629   8.959  1.00 33.25     0.007 C 
HETATM   35  C33 STQ Y1620     -42.352 138.728   8.328  1.00 33.25    -0.062 C 
HETATM   36  C34 STQ Y1620     -41.574 138.017   9.133  1.00 33.25     0.007 C 
HETATM   37  C35 STQ Y1620     -40.632 137.060   8.600  1.00 33.25     0.001 C 
HETATM   38  C36 STQ Y1620     -50.089 144.387   8.402  1.00 33.25     0.016 C 
HETATM   39  C37 STQ Y1620     -50.054 142.749  10.225  1.00 33.25     0.016 C 
HETATM   40  C38 STQ Y1620     -46.606 146.473   9.909  1.00 33.25     0.044 C 
HETATM   41  C39 STQ Y1620     -45.455 142.743   7.182  1.00 33.25     0.048 C 
HETATM   42  C40 STQ Y1620     -42.286 138.601   6.843  1.00 33.25     0.048 C 
HETATM   43  O23 STQ Y1620     -50.903 147.173  11.841  1.00 33.25    -0.392 OA
ATOM     44  H23 STQ Y1620     -50.734 148.106  11.783  1.00  0.00     0.210 HD
ENDROOT
TORSDOF 12
BEGIN_RES PHE A  61
REMARK  2 active torsions:
REMARK  status: ('A' for Active; 'I' for Inactive)
REMARK    1  A    between atoms: CA   and  CB  
REMARK    2  A    between atoms: CB   and  CG  
ROOT
ATOM      1  CA  PHE A  61     -36.237 128.293  12.768  1.00 39.40     0.164 C 
ENDROOT
BRANCH   1   2
ATOM      2  CB  PHE A  61     -36.813 128.951  11.509  1.00 39.41     0.058 C 
BRANCH   2   3
ATOM      3  CG  PHE A  61     -37.081 127.994  10.372  1.00 39.01    -0.020 A 
ATOM      4  CD2 PHE A  61     -36.353 126.822  10.241  1.00 40.32    -0.004 A 
ATOM      5  CE2 PHE A  61     -36.598 125.945   9.193  1.00 40.20    -0.000 A 
ATOM      6  CZ  PHE A  61     -37.576 126.227   8.266  1.00 40.34    -0.000 A 
ATOM      7  CE1 PHE A  61     -38.309 127.386   8.383  1.00 41.51    -0.000 A 
ATOM      8  CD1 PHE A  61     -38.060 128.267   9.427  1.00 39.94    -0.004 A 
ENDBRANCH   2   3
ENDBRANCH   1   2
END_RES PHE A  61
BEGIN_RES VAL A 134
REMARK  1 active torsions:
REMARK  status: ('A' for Active; 'I' for Inactive)
REMARK    3  A    between atoms: CA   and  CB  
ROOT
ATOM      9  CA  VAL A 134     -29.766 132.051   9.815  1.00 40.75     0.159 C 
ENDROOT
BRANCH   9  10
ATOM     10  CB  VAL A 134     -30.864 132.765   9.009  1.00 40.76     0.029 C 
ATOM     11  CG1 VAL A 134     -30.880 132.273   7.569  1.00 41.76     0.002 C 
ATOM     12  CG2 VAL A 134     -32.232 132.597   9.653  1.00 40.56     0.002 C 
ENDBRANCH   9  10
END_RES VAL A 134
BEGIN_RES TYR A 338
REMARK  3 active torsions:
REMARK  status: ('A' for Active; 'I' for Inactive)
REMARK    4  A    between atoms: CA   and  CB  
REMARK    5  A    between atoms: CB   and  CG  
REMARK    6  A    between atoms: CZ   and  OH  
ROOT
ATOM     13  CA  TYR A 338     -41.631 124.950   6.058  1.00 38.23     0.164 C 
ENDROOT
BRANCH  13  14
ATOM     14  CB  TYR A 338     -41.621 126.456   6.339  1.00 39.15     0.058 C 
BRANCH  14  15
ATOM     15  CG  TYR A 338     -40.412 127.210   5.834  1.00 39.03    -0.020 A 
ATOM     16  CD2 TYR A 338     -40.242 128.549   6.142  1.00 40.65    -0.002 A 
ATOM     17  CE2 TYR A 338     -39.154 129.275   5.683  1.00 40.91     0.024 A 
ATOM     18  CZ  TYR A 338     -38.202 128.659   4.892  1.00 42.33     0.089 A 
ATOM     19  CE1 TYR A 338     -38.348 127.320   4.575  1.00 40.63     0.024 A 
ATOM     20  CD1 TYR A 338     -39.450 126.615   5.033  1.00 39.27    -0.002 A 
BRANCH  18  21
ATOM     21  OH  TYR A 338     -37.123 129.364   4.437  1.00 43.36    -0.359 OA
ATOM     22  HH  TYR A 338     -36.255 129.188   4.781  1.00  0.00     0.217 HD
ENDBRANCH  18  21
ENDBRANCH  14  15
ENDBRANCH  13  14
END_RES TYR A 338
ENDMDL
