MODEL 1
REMARK VINA RESULT:   -12.018      0.000      0.000
REMARK INTER + INTRA:         -12.506
REMARK INTER:                 -12.018
REMARK INTRA:                  -0.489
REMARK UNBOUND:                -0.489
REMARK  0 active torsions:
REMARK  status: ('A' for Active; 'I' for Inactive)
REMARK       I    between atoms: C3_3  and  O3_21 
REMARK       I    between atoms: C6_6  and  C7_7 
REMARK       I    between atoms: C8_8  and  C9_9 
REMARK       I    between atoms: C10_10  and  C11_11 
REMARK       I    between atoms: C12_12  and  C13_13 
REMARK       I    between atoms: C14_14  and  C15_15 
REMARK       I    between atoms: C23_25  and  O23_43 
REMARK       I    between atoms: C26_28  and  C27_29 
REMARK       I    between atoms: C28_30  and  C29_31 
REMARK       I    between atoms: C30_32  and  C31_33 
REMARK       I    between atoms: C32_34  and  C33_35 
REMARK       I    between atoms: C34_36  and  C35_37 
ROOT
HETATM    1  C1  STQ Z 617     -49.884 144.155  12.572  1.00 32.73    -0.018 C 
HETATM    2  C2  STQ Z 617     -50.977 144.745  13.443  1.00 32.73     0.045 C 
HETATM    3  C3  STQ Z 617     -50.405 145.416  14.669  1.00 32.73     0.123 C 
HETATM    4  C4  STQ Z 617     -49.532 146.573  14.244  1.00 32.73     0.066 C 
HETATM    5  C5  STQ Z 617     -48.552 146.193  13.163  1.00 32.73    -0.074 C 
HETATM    6  C6  STQ Z 617     -48.704 145.103  12.379  1.00 32.73    -0.048 C 
HETATM    7  C7  STQ Z 617     -47.747 144.844  11.265  1.00 32.73     0.009 C 
HETATM    8  C8  STQ Z 617     -46.591 144.182  11.418  1.00 32.73     0.007 C 
HETATM    9  C9  STQ Z 617     -45.650 143.921  10.319  1.00 32.73    -0.062 C 
HETATM   10  C10 STQ Z 617     -44.799 142.913  10.513  1.00 32.73     0.007 C 
HETATM   11  C11 STQ Z 617     -43.793 142.457   9.567  1.00 32.73     0.001 C 
HETATM   12  C12 STQ Z 617     -43.150 141.380   9.997  1.00 32.73     0.007 C 
HETATM   13  C13 STQ Z 617     -42.110 140.654   9.263  1.00 32.73    -0.062 C 
HETATM   14  C14 STQ Z 617     -41.666 139.535   9.840  1.00 32.73     0.007 C 
HETATM   15  C15 STQ Z 617     -40.675 138.665   9.235  1.00 32.73     0.001 C 
HETATM   16  C16 STQ Z 617     -50.578 143.728  11.282  1.00 32.73     0.020 C 
HETATM   17  C17 STQ Z 617     -49.336 142.905  13.240  1.00 32.73     0.020 C 
HETATM   18  C18 STQ Z 617     -47.433 147.179  12.983  1.00 32.73     0.044 C 
HETATM   19  C19 STQ Z 617     -45.638 144.759   9.077  1.00 32.73     0.048 C 
HETATM   20  C20 STQ Z 617     -41.601 141.118   7.931  1.00 32.73     0.048 C 
HETATM   21  O3  STQ Z 617     -51.466 145.917  15.485  1.00 32.73    -0.395 OA
ATOM     22  H3  STQ Z 617     -51.107 146.340  16.255  1.00  0.00     0.210 HD
HETATM   23  C21 STQ Z 617     -34.096 128.147   6.851  1.00 32.73    -0.035 C 
HETATM   24  C22 STQ Z 617     -33.301 127.549   5.698  1.00 32.73     0.045 C 
HETATM   25  C23 STQ Z 617     -31.794 127.765   5.756  1.00 32.73     0.142 C 
HETATM   26  C24 STQ Z 617     -31.418 129.114   6.321  1.00 32.73     0.007 C 
HETATM   27  C25 STQ Z 617     -32.223 129.782   7.156  1.00 32.73    -0.077 C 
HETATM   28  C26 STQ Z 617     -33.716 129.612   7.070  1.00 32.73     0.044 C 
HETATM   29  C27 STQ Z 617     -34.427 130.139   8.295  1.00 32.73    -0.016 C 
HETATM   30  C28 STQ Z 617     -35.186 131.217   8.142  1.00 32.73     0.003 C 
HETATM   31  C29 STQ Z 617     -35.951 131.816   9.243  1.00 32.73    -0.062 C 
HETATM   32  C30 STQ Z 617     -36.870 132.710   8.884  1.00 32.73     0.007 C 
HETATM   33  C31 STQ Z 617     -37.755 133.421   9.788  1.00 32.73     0.001 C 
HETATM   34  C32 STQ Z 617     -38.240 134.535   9.261  1.00 32.73     0.007 C 
HETATM   35  C33 STQ Z 617     -39.163 135.449   9.940  1.00 32.73    -0.062 C 
HETATM   36  C34 STQ Z 617     -39.584 136.511   9.248  1.00 32.73     0.007 C 
HETATM   37  C35 STQ Z 617     -40.521 137.475   9.801  1.00 32.73     0.001 C 
HETATM   38  C36 STQ Z 617     -33.909 127.324   8.125  1.00 32.73     0.016 C 
HETATM   39  C37 STQ Z 617     -35.569 128.066   6.464  1.00 32.73     0.016 C 
HETATM   40  C38 STQ Z 617     -31.610 130.706   8.163  1.00 32.73     0.044 C 
HETATM   41  C39 STQ Z 617     -35.718 131.439  10.674  1.00 32.73     0.048 C 
HETATM   42  C40 STQ Z 617     -39.601 135.199  11.351  1.00 32.73     0.048 C 
HETATM   43  O23 STQ Z 617     -31.274 127.664   4.426  1.00 32.73    -0.392 OA
ATOM     44  H23 STQ Z 617     -30.334 127.798   4.462  1.00  0.00     0.210 HD
ENDROOT
TORSDOF 12
BEGIN_RES PHE A  61
REMARK  2 active torsions:
REMARK  status: ('A' for Active; 'I' for Inactive)
REMARK    1  A    between atoms: CA   and  CB  
REMARK    2  A    between atoms: CB   and  CG  
ROOT
ATOM      1  CA  PHE A  61     -36.237 128.293  12.768  1.00 39.40     0.164 C 
ENDROOT
BRANCH   1   2
ATOM      2  CB  PHE A  61     -36.813 128.951  11.509  1.00 39.41     0.058 C 
BRANCH   2   3
ATOM      3  CG  PHE A  61     -37.016 128.006  10.349  1.00 39.01    -0.020 A 
ATOM      4  CD2 PHE A  61     -36.255 126.855  10.226  1.00 40.32    -0.004 A 
ATOM      5  CE2 PHE A  61     -36.441 125.989   9.156  1.00 40.20    -0.000 A 
ATOM      6  CZ  PHE A  61     -37.392 126.261   8.200  1.00 40.34    -0.000 A 
ATOM      7  CE1 PHE A  61     -38.159 127.400   8.308  1.00 41.51    -0.000 A 
ATOM      8  CD1 PHE A  61     -37.969 128.270   9.374  1.00 39.94    -0.004 A 
ENDBRANCH   2   3
ENDBRANCH   1   2
END_RES PHE A  61
BEGIN_RES VAL A 134
REMARK  1 active torsions:
REMARK  status: ('A' for Active; 'I' for Inactive)
REMARK    3  A    between atoms: CA   and  CB  
ROOT
ATOM      9  CA  VAL A 134     -29.766 132.051   9.815  1.00 40.75     0.159 C 
ENDROOT
BRANCH   9  10
ATOM     10  CB  VAL A 134     -30.864 132.765   9.009  1.00 40.76     0.029 C 
ATOM     11  CG1 VAL A 134     -32.107 132.974   9.861  1.00 41.76     0.002 C 
ATOM     12  CG2 VAL A 134     -30.372 134.086   8.438  1.00 40.56     0.002 C 
ENDBRANCH   9  10
END_RES VAL A 134
BEGIN_RES TYR A 338
REMARK  3 active torsions:
REMARK  status: ('A' for Active; 'I' for Inactive)
REMARK    4  A    between atoms: CA   and  CB  
REMARK    5  A    between atoms: CB   and  CG  
REMARK    6  A    between atoms: CZ   and  OH  
ROOT
ATOM     13  CA  TYR A 338     -41.631 124.950   6.058  1.00 38.23     0.164 C 
ENDROOT
BRANCH  13  14
ATOM     14  CB  TYR A 338     -41.621 126.456   6.339  1.00 39.15     0.058 C 
BRANCH  14  15
ATOM     15  CG  TYR A 338     -40.420 127.212   5.819  1.00 39.03    -0.020 A 
ATOM     16  CD2 TYR A 338     -40.262 128.558   6.105  1.00 40.65    -0.002 A 
ATOM     17  CE2 TYR A 338     -39.182 129.286   5.632  1.00 40.91     0.024 A 
ATOM     18  CZ  TYR A 338     -38.226 128.666   4.849  1.00 42.33     0.089 A 
ATOM     19  CE1 TYR A 338     -38.359 127.321   4.554  1.00 40.63     0.024 A 
ATOM     20  CD1 TYR A 338     -39.454 126.613   5.026  1.00 39.27    -0.002 A 
BRANCH  18  21
ATOM     21  OH  TYR A 338     -37.154 129.374   4.381  1.00 43.36    -0.359 OA
ATOM     22  HH  TYR A 338     -37.120 130.318   4.482  1.00  0.00     0.217 HD
ENDBRANCH  18  21
ENDBRANCH  14  15
ENDBRANCH  13  14
END_RES TYR A 338
ENDMDL
MODEL 2
REMARK VINA RESULT:   -10.636      1.409     16.651
REMARK INTER + INTRA:         -11.125
REMARK INTER:                  -6.390
REMARK INTRA:                  -4.735
REMARK UNBOUND:                -0.489
REMARK  0 active torsions:
REMARK  status: ('A' for Active; 'I' for Inactive)
REMARK       I    between atoms: C3_3  and  O3_21 
REMARK       I    between atoms: C6_6  and  C7_7 
REMARK       I    between atoms: C8_8  and  C9_9 
REMARK       I    between atoms: C10_10  and  C11_11 
REMARK       I    between atoms: C12_12  and  C13_13 
REMARK       I    between atoms: C14_14  and  C15_15 
REMARK       I    between atoms: C23_25  and  O23_43 
REMARK       I    between atoms: C26_28  and  C27_29 
REMARK       I    between atoms: C28_30  and  C29_31 
REMARK       I    between atoms: C30_32  and  C31_33 
REMARK       I    between atoms: C32_34  and  C33_35 
REMARK       I    between atoms: C34_36  and  C35_37 
ROOT
HETATM    1  C1  STQ Z 617     -34.550 126.993   5.262  1.00 32.73    -0.018 C 
HETATM    2  C2  STQ Z 617     -33.829 126.051   4.318  1.00 32.73     0.045 C 
HETATM    3  C3  STQ Z 617     -32.720 126.757   3.573  1.00 32.73     0.123 C 
HETATM    4  C4  STQ Z 617     -31.684 127.242   4.560  1.00 32.73     0.066 C 
HETATM    5  C5  STQ Z 617     -32.294 127.982   5.724  1.00 32.73    -0.074 C 
HETATM    6  C6  STQ Z 617     -33.595 127.869   6.070  1.00 32.73    -0.048 C 
HETATM    7  C7  STQ Z 617     -34.106 128.554   7.292  1.00 32.73     0.009 C 
HETATM    8  C8  STQ Z 617     -34.540 129.823   7.305  1.00 32.73     0.007 C 
HETATM    9  C9  STQ Z 617     -35.049 130.496   8.509  1.00 32.73    -0.062 C 
HETATM   10  C10 STQ Z 617     -35.828 131.557   8.293  1.00 32.73     0.007 C 
HETATM   11  C11 STQ Z 617     -36.459 132.371   9.319  1.00 32.73     0.001 C 
HETATM   12  C12 STQ Z 617     -37.245 133.307   8.805  1.00 32.73     0.007 C 
HETATM   13  C13 STQ Z 617     -38.053 134.260   9.571  1.00 32.73    -0.062 C 
HETATM   14  C14 STQ Z 617     -38.852 135.053   8.852  1.00 32.73     0.007 C 
HETATM   15  C15 STQ Z 617     -39.756 136.021   9.443  1.00 32.73     0.001 C 
HETATM   16  C16 STQ Z 617     -35.465 126.106   6.101  1.00 32.73     0.020 C 
HETATM   17  C17 STQ Z 617     -35.427 127.934   4.454  1.00 32.73     0.020 C 
HETATM   18  C18 STQ Z 617     -31.307 128.795   6.512  1.00 32.73     0.044 C 
HETATM   19  C19 STQ Z 617     -34.687 130.029   9.886  1.00 32.73     0.048 C 
HETATM   20  C20 STQ Z 617     -38.014 134.318  11.069  1.00 32.73     0.048 C 
HETATM   21  O3  STQ Z 617     -32.097 125.850   2.661  1.00 32.73    -0.395 OA
ATOM     22  H3  STQ Z 617     -31.400 126.294   2.193  1.00  0.00     0.210 HD
HETATM   23  C21 STQ Z 617     -49.634 143.826  10.494  1.00 32.73    -0.035 C 
HETATM   24  C22 STQ Z 617     -50.493 144.418  11.604  1.00 32.73     0.045 C 
HETATM   25  C23 STQ Z 617     -50.100 145.815  12.067  1.00 32.73     0.142 C 
HETATM   26  C24 STQ Z 617     -48.605 146.033  12.062  1.00 32.73     0.007 C 
HETATM   27  C25 STQ Z 617     -47.790 145.339  11.259  1.00 32.73    -0.077 C 
HETATM   28  C26 STQ Z 617     -48.148 143.939  10.840  1.00 32.73     0.044 C 
HETATM   29  C27 STQ Z 617     -47.322 143.459   9.668  1.00 32.73    -0.016 C 
HETATM   30  C28 STQ Z 617     -46.454 142.481   9.897  1.00 32.73     0.003 C 
HETATM   31  C29 STQ Z 617     -45.608 141.905   8.844  1.00 32.73    -0.062 C 
HETATM   32  C30 STQ Z 617     -45.000 140.763   9.156  1.00 32.73     0.007 C 
HETATM   33  C31 STQ Z 617     -44.131 140.001   8.279  1.00 32.73     0.001 C 
HETATM   34  C32 STQ Z 617     -43.325 139.182   8.938  1.00 32.73     0.007 C 
HETATM   35  C33 STQ Z 617     -42.347 138.288   8.313  1.00 32.73    -0.062 C 
HETATM   36  C34 STQ Z 617     -41.638 137.500   9.127  1.00 32.73     0.007 C 
HETATM   37  C35 STQ Z 617     -40.657 136.551   8.627  1.00 32.73     0.001 C 
HETATM   38  C36 STQ Z 617     -49.948 144.487   9.152  1.00 32.73     0.016 C 
HETATM   39  C37 STQ Z 617     -50.009 142.353  10.381  1.00 32.73     0.016 C 
HETATM   40  C38 STQ Z 617     -46.515 145.979  10.799  1.00 32.73     0.044 C 
HETATM   41  C39 STQ Z 617     -45.448 142.556   7.504  1.00 32.73     0.048 C 
HETATM   42  C40 STQ Z 617     -42.151 138.272   6.827  1.00 32.73     0.048 C 
HETATM   43  O23 STQ Z 617     -50.586 146.001  13.401  1.00 32.73    -0.392 OA
ATOM     44  H23 STQ Z 617     -50.340 146.873  13.690  1.00  0.00     0.210 HD
ENDROOT
TORSDOF 12
BEGIN_RES PHE A  61
REMARK  2 active torsions:
REMARK  status: ('A' for Active; 'I' for Inactive)
REMARK    1  A    between atoms: CA   and  CB  
REMARK    2  A    between atoms: CB   and  CG  
ROOT
ATOM      1  CA  PHE A  61     -36.237 128.293  12.768  1.00 39.40     0.164 C 
ENDROOT
BRANCH   1   2
ATOM      2  CB  PHE A  61     -36.813 128.951  11.509  1.00 39.41     0.058 C 
BRANCH   2   3
ATOM      3  CG  PHE A  61     -36.900 128.036  10.311  1.00 39.01    -0.020 A 
ATOM      4  CD2 PHE A  61     -35.985 127.010  10.131  1.00 40.32    -0.004 A 
ATOM      5  CE2 PHE A  61     -36.064 126.172   9.026  1.00 40.20    -0.000 A 
ATOM      6  CZ  PHE A  61     -37.059 126.346   8.092  1.00 40.34    -0.000 A 
ATOM      7  CE1 PHE A  61     -37.977 127.360   8.257  1.00 41.51    -0.000 A 
ATOM      8  CD1 PHE A  61     -37.895 128.203   9.358  1.00 39.94    -0.004 A 
ENDBRANCH   2   3
ENDBRANCH   1   2
END_RES PHE A  61
BEGIN_RES VAL A 134
REMARK  1 active torsions:
REMARK  status: ('A' for Active; 'I' for Inactive)
REMARK    3  A    between atoms: CA   and  CB  
ROOT
ATOM      9  CA  VAL A 134     -29.766 132.051   9.815  1.00 40.75     0.159 C 
ENDROOT
BRANCH   9  10
ATOM     10  CB  VAL A 134     -30.864 132.765   9.009  1.00 40.76     0.029 C 
ATOM     11  CG1 VAL A 134     -31.176 132.001   7.731  1.00 41.76     0.002 C 
ATOM     12  CG2 VAL A 134     -32.123 132.972   9.837  1.00 40.56     0.002 C 
ENDBRANCH   9  10
END_RES VAL A 134
BEGIN_RES TYR A 338
REMARK  3 active torsions:
REMARK  status: ('A' for Active; 'I' for Inactive)
REMARK    4  A    between atoms: CA   and  CB  
REMARK    5  A    between atoms: CB   and  CG  
REMARK    6  A    between atoms: CZ   and  OH  
ROOT
ATOM     13  CA  TYR A 338     -41.631 124.950   6.058  1.00 38.23     0.164 C 
ENDROOT
BRANCH  13  14
ATOM     14  CB  TYR A 338     -41.621 126.456   6.339  1.00 39.15     0.058 C 
BRANCH  14  15
ATOM     15  CG  TYR A 338     -40.422 127.213   5.815  1.00 39.03    -0.020 A 
ATOM     16  CD2 TYR A 338     -40.239 128.546   6.140  1.00 40.65    -0.002 A 
ATOM     17  CE2 TYR A 338     -39.160 129.276   5.665  1.00 40.91     0.024 A 
ATOM     18  CZ  TYR A 338     -38.231 128.669   4.841  1.00 42.33     0.089 A 
ATOM     19  CE1 TYR A 338     -38.390 127.336   4.506  1.00 40.63     0.024 A 
ATOM     20  CD1 TYR A 338     -39.483 126.628   4.981  1.00 39.27    -0.002 A 
BRANCH  18  21
ATOM     21  OH  TYR A 338     -37.161 129.377   4.370  1.00 43.36    -0.359 OA
ATOM     22  HH  TYR A 338     -36.522 128.962   3.803  1.00  0.00     0.217 HD
ENDBRANCH  18  21
ENDBRANCH  14  15
ENDBRANCH  13  14
END_RES TYR A 338
ENDMDL
