MODEL 1
REMARK VINA RESULT:   -12.313      0.000      0.000
REMARK INTER + INTRA:         -12.333
REMARK INTER:                 -12.313
REMARK INTRA:                  -0.019
REMARK UNBOUND:                -0.019
REMARK  0 active torsions:
REMARK  status: ('A' for Active; 'I' for Inactive)
REMARK       I    between atoms: C3_3  and  O3_21 
REMARK       I    between atoms: C6_6  and  C7_7 
REMARK       I    between atoms: C8_8  and  C9_9 
REMARK       I    between atoms: C10_10  and  C11_11 
REMARK       I    between atoms: C12_12  and  C13_13 
REMARK       I    between atoms: C14_14  and  C15_15 
REMARK       I    between atoms: C23_25  and  O23_43 
REMARK       I    between atoms: C26_28  and  C27_29 
REMARK       I    between atoms: C28_30  and  C29_31 
REMARK       I    between atoms: C30_32  and  C31_33 
REMARK       I    between atoms: C32_34  and  C33_35 
REMARK       I    between atoms: C34_36  and  C35_37 
ROOT
HETATM    1  C1  STQ U1621     -34.174 128.114   7.061  1.00 20.50    -0.018 C 
HETATM    2  C2  STQ U1621     -33.567 127.933   5.677  1.00 20.50     0.045 C 
HETATM    3  C3  STQ U1621     -32.324 128.739   5.362  1.00 20.50     0.123 C 
HETATM    4  C4  STQ U1621     -31.608 129.098   6.642  1.00 20.50     0.066 C 
HETATM    5  C5  STQ U1621     -32.580 129.894   7.447  1.00 20.50    -0.074 C 
HETATM    6  C6  STQ U1621     -33.724 129.339   7.803  1.00 20.50    -0.048 C 
HETATM    7  C7  STQ U1621     -34.670 129.965   8.736  1.00 20.50     0.009 C 
HETATM    8  C8  STQ U1621     -34.792 131.290   8.737  1.00 20.50     0.007 C 
HETATM    9  C9  STQ U1621     -35.905 131.892   9.489  1.00 20.50    -0.062 C 
HETATM   10  C10 STQ U1621     -36.329 133.103   9.109  1.00 20.50     0.007 C 
HETATM   11  C11 STQ U1621     -37.514 133.753   9.659  1.00 20.50     0.001 C 
HETATM   12  C12 STQ U1621     -37.986 134.847   9.075  1.00 20.50     0.007 C 
HETATM   13  C13 STQ U1621     -39.224 135.496   9.544  1.00 20.50    -0.062 C 
HETATM   14  C14 STQ U1621     -39.723 136.500   8.810  1.00 20.50     0.007 C 
HETATM   15  C15 STQ U1621     -40.952 137.217   9.135  1.00 20.50     0.001 C 
HETATM   16  C16 STQ U1621     -33.768 126.952   7.948  1.00 20.50     0.020 C 
HETATM   17  C17 STQ U1621     -35.676 128.097   6.911  1.00 20.50     0.020 C 
HETATM   18  C18 STQ U1621     -31.790 130.729   8.391  1.00 20.50     0.044 C 
HETATM   19  C19 STQ U1621     -36.581 131.106  10.568  1.00 20.50     0.048 C 
HETATM   20  C20 STQ U1621     -39.877 134.991  10.792  1.00 20.50     0.048 C 
HETATM   21  O3  STQ U1621     -31.495 127.914   4.557  1.00 20.50    -0.395 OA
ATOM     22  H3  STQ U1621     -30.715 128.419   4.359  1.00  0.00     0.210 HD
HETATM   23  C21 STQ U1621     -50.575 145.695   8.809  1.00 20.50    -0.035 C 
HETATM   24  C22 STQ U1621     -51.672 146.466   9.506  1.00 20.50     0.045 C 
HETATM   25  C23 STQ U1621     -51.259 147.880   9.821  1.00 20.50     0.142 C 
HETATM   26  C24 STQ U1621     -49.885 147.924  10.430  1.00 20.50     0.007 C 
HETATM   27  C25 STQ U1621     -49.013 146.918  10.340  1.00 20.50    -0.077 C 
HETATM   28  C26 STQ U1621     -49.315 145.626   9.656  1.00 20.50     0.044 C 
HETATM   29  C27 STQ U1621     -48.140 145.201   8.814  1.00 20.50    -0.016 C 
HETATM   30  C28 STQ U1621     -47.572 144.029   9.067  1.00 20.50     0.003 C 
HETATM   31  C29 STQ U1621     -46.428 143.530   8.294  1.00 20.50    -0.062 C 
HETATM   32  C30 STQ U1621     -45.957 142.320   8.627  1.00 20.50     0.007 C 
HETATM   33  C31 STQ U1621     -44.805 141.682   8.003  1.00 20.50     0.001 C 
HETATM   34  C32 STQ U1621     -44.324 140.561   8.524  1.00 20.50     0.007 C 
HETATM   35  C33 STQ U1621     -43.112 139.922   7.989  1.00 20.50    -0.062 C 
HETATM   36  C34 STQ U1621     -42.603 138.895   8.685  1.00 20.50     0.007 C 
HETATM   37  C35 STQ U1621     -41.378 138.178   8.336  1.00 20.50     0.001 C 
HETATM   38  C36 STQ U1621     -50.306 146.333   7.462  1.00 20.50     0.016 C 
HETATM   39  C37 STQ U1621     -51.067 144.282   8.598  1.00 20.50     0.016 C 
HETATM   40  C38 STQ U1621     -47.666 147.072  10.956  1.00 20.50     0.044 C 
HETATM   41  C39 STQ U1621     -45.884 144.369   7.180  1.00 20.50     0.048 C 
HETATM   42  C40 STQ U1621     -42.485 140.485   6.752  1.00 20.50     0.048 C 
HETATM   43  O23 STQ U1621     -52.197 148.355  10.772  1.00 20.50    -0.392 OA
ATOM     44  H23 STQ U1621     -53.065 148.327  10.387  1.00  0.00     0.210 HD
ENDROOT
TORSDOF 12
BEGIN_RES PHE A  61
REMARK  2 active torsions:
REMARK  status: ('A' for Active; 'I' for Inactive)
REMARK    1  A    between atoms: CA   and  CB  
REMARK    2  A    between atoms: CB   and  CG  
ROOT
ATOM      1  CA  PHE A  61     -36.237 128.293  12.768  1.00 39.40     0.164 C 
ENDROOT
BRANCH   1   2
ATOM      2  CB  PHE A  61     -36.813 128.951  11.509  1.00 39.41     0.058 C 
BRANCH   2   3
ATOM      3  CG  PHE A  61     -37.064 127.997  10.365  1.00 39.01    -0.020 A 
ATOM      4  CD2 PHE A  61     -36.296 126.854  10.211  1.00 40.32    -0.004 A 
ATOM      5  CE2 PHE A  61     -36.525 125.979   9.157  1.00 40.20    -0.000 A 
ATOM      6  CZ  PHE A  61     -37.526 126.235   8.248  1.00 40.34    -0.000 A 
ATOM      7  CE1 PHE A  61     -38.300 127.366   8.388  1.00 41.51    -0.000 A 
ATOM      8  CD1 PHE A  61     -38.066 128.244   9.439  1.00 39.94    -0.004 A 
ENDBRANCH   2   3
ENDBRANCH   1   2
END_RES PHE A  61
BEGIN_RES VAL A 134
REMARK  1 active torsions:
REMARK  status: ('A' for Active; 'I' for Inactive)
REMARK    3  A    between atoms: CA   and  CB  
ROOT
ATOM      9  CA  VAL A 134     -29.766 132.051   9.815  1.00 40.75     0.159 C 
ENDROOT
BRANCH   9  10
ATOM     10  CB  VAL A 134     -30.864 132.765   9.009  1.00 40.76     0.029 C 
ATOM     11  CG1 VAL A 134     -32.066 133.071   9.891  1.00 41.76     0.002 C 
ATOM     12  CG2 VAL A 134     -30.342 134.032   8.349  1.00 40.56     0.002 C 
ENDBRANCH   9  10
END_RES VAL A 134
BEGIN_RES TYR A 338
REMARK  3 active torsions:
REMARK  status: ('A' for Active; 'I' for Inactive)
REMARK    4  A    between atoms: CA   and  CB  
REMARK    5  A    between atoms: CB   and  CG  
REMARK    6  A    between atoms: CZ   and  OH  
ROOT
ATOM     13  CA  TYR A 338     -41.631 124.950   6.058  1.00 38.23     0.164 C 
ENDROOT
BRANCH  13  14
ATOM     14  CB  TYR A 338     -41.621 126.456   6.339  1.00 39.15     0.058 C 
BRANCH  14  15
ATOM     15  CG  TYR A 338     -40.411 127.209   5.835  1.00 39.03    -0.020 A 
ATOM     16  CD2 TYR A 338     -40.254 128.555   6.122  1.00 40.65    -0.002 A 
ATOM     17  CE2 TYR A 338     -39.166 129.280   5.663  1.00 40.91     0.024 A 
ATOM     18  CZ  TYR A 338     -38.201 128.658   4.895  1.00 42.33     0.089 A 
ATOM     19  CE1 TYR A 338     -38.333 127.312   4.599  1.00 40.63     0.024 A 
ATOM     20  CD1 TYR A 338     -39.435 126.607   5.056  1.00 39.27    -0.002 A 
BRANCH  18  21
ATOM     21  OH  TYR A 338     -37.121 129.362   4.441  1.00 43.36    -0.359 OA
ATOM     22  HH  TYR A 338     -36.391 128.912   4.031  1.00  0.00     0.217 HD
ENDBRANCH  18  21
ENDBRANCH  14  15
ENDBRANCH  13  14
END_RES TYR A 338
ENDMDL
MODEL 2
REMARK VINA RESULT:   -11.770      1.608      2.091
REMARK INTER + INTRA:         -11.789
REMARK INTER:                  -9.284
REMARK INTRA:                  -2.505
REMARK UNBOUND:                -0.019
REMARK  0 active torsions:
REMARK  status: ('A' for Active; 'I' for Inactive)
REMARK       I    between atoms: C3_3  and  O3_21 
REMARK       I    between atoms: C6_6  and  C7_7 
REMARK       I    between atoms: C8_8  and  C9_9 
REMARK       I    between atoms: C10_10  and  C11_11 
REMARK       I    between atoms: C12_12  and  C13_13 
REMARK       I    between atoms: C14_14  and  C15_15 
REMARK       I    between atoms: C23_25  and  O23_43 
REMARK       I    between atoms: C26_28  and  C27_29 
REMARK       I    between atoms: C28_30  and  C29_31 
REMARK       I    between atoms: C30_32  and  C31_33 
REMARK       I    between atoms: C32_34  and  C33_35 
REMARK       I    between atoms: C34_36  and  C35_37 
ROOT
HETATM    1  C1  STQ U1621     -34.412 127.004   6.452  1.00 20.50    -0.018 C 
HETATM    2  C2  STQ U1621     -34.242 126.721   4.966  1.00 20.50     0.045 C 
HETATM    3  C3  STQ U1621     -33.094 127.415   4.262  1.00 20.50     0.123 C 
HETATM    4  C4  STQ U1621     -32.019 127.769   5.260  1.00 20.50     0.066 C 
HETATM    5  C5  STQ U1621     -32.666 128.669   6.260  1.00 20.50    -0.074 C 
HETATM    6  C6  STQ U1621     -33.691 128.219   6.959  1.00 20.50    -0.048 C 
HETATM    7  C7  STQ U1621     -34.287 128.954   8.083  1.00 20.50     0.009 C 
HETATM    8  C8  STQ U1621     -34.320 130.282   8.038  1.00 20.50     0.007 C 
HETATM    9  C9  STQ U1621     -35.129 130.999   9.037  1.00 20.50    -0.062 C 
HETATM   10  C10 STQ U1621     -35.569 132.223   8.722  1.00 20.50     0.007 C 
HETATM   11  C11 STQ U1621     -36.501 132.984   9.545  1.00 20.50     0.001 C 
HETATM   12  C12 STQ U1621     -37.053 134.087   9.054  1.00 20.50     0.007 C 
HETATM   13  C13 STQ U1621     -38.060 134.848   9.816  1.00 20.50    -0.062 C 
HETATM   14  C14 STQ U1621     -38.685 135.857   9.195  1.00 20.50     0.007 C 
HETATM   15  C15 STQ U1621     -39.721 136.680   9.812  1.00 20.50     0.001 C 
HETATM   16  C16 STQ U1621     -33.840 125.850   7.256  1.00 20.50     0.020 C 
HETATM   17  C17 STQ U1621     -35.891 127.097   6.737  1.00 20.50     0.020 C 
HETATM   18  C18 STQ U1621     -31.587 129.478   6.887  1.00 20.50     0.044 C 
HETATM   19  C19 STQ U1621     -35.514 130.312  10.310  1.00 20.50     0.048 C 
HETATM   20  C20 STQ U1621     -38.355 134.446  11.226  1.00 20.50     0.048 C 
HETATM   21  O3  STQ U1621     -32.586 126.496   3.305  1.00 20.50    -0.395 OA
ATOM     22  H3  STQ U1621     -31.866 126.931   2.864  1.00  0.00     0.210 HD
HETATM   23  C21 STQ U1621     -48.479 145.857  11.724  1.00 20.50    -0.035 C 
HETATM   24  C22 STQ U1621     -49.278 146.738  12.656  1.00 20.50     0.045 C 
HETATM   25  C23 STQ U1621     -48.704 148.127  12.754  1.00 20.50     0.142 C 
HETATM   26  C24 STQ U1621     -47.213 148.089  12.943  1.00 20.50     0.007 C 
HETATM   27  C25 STQ U1621     -46.469 147.017  12.670  1.00 20.50    -0.077 C 
HETATM   28  C26 STQ U1621     -47.035 145.725  12.180  1.00 20.50     0.044 C 
HETATM   29  C27 STQ U1621     -46.181 145.177  11.066  1.00 20.50    -0.016 C 
HETATM   30  C28 STQ U1621     -45.640 143.976  11.218  1.00 20.50     0.003 C 
HETATM   31  C29 STQ U1621     -44.800 143.359  10.182  1.00 20.50    -0.062 C 
HETATM   32  C30 STQ U1621     -44.330 142.130  10.441  1.00 20.50     0.007 C 
HETATM   33  C31 STQ U1621     -43.449 141.381   9.555  1.00 20.50     0.001 C 
HETATM   34  C32 STQ U1621     -42.909 140.247   9.984  1.00 20.50     0.007 C 
HETATM   35  C33 STQ U1621     -41.945 139.496   9.166  1.00 20.50    -0.062 C 
HETATM   36  C34 STQ U1621     -41.323 138.461   9.749  1.00 20.50     0.007 C 
HETATM   37  C35 STQ U1621     -40.298 137.638   9.110  1.00 20.50     0.001 C 
HETATM   38  C36 STQ U1621     -48.570 146.418  10.320  1.00 20.50     0.016 C 
HETATM   39  C37 STQ U1621     -49.098 144.480  11.748  1.00 20.50     0.016 C 
HETATM   40  C38 STQ U1621     -44.995 147.090  12.867  1.00 20.50     0.044 C 
HETATM   41  C39 STQ U1621     -44.549 144.108   8.911  1.00 20.50     0.048 C 
HETATM   42  C40 STQ U1621     -41.668 139.958   7.771  1.00 20.50     0.048 C 
HETATM   43  O23 STQ U1621     -49.296 148.712  13.902  1.00 20.50    -0.392 OA
ATOM     44  H23 STQ U1621     -50.239 148.735  13.782  1.00  0.00     0.210 HD
ENDROOT
TORSDOF 12
BEGIN_RES PHE A  61
REMARK  2 active torsions:
REMARK  status: ('A' for Active; 'I' for Inactive)
REMARK    1  A    between atoms: CA   and  CB  
REMARK    2  A    between atoms: CB   and  CG  
ROOT
ATOM      1  CA  PHE A  61     -36.237 128.293  12.768  1.00 39.40     0.164 C 
ENDROOT
BRANCH   1   2
ATOM      2  CB  PHE A  61     -36.813 128.951  11.509  1.00 39.41     0.058 C 
BRANCH   2   3
ATOM      3  CG  PHE A  61     -37.100 127.991  10.379  1.00 39.01    -0.020 A 
ATOM      4  CD2 PHE A  61     -36.374 126.819  10.239  1.00 40.32    -0.004 A 
ATOM      5  CE2 PHE A  61     -36.637 125.939   9.197  1.00 40.20    -0.000 A 
ATOM      6  CZ  PHE A  61     -37.630 126.218   8.287  1.00 40.34    -0.000 A 
ATOM      7  CE1 PHE A  61     -38.362 127.378   8.413  1.00 41.51    -0.000 A 
ATOM      8  CD1 PHE A  61     -38.095 128.262   9.451  1.00 39.94    -0.004 A 
ENDBRANCH   2   3
ENDBRANCH   1   2
END_RES PHE A  61
BEGIN_RES VAL A 134
REMARK  1 active torsions:
REMARK  status: ('A' for Active; 'I' for Inactive)
REMARK    3  A    between atoms: CA   and  CB  
ROOT
ATOM      9  CA  VAL A 134     -29.766 132.051   9.815  1.00 40.75     0.159 C 
ENDROOT
BRANCH   9  10
ATOM     10  CB  VAL A 134     -30.864 132.765   9.009  1.00 40.76     0.029 C 
ATOM     11  CG1 VAL A 134     -31.069 132.088   7.662  1.00 41.76     0.002 C 
ATOM     12  CG2 VAL A 134     -32.172 132.836   9.783  1.00 40.56     0.002 C 
ENDBRANCH   9  10
END_RES VAL A 134
BEGIN_RES TYR A 338
REMARK  3 active torsions:
REMARK  status: ('A' for Active; 'I' for Inactive)
REMARK    4  A    between atoms: CA   and  CB  
REMARK    5  A    between atoms: CB   and  CG  
REMARK    6  A    between atoms: CZ   and  OH  
ROOT
ATOM     13  CA  TYR A 338     -41.631 124.950   6.058  1.00 38.23     0.164 C 
ENDROOT
BRANCH  13  14
ATOM     14  CB  TYR A 338     -41.621 126.456   6.339  1.00 39.15     0.058 C 
BRANCH  14  15
ATOM     15  CG  TYR A 338     -40.407 127.208   5.844  1.00 39.03    -0.020 A 
ATOM     16  CD2 TYR A 338     -40.228 128.542   6.169  1.00 40.65    -0.002 A 
ATOM     17  CE2 TYR A 338     -39.134 129.266   5.720  1.00 40.91     0.024 A 
ATOM     18  CZ  TYR A 338     -38.187 128.653   4.922  1.00 42.33     0.089 A 
ATOM     19  CE1 TYR A 338     -38.341 127.320   4.587  1.00 40.63     0.024 A 
ATOM     20  CD1 TYR A 338     -39.448 126.616   5.036  1.00 39.27    -0.002 A 
BRANCH  18  21
ATOM     21  OH  TYR A 338     -37.102 129.357   4.476  1.00 43.36    -0.359 OA
ATOM     22  HH  TYR A 338     -36.824 130.146   4.926  1.00  0.00     0.217 HD
ENDBRANCH  18  21
ENDBRANCH  14  15
ENDBRANCH  13  14
END_RES TYR A 338
ENDMDL
MODEL 3
REMARK VINA RESULT:    -9.467      2.025     16.857
REMARK INTER + INTRA:          -9.486
REMARK INTER:                  -8.664
REMARK INTRA:                  -0.822
REMARK UNBOUND:                -0.019
REMARK  0 active torsions:
REMARK  status: ('A' for Active; 'I' for Inactive)
REMARK       I    between atoms: C3_3  and  O3_21 
REMARK       I    between atoms: C6_6  and  C7_7 
REMARK       I    between atoms: C8_8  and  C9_9 
REMARK       I    between atoms: C10_10  and  C11_11 
REMARK       I    between atoms: C12_12  and  C13_13 
REMARK       I    between atoms: C14_14  and  C15_15 
REMARK       I    between atoms: C23_25  and  O23_43 
REMARK       I    between atoms: C26_28  and  C27_29 
REMARK       I    between atoms: C28_30  and  C29_31 
REMARK       I    between atoms: C30_32  and  C31_33 
REMARK       I    between atoms: C32_34  and  C33_35 
REMARK       I    between atoms: C34_36  and  C35_37 
ROOT
HETATM    1  C1  STQ U1621     -49.403 146.099  13.031  1.00 20.50    -0.018 C 
HETATM    2  C2  STQ U1621     -49.977 145.995  14.438  1.00 20.50     0.045 C 
HETATM    3  C3  STQ U1621     -49.194 146.663  15.549  1.00 20.50     0.123 C 
HETATM    4  C4  STQ U1621     -48.343 147.773  14.982  1.00 20.50     0.066 C 
HETATM    5  C5  STQ U1621     -47.434 147.127  13.990  1.00 20.50    -0.074 C 
HETATM    6  C6  STQ U1621     -47.957 146.494  12.957  1.00 20.50    -0.048 C 
HETATM    7  C7  STQ U1621     -47.159 145.977  11.838  1.00 20.50     0.009 C 
HETATM    8  C8  STQ U1621     -45.936 145.513  12.079  1.00 20.50     0.007 C 
HETATM    9  C9  STQ U1621     -45.240 144.777  11.011  1.00 20.50    -0.062 C 
HETATM   10  C10 STQ U1621     -44.287 143.910  11.371  1.00 20.50     0.007 C 
HETATM   11  C11 STQ U1621     -43.624 143.005  10.439  1.00 20.50     0.001 C 
HETATM   12  C12 STQ U1621     -42.854 142.032  10.911  1.00 20.50     0.007 C 
HETATM   13  C13 STQ U1621     -42.226 141.044  10.015  1.00 20.50    -0.062 C 
HETATM   14  C14 STQ U1621     -41.595 140.003  10.574  1.00 20.50     0.007 C 
HETATM   15  C15 STQ U1621     -40.951 138.936   9.815  1.00 20.50     0.001 C 
HETATM   16  C16 STQ U1621     -50.141 147.180  12.262  1.00 20.50     0.020 C 
HETATM   17  C17 STQ U1621     -49.637 144.778  12.341  1.00 20.50     0.020 C 
HETATM   18  C18 STQ U1621     -46.244 148.009  13.845  1.00 20.50     0.044 C 
HETATM   19  C19 STQ U1621     -45.681 144.942   9.590  1.00 20.50     0.048 C 
HETATM   20  C20 STQ U1621     -42.344 141.233   8.536  1.00 20.50     0.048 C 
HETATM   21  O3  STQ U1621     -50.148 147.197  16.457  1.00 20.50    -0.395 OA
ATOM     22  H3  STQ U1621     -49.657 147.617  17.154  1.00  0.00     0.210 HD
HETATM   23  C21 STQ U1621     -34.216 128.422   6.866  1.00 20.50    -0.035 C 
HETATM   24  C22 STQ U1621     -33.381 127.627   5.890  1.00 20.50     0.045 C 
HETATM   25  C23 STQ U1621     -31.908 127.735   6.186  1.00 20.50     0.142 C 
HETATM   26  C24 STQ U1621     -31.506 129.161   6.443  1.00 20.50     0.007 C 
HETATM   27  C25 STQ U1621     -32.379 130.122   6.752  1.00 20.50    -0.077 C 
HETATM   28  C26 STQ U1621     -33.851 129.897   6.843  1.00 20.50     0.044 C 
HETATM   29  C27 STQ U1621     -34.405 130.594   8.059  1.00 20.50    -0.016 C 
HETATM   30  C28 STQ U1621     -35.350 131.509   7.888  1.00 20.50     0.003 C 
HETATM   31  C29 STQ U1621     -35.952 132.233   9.015  1.00 20.50    -0.062 C 
HETATM   32  C30 STQ U1621     -36.917 133.116   8.717  1.00 20.50     0.007 C 
HETATM   33  C31 STQ U1621     -37.597 133.956   9.695  1.00 20.50     0.001 C 
HETATM   34  C32 STQ U1621     -38.412 134.913   9.271  1.00 20.50     0.007 C 
HETATM   35  C33 STQ U1621     -39.057 135.844  10.209  1.00 20.50    -0.062 C 
HETATM   36  C34 STQ U1621     -39.721 136.883   9.681  1.00 20.50     0.007 C 
HETATM   37  C35 STQ U1621     -40.374 137.936  10.457  1.00 20.50     0.001 C 
HETATM   38  C36 STQ U1621     -34.050 127.830   8.251  1.00 20.50     0.016 C 
HETATM   39  C37 STQ U1621     -35.661 128.297   6.445  1.00 20.50     0.016 C 
HETATM   40  C38 STQ U1621     -31.875 131.499   7.013  1.00 20.50     0.044 C 
HETATM   41  C39 STQ U1621     -35.489 131.927  10.404  1.00 20.50     0.048 C 
HETATM   42  C40 STQ U1621     -38.884 135.624  11.679  1.00 20.50     0.048 C 
HETATM   43  O23 STQ U1621     -31.243 127.275   5.021  1.00 20.50    -0.392 OA
ATOM     44  H23 STQ U1621     -31.497 126.374   4.859  1.00  0.00     0.210 HD
ENDROOT
TORSDOF 12
BEGIN_RES PHE A  61
REMARK  2 active torsions:
REMARK  status: ('A' for Active; 'I' for Inactive)
REMARK    1  A    between atoms: CA   and  CB  
REMARK    2  A    between atoms: CB   and  CG  
ROOT
ATOM      1  CA  PHE A  61     -36.237 128.293  12.768  1.00 39.40     0.164 C 
ENDROOT
BRANCH   1   2
ATOM      2  CB  PHE A  61     -36.813 128.951  11.509  1.00 39.41     0.058 C 
BRANCH   2   3
ATOM      3  CG  PHE A  61     -36.988 128.013  10.339  1.00 39.01    -0.020 A 
ATOM      4  CD2 PHE A  61     -36.190 126.888  10.203  1.00 40.32    -0.004 A 
ATOM      5  CE2 PHE A  61     -36.350 126.027   9.124  1.00 40.20    -0.000 A 
ATOM      6  CZ  PHE A  61     -37.311 126.279   8.172  1.00 40.34    -0.000 A 
ATOM      7  CE1 PHE A  61     -38.114 127.392   8.294  1.00 41.51    -0.000 A 
ATOM      8  CD1 PHE A  61     -37.950 128.256   9.369  1.00 39.94    -0.004 A 
ENDBRANCH   2   3
ENDBRANCH   1   2
END_RES PHE A  61
BEGIN_RES VAL A 134
REMARK  1 active torsions:
REMARK  status: ('A' for Active; 'I' for Inactive)
REMARK    3  A    between atoms: CA   and  CB  
ROOT
ATOM      9  CA  VAL A 134     -29.766 132.051   9.815  1.00 40.75     0.159 C 
ENDROOT
BRANCH   9  10
ATOM     10  CB  VAL A 134     -30.864 132.765   9.009  1.00 40.76     0.029 C 
ATOM     11  CG1 VAL A 134     -32.122 132.936   9.848  1.00 41.76     0.002 C 
ATOM     12  CG2 VAL A 134     -30.385 134.106   8.473  1.00 40.56     0.002 C 
ENDBRANCH   9  10
END_RES VAL A 134
BEGIN_RES TYR A 338
REMARK  3 active torsions:
REMARK  status: ('A' for Active; 'I' for Inactive)
REMARK    4  A    between atoms: CA   and  CB  
REMARK    5  A    between atoms: CB   and  CG  
REMARK    6  A    between atoms: CZ   and  OH  
ROOT
ATOM     13  CA  TYR A 338     -41.631 124.950   6.058  1.00 38.23     0.164 C 
ENDROOT
BRANCH  13  14
ATOM     14  CB  TYR A 338     -41.621 126.456   6.339  1.00 39.15     0.058 C 
BRANCH  14  15
ATOM     15  CG  TYR A 338     -40.424 127.214   5.812  1.00 39.03    -0.020 A 
ATOM     16  CD2 TYR A 338     -40.259 128.556   6.107  1.00 40.65    -0.002 A 
ATOM     17  CE2 TYR A 338     -39.182 129.286   5.628  1.00 40.91     0.024 A 
ATOM     18  CZ  TYR A 338     -38.237 128.670   4.830  1.00 42.33     0.089 A 
ATOM     19  CE1 TYR A 338     -38.377 127.328   4.526  1.00 40.63     0.024 A 
ATOM     20  CD1 TYR A 338     -39.468 126.619   5.004  1.00 39.27    -0.002 A 
BRANCH  18  21
ATOM     21  OH  TYR A 338     -37.168 129.379   4.356  1.00 43.36    -0.359 OA
ATOM     22  HH  TYR A 338     -36.313 129.286   4.759  1.00  0.00     0.217 HD
ENDBRANCH  18  21
ENDBRANCH  14  15
ENDBRANCH  13  14
END_RES TYR A 338
ENDMDL
