MODEL 1
REMARK VINA RESULT:    -9.722      0.000      0.000
REMARK INTER + INTRA:         -12.100
REMARK INTER:                  -9.722
REMARK INTRA:                  -2.377
REMARK UNBOUND:                -2.377
REMARK  0 active torsions:
REMARK  status: ('A' for Active; 'I' for Inactive)
REMARK       I    between atoms: C3_3  and  O3_21 
REMARK       I    between atoms: C6_6  and  C7_7 
REMARK       I    between atoms: C8_8  and  C9_9 
REMARK       I    between atoms: C10_10  and  C11_11 
REMARK       I    between atoms: C12_12  and  C13_13 
REMARK       I    between atoms: C14_14  and  C15_15 
REMARK       I    between atoms: C23_25  and  O23_43 
REMARK       I    between atoms: C26_28  and  C27_29 
REMARK       I    between atoms: C28_30  and  C29_31 
REMARK       I    between atoms: C30_32  and  C31_33 
REMARK       I    between atoms: C32_34  and  C33_35 
REMARK       I    between atoms: C34_36  and  C35_37 
ROOT
HETATM    1  C1  STQ Z1621     -34.253 127.180   6.744  1.00 27.99    -0.018 C 
HETATM    2  C2  STQ Z1621     -33.789 126.837   5.322  1.00 27.99     0.045 C 
HETATM    3  C3  STQ Z1621     -32.738 127.769   4.735  1.00 27.99     0.123 C 
HETATM    4  C4  STQ Z1621     -31.727 128.099   5.816  1.00 27.99     0.066 C 
HETATM    5  C5  STQ Z1621     -32.477 128.908   6.834  1.00 27.99    -0.074 C 
HETATM    6  C6  STQ Z1621     -33.594 128.402   7.370  1.00 27.99    -0.048 C 
HETATM    7  C7  STQ Z1621     -34.356 129.114   8.421  1.00 27.99     0.009 C 
HETATM    8  C8  STQ Z1621     -34.436 130.449   8.338  1.00 27.99     0.007 C 
HETATM    9  C9  STQ Z1621     -35.390 131.165   9.220  1.00 27.99    -0.062 C 
HETATM   10  C10 STQ Z1621     -35.873 132.345   8.774  1.00 27.99     0.007 C 
HETATM   11  C11 STQ Z1621     -36.939 133.086   9.452  1.00 27.99     0.001 C 
HETATM   12  C12 STQ Z1621     -37.538 134.106   8.836  1.00 27.99     0.007 C 
HETATM   13  C13 STQ Z1621     -38.680 134.819   9.457  1.00 27.99    -0.062 C 
HETATM   14  C14 STQ Z1621     -39.325 135.736   8.705  1.00 27.99     0.007 C 
HETATM   15  C15 STQ Z1621     -40.485 136.510   9.159  1.00 27.99     0.001 C 
HETATM   16  C16 STQ Z1621     -33.819 126.035   7.661  1.00 27.99     0.020 C 
HETATM   17  C17 STQ Z1621     -35.775 127.295   6.738  1.00 27.99     0.020 C 
HETATM   18  C18 STQ Z1621     -31.543 129.808   7.594  1.00 27.99     0.044 C 
HETATM   19  C19 STQ Z1621     -35.852 130.516  10.502  1.00 27.99     0.048 C 
HETATM   20  C20 STQ Z1621     -39.077 134.465  10.867  1.00 27.99     0.048 C 
HETATM   21  O3  STQ Z1621     -32.089 127.147   3.619  1.00 27.99    -0.395 OA
ATOM     22  H3  STQ Z1621     -32.722 126.940   2.942  1.00  0.00     0.210 HD
HETATM   23  C21 STQ Z1621     -49.747 145.470   9.385  1.00 27.99    -0.035 C 
HETATM   24  C22 STQ Z1621     -50.716 146.319  10.187  1.00 27.99     0.045 C 
HETATM   25  C23 STQ Z1621     -50.182 147.709  10.485  1.00 27.99     0.142 C 
HETATM   26  C24 STQ Z1621     -48.715 147.704  10.859  1.00 27.99     0.007 C 
HETATM   27  C25 STQ Z1621     -47.908 146.644  10.683  1.00 27.99    -0.077 C 
HETATM   28  C26 STQ Z1621     -48.404 145.346  10.105  1.00 27.99     0.044 C 
HETATM   29  C27 STQ Z1621     -47.402 144.759   9.137  1.00 27.99    -0.016 C 
HETATM   30  C28 STQ Z1621     -46.900 143.552   9.392  1.00 27.99     0.003 C 
HETATM   31  C29 STQ Z1621     -45.917 142.913   8.494  1.00 27.99    -0.062 C 
HETATM   32  C30 STQ Z1621     -45.440 141.714   8.882  1.00 27.99     0.007 C 
HETATM   33  C31 STQ Z1621     -44.421 140.964   8.148  1.00 27.99     0.001 C 
HETATM   34  C32 STQ Z1621     -43.896 139.874   8.703  1.00 27.99     0.007 C 
HETATM   35  C33 STQ Z1621     -42.797 139.130   8.053  1.00 27.99    -0.062 C 
HETATM   36  C34 STQ Z1621     -42.193 138.171   8.788  1.00 27.99     0.007 C 
HETATM   37  C35 STQ Z1621     -41.048 137.382   8.330  1.00 27.99     0.001 C 
HETATM   38  C36 STQ Z1621     -49.614 146.066   7.985  1.00 27.99     0.016 C 
HETATM   39  C37 STQ Z1621     -50.335 144.068   9.277  1.00 27.99     0.016 C 
HETATM   40  C38 STQ Z1621     -46.469 146.759  11.108  1.00 27.99     0.044 C 
HETATM   41  C39 STQ Z1621     -45.527 143.620   7.223  1.00 27.99     0.048 C 
HETATM   42  C40 STQ Z1621     -42.376 139.513   6.660  1.00 27.99     0.048 C 
HETATM   43  O23 STQ Z1621     -50.937 148.198  11.594  1.00 27.99    -0.392 OA
ATOM     44  H23 STQ Z1621     -50.603 149.067  11.779  1.00  0.00     0.210 HD
ENDROOT
TORSDOF 12
BEGIN_RES PHE A  61
REMARK  2 active torsions:
REMARK  status: ('A' for Active; 'I' for Inactive)
REMARK    1  A    between atoms: CA   and  CB  
REMARK    2  A    between atoms: CB   and  CG  
ROOT
ATOM      1  CA  PHE A  61     -36.237 128.293  12.768  1.00 39.40     0.164 C 
ENDROOT
BRANCH   1   2
ATOM      2  CB  PHE A  61     -36.813 128.951  11.509  1.00 39.41     0.058 C 
BRANCH   2   3
ATOM      3  CG  PHE A  61     -37.097 127.992  10.378  1.00 39.01    -0.020 A 
ATOM      4  CD2 PHE A  61     -36.388 126.807  10.255  1.00 40.32    -0.004 A 
ATOM      5  CE2 PHE A  61     -36.648 125.927   9.212  1.00 40.20    -0.000 A 
ATOM      6  CZ  PHE A  61     -37.621 126.220   8.283  1.00 40.34    -0.000 A 
ATOM      7  CE1 PHE A  61     -38.335 127.392   8.392  1.00 41.51    -0.000 A 
ATOM      8  CD1 PHE A  61     -38.071 128.275   9.431  1.00 39.94    -0.004 A 
ENDBRANCH   2   3
ENDBRANCH   1   2
END_RES PHE A  61
BEGIN_RES VAL A 134
REMARK  1 active torsions:
REMARK  status: ('A' for Active; 'I' for Inactive)
REMARK    3  A    between atoms: CA   and  CB  
ROOT
ATOM      9  CA  VAL A 134     -29.766 132.051   9.815  1.00 40.75     0.159 C 
ENDROOT
BRANCH   9  10
ATOM     10  CB  VAL A 134     -30.864 132.765   9.009  1.00 40.76     0.029 C 
ATOM     11  CG1 VAL A 134     -30.950 132.200   7.599  1.00 41.76     0.002 C 
ATOM     12  CG2 VAL A 134     -32.214 132.685   9.706  1.00 40.56     0.002 C 
ENDBRANCH   9  10
END_RES VAL A 134
BEGIN_RES TYR A 338
REMARK  3 active torsions:
REMARK  status: ('A' for Active; 'I' for Inactive)
REMARK    4  A    between atoms: CA   and  CB  
REMARK    5  A    between atoms: CB   and  CG  
REMARK    6  A    between atoms: CZ   and  OH  
ROOT
ATOM     13  CA  TYR A 338     -41.631 124.950   6.058  1.00 38.23     0.164 C 
ENDROOT
BRANCH  13  14
ATOM     14  CB  TYR A 338     -41.621 126.456   6.339  1.00 39.15     0.058 C 
BRANCH  14  15
ATOM     15  CG  TYR A 338     -40.410 127.209   5.838  1.00 39.03    -0.020 A 
ATOM     16  CD2 TYR A 338     -40.236 128.546   6.153  1.00 40.65    -0.002 A 
ATOM     17  CE2 TYR A 338     -39.146 129.271   5.697  1.00 40.91     0.024 A 
ATOM     18  CZ  TYR A 338     -38.197 128.657   4.903  1.00 42.33     0.089 A 
ATOM     19  CE1 TYR A 338     -38.346 127.320   4.578  1.00 40.63     0.024 A 
ATOM     20  CD1 TYR A 338     -39.450 126.616   5.033  1.00 39.27    -0.002 A 
BRANCH  18  21
ATOM     21  OH  TYR A 338     -37.115 129.361   4.452  1.00 43.36    -0.359 OA
ATOM     22  HH  TYR A 338     -36.294 129.339   4.929  1.00  0.00     0.217 HD
ENDBRANCH  18  21
ENDBRANCH  14  15
ENDBRANCH  13  14
END_RES TYR A 338
ENDMDL
MODEL 2
REMARK VINA RESULT:    -8.061      2.098     16.899
REMARK INTER + INTRA:         -10.438
REMARK INTER:                  -9.997
REMARK INTRA:                  -0.441
REMARK UNBOUND:                -2.377
REMARK  0 active torsions:
REMARK  status: ('A' for Active; 'I' for Inactive)
REMARK       I    between atoms: C3_3  and  O3_21 
REMARK       I    between atoms: C6_6  and  C7_7 
REMARK       I    between atoms: C8_8  and  C9_9 
REMARK       I    between atoms: C10_10  and  C11_11 
REMARK       I    between atoms: C12_12  and  C13_13 
REMARK       I    between atoms: C14_14  and  C15_15 
REMARK       I    between atoms: C23_25  and  O23_43 
REMARK       I    between atoms: C26_28  and  C27_29 
REMARK       I    between atoms: C28_30  and  C29_31 
REMARK       I    between atoms: C30_32  and  C31_33 
REMARK       I    between atoms: C32_34  and  C33_35 
REMARK       I    between atoms: C34_36  and  C35_37 
ROOT
HETATM    1  C1  STQ Z1621     -49.032 146.383  13.342  1.00 27.99    -0.018 C 
HETATM    2  C2  STQ Z1621     -49.577 146.390  14.777  1.00 27.99     0.045 C 
HETATM    3  C3  STQ Z1621     -48.600 146.864  15.844  1.00 27.99     0.123 C 
HETATM    4  C4  STQ Z1621     -47.838 148.060  15.305  1.00 27.99     0.066 C 
HETATM    5  C5  STQ Z1621     -46.998 147.526  14.182  1.00 27.99    -0.074 C 
HETATM    6  C6  STQ Z1621     -47.593 146.856  13.187  1.00 27.99    -0.048 C 
HETATM    7  C7  STQ Z1621     -46.839 146.352  12.017  1.00 27.99     0.009 C 
HETATM    8  C8  STQ Z1621     -45.602 145.883  12.225  1.00 27.99     0.007 C 
HETATM    9  C9  STQ Z1621     -44.922 145.145  11.134  1.00 27.99    -0.062 C 
HETATM   10  C10 STQ Z1621     -43.995 144.231  11.493  1.00 27.99     0.007 C 
HETATM   11  C11 STQ Z1621     -43.360 143.313  10.543  1.00 27.99     0.001 C 
HETATM   12  C12 STQ Z1621     -42.647 142.279  10.992  1.00 27.99     0.007 C 
HETATM   13  C13 STQ Z1621     -42.066 141.281  10.061  1.00 27.99    -0.062 C 
HETATM   14  C14 STQ Z1621     -41.491 140.186  10.602  1.00 27.99     0.007 C 
HETATM   15  C15 STQ Z1621     -40.893 139.097   9.823  1.00 27.99     0.001 C 
HETATM   16  C16 STQ Z1621     -49.831 147.411  12.539  1.00 27.99     0.020 C 
HETATM   17  C17 STQ Z1621     -49.238 144.989  12.755  1.00 27.99     0.020 C 
HETATM   18  C18 STQ Z1621     -45.779 148.382  13.974  1.00 27.99     0.044 C 
HETATM   19  C19 STQ Z1621     -45.354 145.365   9.703  1.00 27.99     0.048 C 
HETATM   20  C20 STQ Z1621     -42.174 141.523   8.578  1.00 27.99     0.048 C 
HETATM   21  O3  STQ Z1621     -49.306 147.221  17.040  1.00 27.99    -0.395 OA
ATOM     22  H3  STQ Z1621     -49.783 146.472  17.377  1.00  0.00     0.210 HD
HETATM   23  C21 STQ Z1621     -34.215 128.429   7.043  1.00 27.99    -0.035 C 
HETATM   24  C22 STQ Z1621     -33.429 127.613   6.033  1.00 27.99     0.045 C 
HETATM   25  C23 STQ Z1621     -31.927 127.813   6.148  1.00 27.99     0.142 C 
HETATM   26  C24 STQ Z1621     -31.547 129.258   6.391  1.00 27.99     0.007 C 
HETATM   27  C25 STQ Z1621     -32.429 130.209   6.740  1.00 27.99    -0.077 C 
HETATM   28  C26 STQ Z1621     -33.896 129.918   6.908  1.00 27.99     0.044 C 
HETATM   29  C27 STQ Z1621     -34.463 130.634   8.114  1.00 27.99    -0.016 C 
HETATM   30  C28 STQ Z1621     -35.454 131.505   7.932  1.00 27.99     0.003 C 
HETATM   31  C29 STQ Z1621     -36.057 132.242   9.060  1.00 27.99    -0.062 C 
HETATM   32  C30 STQ Z1621     -37.017 133.136   8.749  1.00 27.99     0.007 C 
HETATM   33  C31 STQ Z1621     -37.683 133.993   9.729  1.00 27.99     0.001 C 
HETATM   34  C32 STQ Z1621     -38.491 134.959   9.297  1.00 27.99     0.007 C 
HETATM   35  C33 STQ Z1621     -39.117 135.917  10.233  1.00 27.99    -0.062 C 
HETATM   36  C34 STQ Z1621     -39.744 136.981   9.687  1.00 27.99     0.007 C 
HETATM   37  C35 STQ Z1621     -40.360 138.060  10.462  1.00 27.99     0.001 C 
HETATM   38  C36 STQ Z1621     -33.928 127.889   8.442  1.00 27.99     0.016 C 
HETATM   39  C37 STQ Z1621     -35.697 128.251   6.733  1.00 27.99     0.016 C 
HETATM   40  C38 STQ Z1621     -31.929 131.613   6.941  1.00 27.99     0.044 C 
HETATM   41  C39 STQ Z1621     -35.583 131.946  10.458  1.00 27.99     0.048 C 
HETATM   42  C40 STQ Z1621     -38.972 135.695  11.715  1.00 27.99     0.048 C 
HETATM   43  O23 STQ Z1621     -31.374 127.395   4.900  1.00 27.99    -0.392 OA
ATOM     44  H23 STQ Z1621     -30.435 127.520   4.972  1.00  0.00     0.210 HD
ENDROOT
TORSDOF 12
BEGIN_RES PHE A  61
REMARK  2 active torsions:
REMARK  status: ('A' for Active; 'I' for Inactive)
REMARK    1  A    between atoms: CA   and  CB  
REMARK    2  A    between atoms: CB   and  CG  
ROOT
ATOM      1  CA  PHE A  61     -36.237 128.293  12.768  1.00 39.40     0.164 C 
ENDROOT
BRANCH   1   2
ATOM      2  CB  PHE A  61     -36.813 128.951  11.509  1.00 39.41     0.058 C 
BRANCH   2   3
ATOM      3  CG  PHE A  61     -37.026 128.004  10.352  1.00 39.01    -0.020 A 
ATOM      4  CD2 PHE A  61     -36.271 126.848  10.230  1.00 40.32    -0.004 A 
ATOM      5  CE2 PHE A  61     -36.466 125.980   9.164  1.00 40.20    -0.000 A 
ATOM      6  CZ  PHE A  61     -37.419 126.256   8.209  1.00 40.34    -0.000 A 
ATOM      7  CE1 PHE A  61     -38.178 127.400   8.317  1.00 41.51    -0.000 A 
ATOM      8  CD1 PHE A  61     -37.979 128.271   9.380  1.00 39.94    -0.004 A 
ENDBRANCH   2   3
ENDBRANCH   1   2
END_RES PHE A  61
BEGIN_RES VAL A 134
REMARK  1 active torsions:
REMARK  status: ('A' for Active; 'I' for Inactive)
REMARK    3  A    between atoms: CA   and  CB  
ROOT
ATOM      9  CA  VAL A 134     -29.766 132.051   9.815  1.00 40.75     0.159 C 
ENDROOT
BRANCH   9  10
ATOM     10  CB  VAL A 134     -30.864 132.765   9.009  1.00 40.76     0.029 C 
ATOM     11  CG1 VAL A 134     -32.125 132.929   9.845  1.00 41.76     0.002 C 
ATOM     12  CG2 VAL A 134     -30.388 134.109   8.480  1.00 40.56     0.002 C 
ENDBRANCH   9  10
END_RES VAL A 134
BEGIN_RES TYR A 338
REMARK  3 active torsions:
REMARK  status: ('A' for Active; 'I' for Inactive)
REMARK    4  A    between atoms: CA   and  CB  
REMARK    5  A    between atoms: CB   and  CG  
REMARK    6  A    between atoms: CZ   and  OH  
ROOT
ATOM     13  CA  TYR A 338     -41.631 124.950   6.058  1.00 38.23     0.164 C 
ENDROOT
BRANCH  13  14
ATOM     14  CB  TYR A 338     -41.621 126.456   6.339  1.00 39.15     0.058 C 
BRANCH  14  15
ATOM     15  CG  TYR A 338     -40.420 127.212   5.820  1.00 39.03    -0.020 A 
ATOM     16  CD2 TYR A 338     -40.263 128.558   6.103  1.00 40.65    -0.002 A 
ATOM     17  CE2 TYR A 338     -39.183 129.287   5.630  1.00 40.91     0.024 A 
ATOM     18  CZ  TYR A 338     -38.225 128.666   4.850  1.00 42.33     0.089 A 
ATOM     19  CE1 TYR A 338     -38.357 127.320   4.557  1.00 40.63     0.024 A 
ATOM     20  CD1 TYR A 338     -39.452 126.613   5.029  1.00 39.27    -0.002 A 
BRANCH  18  21
ATOM     21  OH  TYR A 338     -37.153 129.373   4.382  1.00 43.36    -0.359 OA
ATOM     22  HH  TYR A 338     -37.032 129.501   3.448  1.00  0.00     0.217 HD
ENDBRANCH  18  21
ENDBRANCH  14  15
ENDBRANCH  13  14
END_RES TYR A 338
ENDMDL
