MODEL 1
REMARK VINA RESULT:   -11.691      0.000      0.000
REMARK INTER + INTRA:         -12.435
REMARK INTER:                 -11.691
REMARK INTRA:                  -0.744
REMARK UNBOUND:                -0.744
REMARK  0 active torsions:
REMARK  status: ('A' for Active; 'I' for Inactive)
REMARK       I    between atoms: C3_3  and  O3_21 
REMARK       I    between atoms: C6_6  and  C7_7 
REMARK       I    between atoms: C8_8  and  C9_9 
REMARK       I    between atoms: C10_10  and  C11_11 
REMARK       I    between atoms: C12_12  and  C13_13 
REMARK       I    between atoms: C14_14  and  C15_15 
REMARK       I    between atoms: C23_25  and  O23_43 
REMARK       I    between atoms: C26_28  and  C27_29 
REMARK       I    between atoms: C28_30  and  C29_31 
REMARK       I    between atoms: C30_32  and  C31_33 
REMARK       I    between atoms: C32_34  and  C33_35 
REMARK       I    between atoms: C34_36  and  C35_37 
ROOT
HETATM    1  C1  STQ R 620     -34.210 128.353   6.928  1.00 48.79    -0.018 C 
HETATM    2  C2  STQ R 620     -33.549 128.161   5.570  1.00 49.38     0.045 C 
HETATM    3  C3  STQ R 620     -32.022 128.138   5.534  1.00 51.85     0.123 C 
HETATM    4  C4  STQ R 620     -31.383 129.221   6.386  1.00 54.16     0.066 C 
HETATM    5  C5  STQ R 620     -32.184 129.669   7.578  1.00 52.93    -0.074 C 
HETATM    6  C6  STQ R 620     -33.489 129.401   7.759  1.00 53.44    -0.048 C 
HETATM    7  C7  STQ R 620     -34.256 130.122   8.811  1.00 56.18     0.009 C 
HETATM    8  C8  STQ R 620     -35.030 131.172   8.532  1.00 54.04     0.007 C 
HETATM    9  C9  STQ R 620     -35.815 131.890   9.543  1.00 57.87    -0.062 C 
HETATM   10  C10 STQ R 620     -36.444 132.987   9.129  1.00 59.37     0.007 C 
HETATM   11  C11 STQ R 620     -37.289 133.818   9.969  1.00 54.77     0.001 C 
HETATM   12  C12 STQ R 620     -37.955 134.736   9.292  1.00 53.15     0.007 C 
HETATM   13  C13 STQ R 620     -38.898 135.671   9.902  1.00 52.91    -0.062 C 
HETATM   14  C14 STQ R 620     -39.598 136.415   9.052  1.00 56.79     0.007 C 
HETATM   15  C15 STQ R 620     -40.605 137.361   9.486  1.00 60.51     0.001 C 
HETATM   16  C16 STQ R 620     -34.253 127.024   7.667  1.00 50.92     0.020 C 
HETATM   17  C17 STQ R 620     -35.652 128.789   6.690  1.00 48.05     0.020 C 
HETATM   18  C18 STQ R 620     -31.527 130.867   8.182  1.00 55.82     0.044 C 
HETATM   19  C19 STQ R 620     -35.917 131.415  10.958  1.00 58.46     0.048 C 
HETATM   20  C20 STQ R 620     -39.083 135.765  11.385  1.00 55.54     0.048 C 
HETATM   21  O3  STQ R 620     -31.497 126.853   5.892  1.00 50.70    -0.395 OA
ATOM     22  H3  STQ R 620     -30.548 126.839   5.870  1.00  0.00     0.210 HD
HETATM   23  C21 STQ R 620     -50.433 144.714   9.511  1.00 52.92    -0.035 C 
HETATM   24  C22 STQ R 620     -51.420 145.361  10.465  1.00 50.14     0.045 C 
HETATM   25  C23 STQ R 620     -51.332 146.873  10.466  1.00 49.44     0.142 C 
HETATM   26  C24 STQ R 620     -49.908 147.354  10.574  1.00 54.43     0.007 C 
HETATM   27  C25 STQ R 620     -48.881 146.643  10.100  1.00 52.82    -0.077 C 
HETATM   28  C26 STQ R 620     -49.003 145.162   9.843  1.00 50.58     0.044 C 
HETATM   29  C27 STQ R 620     -48.055 144.727   8.753  1.00 46.60    -0.016 C 
HETATM   30  C28 STQ R 620     -47.119 143.866   9.107  1.00 44.92     0.003 C 
HETATM   31  C29 STQ R 620     -46.135 143.332   8.167  1.00 46.41    -0.062 C 
HETATM   32  C30 STQ R 620     -45.587 142.186   8.542  1.00 51.67     0.007 C 
HETATM   33  C31 STQ R 620     -44.591 141.457   7.794  1.00 48.57     0.001 C 
HETATM   34  C32 STQ R 620     -43.964 140.583   8.553  1.00 50.80     0.007 C 
HETATM   35  C33 STQ R 620     -42.912 139.714   8.041  1.00 54.69    -0.062 C 
HETATM   36  C34 STQ R 620     -42.353 138.876   8.911  1.00 55.71     0.007 C 
HETATM   37  C35 STQ R 620     -41.311 137.946   8.531  1.00 57.66     0.001 C 
HETATM   38  C36 STQ R 620     -50.807 145.010   8.059  1.00 53.57     0.016 C 
HETATM   39  C37 STQ R 620     -50.576 143.215   9.727  1.00 55.87     0.016 C 
HETATM   40  C38 STQ R 620     -47.588 147.358   9.844  1.00 57.19     0.044 C 
HETATM   41  C39 STQ R 620     -45.776 144.018   6.888  1.00 47.78     0.048 C 
HETATM   42  C40 STQ R 620     -42.492 139.802   6.608  1.00 56.30     0.048 C 
HETATM   43  O23 STQ R 620     -52.070 147.384  11.578  1.00 52.15    -0.392 OA
ATOM     44  H23 STQ R 620     -52.014 148.333  11.578  1.00  0.00     0.210 HD
ENDROOT
TORSDOF 12
BEGIN_RES PHE A  61
REMARK  2 active torsions:
REMARK  status: ('A' for Active; 'I' for Inactive)
REMARK    1  A    between atoms: CA   and  CB  
REMARK    2  A    between atoms: CB   and  CG  
ROOT
ATOM      1  CA  PHE A  61     -36.237 128.293  12.768  1.00 39.40     0.164 C 
ENDROOT
BRANCH   1   2
ATOM      2  CB  PHE A  61     -36.813 128.951  11.509  1.00 39.41     0.058 C 
BRANCH   2   3
ATOM      3  CG  PHE A  61     -37.002 128.010  10.344  1.00 39.01    -0.020 A 
ATOM      4  CD2 PHE A  61     -36.201 126.888  10.198  1.00 40.32    -0.004 A 
ATOM      5  CE2 PHE A  61     -36.374 126.024   9.124  1.00 40.20    -0.000 A 
ATOM      6  CZ  PHE A  61     -37.351 126.270   8.186  1.00 40.34    -0.000 A 
ATOM      7  CE1 PHE A  61     -38.156 127.379   8.317  1.00 41.51    -0.000 A 
ATOM      8  CD1 PHE A  61     -37.979 128.247   9.388  1.00 39.94    -0.004 A 
ENDBRANCH   2   3
ENDBRANCH   1   2
END_RES PHE A  61
BEGIN_RES VAL A 134
REMARK  1 active torsions:
REMARK  status: ('A' for Active; 'I' for Inactive)
REMARK    3  A    between atoms: CA   and  CB  
ROOT
ATOM      9  CA  VAL A 134     -29.766 132.051   9.815  1.00 40.75     0.159 C 
ENDROOT
BRANCH   9  10
ATOM     10  CB  VAL A 134     -30.864 132.765   9.009  1.00 40.76     0.029 C 
ATOM     11  CG1 VAL A 134     -32.104 132.983   9.864  1.00 41.76     0.002 C 
ATOM     12  CG2 VAL A 134     -30.369 134.081   8.430  1.00 40.56     0.002 C 
ENDBRANCH   9  10
END_RES VAL A 134
BEGIN_RES TYR A 338
REMARK  3 active torsions:
REMARK  status: ('A' for Active; 'I' for Inactive)
REMARK    4  A    between atoms: CA   and  CB  
REMARK    5  A    between atoms: CB   and  CG  
REMARK    6  A    between atoms: CZ   and  OH  
ROOT
ATOM     13  CA  TYR A 338     -41.631 124.950   6.058  1.00 38.23     0.164 C 
ENDROOT
BRANCH  13  14
ATOM     14  CB  TYR A 338     -41.621 126.456   6.339  1.00 39.15     0.058 C 
BRANCH  14  15
ATOM     15  CG  TYR A 338     -40.419 127.212   5.822  1.00 39.03    -0.020 A 
ATOM     16  CD2 TYR A 338     -40.267 128.560   6.097  1.00 40.65    -0.002 A 
ATOM     17  CE2 TYR A 338     -39.185 129.288   5.626  1.00 40.91     0.024 A 
ATOM     18  CZ  TYR A 338     -38.221 128.665   4.857  1.00 42.33     0.089 A 
ATOM     19  CE1 TYR A 338     -38.348 127.316   4.572  1.00 40.63     0.024 A 
ATOM     20  CD1 TYR A 338     -39.444 126.609   5.042  1.00 39.27    -0.002 A 
BRANCH  18  21
ATOM     21  OH  TYR A 338     -37.148 129.371   4.390  1.00 43.36    -0.359 OA
ATOM     22  HH  TYR A 338     -36.581 129.838   4.994  1.00  0.00     0.217 HD
ENDBRANCH  18  21
ENDBRANCH  14  15
ENDBRANCH  13  14
END_RES TYR A 338
ENDMDL
MODEL 2
REMARK VINA RESULT:    -9.811      1.603      1.994
REMARK INTER + INTRA:         -10.555
REMARK INTER:                  -7.331
REMARK INTRA:                  -3.224
REMARK UNBOUND:                -0.744
REMARK  0 active torsions:
REMARK  status: ('A' for Active; 'I' for Inactive)
REMARK       I    between atoms: C3_3  and  O3_21 
REMARK       I    between atoms: C6_6  and  C7_7 
REMARK       I    between atoms: C8_8  and  C9_9 
REMARK       I    between atoms: C10_10  and  C11_11 
REMARK       I    between atoms: C12_12  and  C13_13 
REMARK       I    between atoms: C14_14  and  C15_15 
REMARK       I    between atoms: C23_25  and  O23_43 
REMARK       I    between atoms: C26_28  and  C27_29 
REMARK       I    between atoms: C28_30  and  C29_31 
REMARK       I    between atoms: C30_32  and  C31_33 
REMARK       I    between atoms: C32_34  and  C33_35 
REMARK       I    between atoms: C34_36  and  C35_37 
ROOT
HETATM    1  C1  STQ R 620     -34.653 127.502   6.029  1.00 48.79    -0.018 C 
HETATM    2  C2  STQ R 620     -34.268 127.329   4.566  1.00 49.38     0.045 C 
HETATM    3  C3  STQ R 620     -32.780 127.189   4.249  1.00 51.85     0.123 C 
HETATM    4  C4  STQ R 620     -31.907 128.174   5.007  1.00 54.16     0.066 C 
HETATM    5  C5  STQ R 620     -32.438 128.620   6.342  1.00 52.93    -0.074 C 
HETATM    6  C6  STQ R 620     -33.706 128.446   6.751  1.00 53.44    -0.048 C 
HETATM    7  C7  STQ R 620     -34.206 129.169   7.952  1.00 56.18     0.009 C 
HETATM    8  C8  STQ R 620     -34.925 130.289   7.859  1.00 54.04     0.007 C 
HETATM    9  C9  STQ R 620     -35.449 131.012   9.024  1.00 57.87    -0.062 C 
HETATM   10  C10 STQ R 620     -36.046 132.174   8.774  1.00 59.37     0.007 C 
HETATM   11  C11 STQ R 620     -36.650 133.025   9.785  1.00 54.77     0.001 C 
HETATM   12  C12 STQ R 620     -37.346 134.025   9.277  1.00 53.15     0.007 C 
HETATM   13  C13 STQ R 620     -38.079 134.998  10.084  1.00 52.91    -0.062 C 
HETATM   14  C14 STQ R 620     -38.855 135.837   9.406  1.00 56.79     0.007 C 
HETATM   15  C15 STQ R 620     -39.681 136.835  10.053  1.00 60.51     0.001 C 
HETATM   16  C16 STQ R 620     -34.676 126.143   6.714  1.00 50.92     0.020 C 
HETATM   17  C17 STQ R 620     -36.072 128.060   6.078  1.00 48.05     0.020 C 
HETATM   18  C18 STQ R 620     -31.582 129.731   6.858  1.00 55.82     0.044 C 
HETATM   19  C19 STQ R 620     -35.333 130.473  10.415  1.00 58.46     0.048 C 
HETATM   20  C20 STQ R 620     -37.984 135.029  11.578  1.00 55.54     0.048 C 
HETATM   21  O3  STQ R 620     -32.312 125.850   4.456  1.00 50.70    -0.395 OA
ATOM     22  H3  STQ R 620     -31.387 125.763   4.259  1.00  0.00     0.210 HD
HETATM   23  C21 STQ R 620     -48.673 144.920  12.161  1.00 52.92    -0.035 C 
HETATM   24  C22 STQ R 620     -49.412 145.591  13.304  1.00 50.14     0.045 C 
HETATM   25  C23 STQ R 620     -49.195 147.090  13.344  1.00 49.44     0.142 C 
HETATM   26  C24 STQ R 620     -47.739 147.452  13.205  1.00 54.43     0.007 C 
HETATM   27  C25 STQ R 620     -46.880 146.689  12.524  1.00 52.82    -0.077 C 
HETATM   28  C26 STQ R 620     -47.174 145.237  12.240  1.00 50.58     0.044 C 
HETATM   29  C27 STQ R 620     -46.479 144.786  10.978  1.00 46.60    -0.016 C 
HETATM   30  C28 STQ R 620     -45.572 143.838  11.121  1.00 44.92     0.003 C 
HETATM   31  C29 STQ R 620     -44.824 143.279   9.997  1.00 46.41    -0.062 C 
HETATM   32  C30 STQ R 620     -44.318 142.075  10.222  1.00 51.67     0.007 C 
HETATM   33  C31 STQ R 620     -43.540 141.311   9.277  1.00 48.57     0.001 C 
HETATM   34  C32 STQ R 620     -42.864 140.352   9.874  1.00 50.80     0.007 C 
HETATM   35  C33 STQ R 620     -42.000 139.433   9.145  1.00 54.69    -0.062 C 
HETATM   36  C34 STQ R 620     -41.368 138.509   9.866  1.00 55.71     0.007 C 
HETATM   37  C35 STQ R 620     -40.496 137.522   9.266  1.00 57.66     0.001 C 
HETATM   38  C36 STQ R 620     -49.277 145.319  10.815  1.00 53.57     0.016 C 
HETATM   39  C37 STQ R 620     -48.903 143.427  12.344  1.00 55.87     0.016 C 
HETATM   40  C38 STQ R 620     -45.598 147.313  12.060  1.00 57.19     0.044 C 
HETATM   41  C39 STQ R 620     -44.645 144.000   8.700  1.00 47.78     0.048 C 
HETATM   42  C40 STQ R 620     -41.840 139.561   7.664  1.00 56.30     0.048 C 
HETATM   43  O23 STQ R 620     -49.673 147.598  14.591  1.00 52.15    -0.392 OA
ATOM     44  H23 STQ R 620     -49.537 148.538  14.616  1.00  0.00     0.210 HD
ENDROOT
TORSDOF 12
BEGIN_RES PHE A  61
REMARK  2 active torsions:
REMARK  status: ('A' for Active; 'I' for Inactive)
REMARK    1  A    between atoms: CA   and  CB  
REMARK    2  A    between atoms: CB   and  CG  
ROOT
ATOM      1  CA  PHE A  61     -36.237 128.293  12.768  1.00 39.40     0.164 C 
ENDROOT
BRANCH   1   2
ATOM      2  CB  PHE A  61     -36.813 128.951  11.509  1.00 39.41     0.058 C 
BRANCH   2   3
ATOM      3  CG  PHE A  61     -36.995 128.011  10.341  1.00 39.01    -0.020 A 
ATOM      4  CD2 PHE A  61     -38.000 128.220   9.410  1.00 40.32    -0.004 A 
ATOM      5  CE2 PHE A  61     -38.168 127.352   8.338  1.00 40.20    -0.000 A 
ATOM      6  CZ  PHE A  61     -37.332 126.270   8.183  1.00 40.34    -0.000 A 
ATOM      7  CE1 PHE A  61     -36.327 126.050   9.099  1.00 41.51    -0.000 A 
ATOM      8  CD1 PHE A  61     -36.163 126.913  10.174  1.00 39.94    -0.004 A 
ENDBRANCH   2   3
ENDBRANCH   1   2
END_RES PHE A  61
BEGIN_RES VAL A 134
REMARK  1 active torsions:
REMARK  status: ('A' for Active; 'I' for Inactive)
REMARK    3  A    between atoms: CA   and  CB  
ROOT
ATOM      9  CA  VAL A 134     -29.766 132.051   9.815  1.00 40.75     0.159 C 
ENDROOT
BRANCH   9  10
ATOM     10  CB  VAL A 134     -30.864 132.765   9.009  1.00 40.76     0.029 C 
ATOM     11  CG1 VAL A 134     -30.861 132.295   7.562  1.00 41.76     0.002 C 
ATOM     12  CG2 VAL A 134     -32.236 132.573   9.637  1.00 40.56     0.002 C 
ENDBRANCH   9  10
END_RES VAL A 134
BEGIN_RES TYR A 338
REMARK  3 active torsions:
REMARK  status: ('A' for Active; 'I' for Inactive)
REMARK    4  A    between atoms: CA   and  CB  
REMARK    5  A    between atoms: CB   and  CG  
REMARK    6  A    between atoms: CZ   and  OH  
ROOT
ATOM     13  CA  TYR A 338     -41.631 124.950   6.058  1.00 38.23     0.164 C 
ENDROOT
BRANCH  13  14
ATOM     14  CB  TYR A 338     -41.621 126.456   6.339  1.00 39.15     0.058 C 
BRANCH  14  15
ATOM     15  CG  TYR A 338     -40.432 127.216   5.799  1.00 39.03    -0.020 A 
ATOM     16  CD2 TYR A 338     -40.257 128.555   6.106  1.00 40.65    -0.002 A 
ATOM     17  CE2 TYR A 338     -39.187 129.287   5.615  1.00 40.91     0.024 A 
ATOM     18  CZ  TYR A 338     -38.259 128.678   4.793  1.00 42.33     0.089 A 
ATOM     19  CE1 TYR A 338     -38.409 127.339   4.475  1.00 40.63     0.024 A 
ATOM     20  CD1 TYR A 338     -39.493 126.628   4.965  1.00 39.27    -0.002 A 
BRANCH  18  21
ATOM     21  OH  TYR A 338     -37.197 129.389   4.306  1.00 43.36    -0.359 OA
ATOM     22  HH  TYR A 338     -37.311 129.979   3.571  1.00  0.00     0.217 HD
ENDBRANCH  18  21
ENDBRANCH  14  15
ENDBRANCH  13  14
END_RES TYR A 338
ENDMDL
MODEL 3
REMARK VINA RESULT:    -9.583      1.400     16.549
REMARK INTER + INTRA:         -10.327
REMARK INTER:                  -9.727
REMARK INTRA:                  -0.599
REMARK UNBOUND:                -0.744
REMARK  0 active torsions:
REMARK  status: ('A' for Active; 'I' for Inactive)
REMARK       I    between atoms: C3_3  and  O3_21 
REMARK       I    between atoms: C6_6  and  C7_7 
REMARK       I    between atoms: C8_8  and  C9_9 
REMARK       I    between atoms: C10_10  and  C11_11 
REMARK       I    between atoms: C12_12  and  C13_13 
REMARK       I    between atoms: C14_14  and  C15_15 
REMARK       I    between atoms: C23_25  and  O23_43 
REMARK       I    between atoms: C26_28  and  C27_29 
REMARK       I    between atoms: C28_30  and  C29_31 
REMARK       I    between atoms: C30_32  and  C31_33 
REMARK       I    between atoms: C32_34  and  C33_35 
REMARK       I    between atoms: C34_36  and  C35_37 
ROOT
HETATM    1  C1  STQ R 620     -49.870 144.692  12.211  1.00 48.79    -0.018 C 
HETATM    2  C2  STQ R 620     -50.360 144.805  13.648  1.00 49.38     0.045 C 
HETATM    3  C3  STQ R 620     -50.316 146.189  14.293  1.00 51.85     0.123 C 
HETATM    4  C4  STQ R 620     -49.024 146.940  14.019  1.00 54.16     0.066 C 
HETATM    5  C5  STQ R 620     -48.335 146.598  12.726  1.00 52.93    -0.074 C 
HETATM    6  C6  STQ R 620     -48.614 145.515  11.981  1.00 53.44    -0.048 C 
HETATM    7  C7  STQ R 620     -47.693 145.111  10.883  1.00 56.18     0.009 C 
HETATM    8  C8  STQ R 620     -46.786 144.145  11.037  1.00 54.04     0.007 C 
HETATM    9  C9  STQ R 620     -45.879 143.710   9.967  1.00 57.87    -0.062 C 
HETATM   10  C10 STQ R 620     -44.952 142.819  10.309  1.00 59.37     0.007 C 
HETATM   11  C11 STQ R 620     -43.982 142.247   9.392  1.00 54.77     0.001 C 
HETATM   12  C12 STQ R 620     -43.295 141.248   9.916  1.00 53.15     0.007 C 
HETATM   13  C13 STQ R 620     -42.286 140.484   9.185  1.00 52.91    -0.062 C 
HETATM   14  C14 STQ R 620     -41.813 139.413   9.813  1.00 56.79     0.007 C 
HETATM   15  C15 STQ R 620     -40.840 138.522   9.215  1.00 60.51     0.001 C 
HETATM   16  C16 STQ R 620     -50.975 145.127  11.260  1.00 50.92     0.020 C 
HETATM   17  C17 STQ R 620     -49.580 143.221  11.929  1.00 48.05     0.020 C 
HETATM   18  C18 STQ R 620     -46.993 147.254  12.704  1.00 55.82     0.044 C 
HETATM   19  C19 STQ R 620     -45.992 144.226   8.567  1.00 58.46     0.048 C 
HETATM   20  C20 STQ R 620     -41.836 140.867   7.809  1.00 55.54     0.048 C 
HETATM   21  O3  STQ R 620     -51.444 146.991  13.920  1.00 50.70    -0.395 OA
ATOM     22  H3  STQ R 620     -51.415 147.851  14.321  1.00  0.00     0.210 HD
HETATM   23  C21 STQ R 620     -34.211 128.492   6.741  1.00 52.92    -0.035 C 
HETATM   24  C22 STQ R 620     -33.398 127.861   5.626  1.00 50.14     0.045 C 
HETATM   25  C23 STQ R 620     -31.930 127.722   5.975  1.00 49.44     0.142 C 
HETATM   26  C24 STQ R 620     -31.367 128.993   6.556  1.00 54.43     0.007 C 
HETATM   27  C25 STQ R 620     -32.122 129.854   7.246  1.00 52.82    -0.077 C 
HETATM   28  C26 STQ R 620     -33.624 129.859   7.118  1.00 50.58     0.044 C 
HETATM   29  C27 STQ R 620     -34.269 130.373   8.382  1.00 46.60    -0.016 C 
HETATM   30  C28 STQ R 620     -34.967 131.487   8.267  1.00 44.92     0.003 C 
HETATM   31  C29 STQ R 620     -35.668 132.104   9.391  1.00 46.41    -0.062 C 
HETATM   32  C30 STQ R 620     -36.656 132.913   9.041  1.00 51.67     0.007 C 
HETATM   33  C31 STQ R 620     -37.497 133.643   9.959  1.00 48.57     0.001 C 
HETATM   34  C32 STQ R 620     -38.123 134.632   9.356  1.00 50.80     0.007 C 
HETATM   35  C33 STQ R 620     -39.038 135.523  10.057  1.00 54.69    -0.062 C 
HETATM   36  C34 STQ R 620     -39.605 136.486   9.334  1.00 55.71     0.007 C 
HETATM   37  C35 STQ R 620     -40.547 137.428   9.902  1.00 57.66     0.001 C 
HETATM   38  C36 STQ R 620     -34.304 127.554   7.944  1.00 53.57     0.016 C 
HETATM   39  C37 STQ R 620     -35.615 128.661   6.180  1.00 55.87     0.016 C 
HETATM   40  C38 STQ R 620     -31.429 130.833   8.147  1.00 57.19     0.044 C 
HETATM   41  C39 STQ R 620     -35.304 131.844  10.818  1.00 47.78     0.048 C 
HETATM   42  C40 STQ R 620     -39.288 135.347  11.521  1.00 56.30     0.048 C 
HETATM   43  O23 STQ R 620     -31.197 127.399   4.793  1.00 52.15    -0.392 OA
ATOM     44  H23 STQ R 620     -30.276 127.312   5.012  1.00  0.00     0.210 HD
ENDROOT
TORSDOF 12
BEGIN_RES PHE A  61
REMARK  2 active torsions:
REMARK  status: ('A' for Active; 'I' for Inactive)
REMARK    1  A    between atoms: CA   and  CB  
REMARK    2  A    between atoms: CB   and  CG  
ROOT
ATOM      1  CA  PHE A  61     -36.237 128.293  12.768  1.00 39.40     0.164 C 
ENDROOT
BRANCH   1   2
ATOM      2  CB  PHE A  61     -36.813 128.951  11.509  1.00 39.41     0.058 C 
BRANCH   2   3
ATOM      3  CG  PHE A  61     -36.977 128.015  10.335  1.00 39.01    -0.020 A 
ATOM      4  CD2 PHE A  61     -36.214 126.863  10.232  1.00 40.32    -0.004 A 
ATOM      5  CE2 PHE A  61     -36.364 126.005   9.150  1.00 40.20    -0.000 A 
ATOM      6  CZ  PHE A  61     -37.280 126.286   8.162  1.00 40.34    -0.000 A 
ATOM      7  CE1 PHE A  61     -38.048 127.426   8.251  1.00 41.51    -0.000 A 
ATOM      8  CD1 PHE A  61     -37.893 128.288   9.330  1.00 39.94    -0.004 A 
ENDBRANCH   2   3
ENDBRANCH   1   2
END_RES PHE A  61
BEGIN_RES VAL A 134
REMARK  1 active torsions:
REMARK  status: ('A' for Active; 'I' for Inactive)
REMARK    3  A    between atoms: CA   and  CB  
ROOT
ATOM      9  CA  VAL A 134     -29.766 132.051   9.815  1.00 40.75     0.159 C 
ENDROOT
BRANCH   9  10
ATOM     10  CB  VAL A 134     -30.864 132.765   9.009  1.00 40.76     0.029 C 
ATOM     11  CG1 VAL A 134     -32.086 133.026   9.878  1.00 41.76     0.002 C 
ATOM     12  CG2 VAL A 134     -30.355 134.058   8.390  1.00 40.56     0.002 C 
ENDBRANCH   9  10
END_RES VAL A 134
BEGIN_RES TYR A 338
REMARK  3 active torsions:
REMARK  status: ('A' for Active; 'I' for Inactive)
REMARK    4  A    between atoms: CA   and  CB  
REMARK    5  A    between atoms: CB   and  CG  
REMARK    6  A    between atoms: CZ   and  OH  
ROOT
ATOM     13  CA  TYR A 338     -41.631 124.950   6.058  1.00 38.23     0.164 C 
ENDROOT
BRANCH  13  14
ATOM     14  CB  TYR A 338     -41.621 126.456   6.339  1.00 39.15     0.058 C 
BRANCH  14  15
ATOM     15  CG  TYR A 338     -40.430 127.216   5.802  1.00 39.03    -0.020 A 
ATOM     16  CD2 TYR A 338     -40.269 128.561   6.089  1.00 40.65    -0.002 A 
ATOM     17  CE2 TYR A 338     -39.198 129.292   5.600  1.00 40.91     0.024 A 
ATOM     18  CZ  TYR A 338     -38.254 128.676   4.800  1.00 42.33     0.089 A 
ATOM     19  CE1 TYR A 338     -38.390 127.331   4.504  1.00 40.63     0.024 A 
ATOM     20  CD1 TYR A 338     -39.476 126.620   4.991  1.00 39.27    -0.002 A 
BRANCH  18  21
ATOM     21  OH  TYR A 338     -37.191 129.386   4.317  1.00 43.36    -0.359 OA
ATOM     22  HH  TYR A 338     -37.071 130.297   4.558  1.00  0.00     0.217 HD
ENDBRANCH  18  21
ENDBRANCH  14  15
ENDBRANCH  13  14
END_RES TYR A 338
ENDMDL
