MODEL 1
REMARK VINA RESULT:    -7.974      0.000      0.000
REMARK INTER + INTRA:         -10.462
REMARK INTER:                  -7.974
REMARK INTRA:                  -2.488
REMARK UNBOUND:                -2.488
REMARK  0 active torsions:
REMARK  status: ('A' for Active; 'I' for Inactive)
REMARK       I    between atoms: C3_3  and  O3_21 
REMARK       I    between atoms: C6_6  and  C7_7 
REMARK       I    between atoms: C8_8  and  C9_9 
REMARK       I    between atoms: C10_10  and  C11_11 
REMARK       I    between atoms: C12_12  and  C13_13 
REMARK       I    between atoms: C14_14  and  C15_15 
REMARK       I    between atoms: C23_25  and  O23_43 
REMARK       I    between atoms: C26_28  and  C27_29 
REMARK       I    between atoms: C28_30  and  C29_31 
REMARK       I    between atoms: C30_32  and  C31_33 
REMARK       I    between atoms: C32_34  and  C33_35 
REMARK       I    between atoms: C34_36  and  C35_37 
ROOT
HETATM    1  C1  STQ D3620     -34.595 127.025   6.117  1.00 21.49    -0.018 C 
HETATM    2  C2  STQ D3620     -34.128 126.380   4.794  1.00 21.50     0.045 C 
HETATM    3  C3  STQ D3620     -32.877 126.917   4.090  1.00 22.37     0.123 C 
HETATM    4  C4  STQ D3620     -31.970 127.800   4.951  1.00 21.17     0.066 C 
HETATM    5  C5  STQ D3620     -32.553 128.553   6.102  1.00 19.70    -0.074 C 
HETATM    6  C6  STQ D3620     -33.770 128.222   6.667  1.00 20.41    -0.048 C 
HETATM    7  C7  STQ D3620     -34.340 128.971   7.805  1.00 19.41     0.009 C 
HETATM    8  C8  STQ D3620     -34.963 130.157   7.777  1.00 18.90     0.007 C 
HETATM    9  C9  STQ D3620     -35.398 130.960   8.924  1.00 20.60    -0.062 C 
HETATM   10  C10 STQ D3620     -36.107 132.080   8.667  1.00 18.78     0.007 C 
HETATM   11  C11 STQ D3620     -36.639 132.997   9.629  1.00 19.97     0.001 C 
HETATM   12  C12 STQ D3620     -37.473 133.967   9.219  1.00 23.02     0.007 C 
HETATM   13  C13 STQ D3620     -38.160 134.984  10.017  1.00 23.57    -0.062 C 
HETATM   14  C14 STQ D3620     -39.038 135.786   9.377  1.00 23.43     0.007 C 
HETATM   15  C15 STQ D3620     -39.884 136.794   9.950  1.00 24.57     0.001 C 
HETATM   16  C16 STQ D3620     -34.538 125.853   7.116  1.00 19.84     0.020 C 
HETATM   17  C17 STQ D3620     -36.079 127.435   5.932  1.00 19.63     0.020 C 
HETATM   18  C18 STQ D3620     -31.595 129.633   6.459  1.00 19.29     0.044 C 
HETATM   19  C19 STQ D3620     -35.070 130.461  10.313  1.00 18.57     0.048 C 
HETATM   20  C20 STQ D3620     -37.895 135.016  11.490  1.00 22.43     0.048 C 
HETATM   21  O3  STQ D3620     -32.128 125.850   3.533  1.00 22.38    -0.395 OA
ATOM     22  H3  STQ D3620     -31.352 126.183   3.097  1.00  0.00     0.210 HD
HETATM   23  C21 STQ D3620     -49.683 144.589  12.617  1.00 34.58    -0.035 C 
HETATM   24  C22 STQ D3620     -50.550 145.487  13.530  1.00 34.81     0.045 C 
HETATM   25  C23 STQ D3620     -50.358 146.995  13.336  1.00 35.13     0.142 C 
HETATM   26  C24 STQ D3620     -48.894 147.375  13.091  1.00 35.28     0.007 C 
HETATM   27  C25 STQ D3620     -47.938 146.489  12.730  1.00 35.11    -0.077 C 
HETATM   28  C26 STQ D3620     -48.172 144.994  12.527  1.00 34.37     0.044 C 
HETATM   29  C27 STQ D3620     -47.428 144.478  11.300  1.00 33.36    -0.016 C 
HETATM   30  C28 STQ D3620     -46.498 143.488  11.345  1.00 31.26     0.003 C 
HETATM   31  C29 STQ D3620     -45.910 142.746  10.213  1.00 31.15    -0.062 C 
HETATM   32  C30 STQ D3620     -44.983 141.802  10.481  1.00 29.00     0.007 C 
HETATM   33  C31 STQ D3620     -44.303 140.980   9.528  1.00 26.88     0.001 C 
HETATM   34  C32 STQ D3620     -43.366 140.110   9.918  1.00 27.02     0.007 C 
HETATM   35  C33 STQ D3620     -42.546 139.206   9.104  1.00 27.13    -0.062 C 
HETATM   36  C34 STQ D3620     -41.641 138.434   9.747  1.00 25.88     0.007 C 
HETATM   37  C35 STQ D3620     -40.736 137.477   9.178  1.00 25.96     0.001 C 
HETATM   38  C36 STQ D3620     -50.330 144.589  11.205  1.00 33.56     0.016 C 
HETATM   39  C37 STQ D3620     -49.793 143.160  13.164  1.00 32.85     0.016 C 
HETATM   40  C38 STQ D3620     -46.580 147.095  12.568  1.00 34.58     0.044 C 
HETATM   41  C39 STQ D3620     -46.366 143.098   8.826  1.00 30.08     0.048 C 
HETATM   42  C40 STQ D3620     -42.761 139.209   7.618  1.00 24.80     0.048 C 
HETATM   43  O23 STQ D3620     -50.882 147.705  14.452  1.00 36.44    -0.392 OA
ATOM     44  H23 STQ D3620     -50.763 148.640  14.332  1.00  0.00     0.210 HD
ENDROOT
TORSDOF 12
BEGIN_RES PHE A  61
REMARK  2 active torsions:
REMARK  status: ('A' for Active; 'I' for Inactive)
REMARK    1  A    between atoms: CA   and  CB  
REMARK    2  A    between atoms: CB   and  CG  
ROOT
ATOM      1  CA  PHE A  61     -36.237 128.293  12.768  1.00 39.40     0.164 C 
ENDROOT
BRANCH   1   2
ATOM      2  CB  PHE A  61     -36.813 128.951  11.509  1.00 39.41     0.058 C 
BRANCH   2   3
ATOM      3  CG  PHE A  61     -37.043 128.001  10.358  1.00 39.01    -0.020 A 
ATOM      4  CD2 PHE A  61     -36.286 126.847  10.225  1.00 40.32    -0.004 A 
ATOM      5  CE2 PHE A  61     -36.497 125.976   9.164  1.00 40.20    -0.000 A 
ATOM      6  CZ  PHE A  61     -37.468 126.246   8.227  1.00 40.34    -0.000 A 
ATOM      7  CE1 PHE A  61     -38.229 127.387   8.345  1.00 41.51    -0.000 A 
ATOM      8  CD1 PHE A  61     -38.015 128.262   9.403  1.00 39.94    -0.004 A 
ENDBRANCH   2   3
ENDBRANCH   1   2
END_RES PHE A  61
BEGIN_RES VAL A 134
REMARK  1 active torsions:
REMARK  status: ('A' for Active; 'I' for Inactive)
REMARK    3  A    between atoms: CA   and  CB  
ROOT
ATOM      9  CA  VAL A 134     -29.766 132.051   9.815  1.00 40.75     0.159 C 
ENDROOT
BRANCH   9  10
ATOM     10  CB  VAL A 134     -30.864 132.765   9.009  1.00 40.76     0.029 C 
ATOM     11  CG1 VAL A 134     -30.895 132.258   7.575  1.00 41.76     0.002 C 
ATOM     12  CG2 VAL A 134     -32.228 132.615   9.664  1.00 40.56     0.002 C 
ENDBRANCH   9  10
END_RES VAL A 134
BEGIN_RES TYR A 338
REMARK  3 active torsions:
REMARK  status: ('A' for Active; 'I' for Inactive)
REMARK    4  A    between atoms: CA   and  CB  
REMARK    5  A    between atoms: CB   and  CG  
REMARK    6  A    between atoms: CZ   and  OH  
ROOT
ATOM     13  CA  TYR A 338     -41.631 124.950   6.058  1.00 38.23     0.164 C 
ENDROOT
BRANCH  13  14
ATOM     14  CB  TYR A 338     -41.621 126.456   6.339  1.00 39.15     0.058 C 
BRANCH  14  15
ATOM     15  CG  TYR A 338     -40.437 127.218   5.790  1.00 39.03    -0.020 A 
ATOM     16  CD2 TYR A 338     -40.240 128.546   6.128  1.00 40.65    -0.002 A 
ATOM     17  CE2 TYR A 338     -39.174 129.280   5.631  1.00 40.91     0.024 A 
ATOM     18  CZ  TYR A 338     -38.273 128.683   4.769  1.00 42.33     0.089 A 
ATOM     19  CE1 TYR A 338     -38.446 127.355   4.419  1.00 40.63     0.024 A 
ATOM     20  CD1 TYR A 338     -39.526 126.643   4.917  1.00 39.27    -0.002 A 
BRANCH  18  21
ATOM     21  OH  TYR A 338     -37.216 129.396   4.276  1.00 43.36    -0.359 OA
ATOM     22  HH  TYR A 338     -37.288 129.848   3.443  1.00  0.00     0.217 HD
ENDBRANCH  18  21
ENDBRANCH  14  15
ENDBRANCH  13  14
END_RES TYR A 338
ENDMDL
MODEL 2
REMARK VINA RESULT:    -7.510      1.516      2.070
REMARK INTER + INTRA:          -9.998
REMARK INTER:                  -9.635
REMARK INTRA:                  -0.363
REMARK UNBOUND:                -2.488
REMARK  0 active torsions:
REMARK  status: ('A' for Active; 'I' for Inactive)
REMARK       I    between atoms: C3_3  and  O3_21 
REMARK       I    between atoms: C6_6  and  C7_7 
REMARK       I    between atoms: C8_8  and  C9_9 
REMARK       I    between atoms: C10_10  and  C11_11 
REMARK       I    between atoms: C12_12  and  C13_13 
REMARK       I    between atoms: C14_14  and  C15_15 
REMARK       I    between atoms: C23_25  and  O23_43 
REMARK       I    between atoms: C26_28  and  C27_29 
REMARK       I    between atoms: C28_30  and  C29_31 
REMARK       I    between atoms: C30_32  and  C31_33 
REMARK       I    between atoms: C32_34  and  C33_35 
REMARK       I    between atoms: C34_36  and  C35_37 
ROOT
HETATM    1  C1  STQ D3620     -34.242 128.295   6.728  1.00 21.49    -0.018 C 
HETATM    2  C2  STQ D3620     -33.371 127.770   5.565  1.00 21.50     0.045 C 
HETATM    3  C3  STQ D3620     -31.969 128.349   5.349  1.00 22.37     0.123 C 
HETATM    4  C4  STQ D3620     -31.393 129.130   6.533  1.00 21.17     0.066 C 
HETATM    5  C5  STQ D3620     -32.321 129.781   7.506  1.00 19.70    -0.074 C 
HETATM    6  C6  STQ D3620     -33.650 129.420   7.622  1.00 20.41    -0.048 C 
HETATM    7  C7  STQ D3620     -34.561 130.068   8.587  1.00 19.41     0.009 C 
HETATM    8  C8  STQ D3620     -35.158 131.263   8.477  1.00 18.90     0.007 C 
HETATM    9  C9  STQ D3620     -35.944 131.961   9.498  1.00 20.60    -0.062 C 
HETATM   10  C10 STQ D3620     -36.550 133.112   9.138  1.00 18.78     0.007 C 
HETATM   11  C11 STQ D3620     -37.371 133.944   9.964  1.00 19.97     0.001 C 
HETATM   12  C12 STQ D3620     -38.045 134.964   9.406  1.00 23.02     0.007 C 
HETATM   13  C13 STQ D3620     -38.963 135.913  10.039  1.00 23.57    -0.062 C 
HETATM   14  C14 STQ D3620     -39.603 136.787   9.233  1.00 23.43     0.007 C 
HETATM   15  C15 STQ D3620     -40.600 137.751   9.602  1.00 24.57     0.001 C 
HETATM   16  C16 STQ D3620     -34.489 127.033   7.577  1.00 19.84     0.020 C 
HETATM   17  C17 STQ D3620     -35.596 128.748   6.123  1.00 19.63     0.020 C 
HETATM   18  C18 STQ D3620     -31.540 130.805   8.249  1.00 19.29     0.044 C 
HETATM   19  C19 STQ D3620     -36.067 131.327  10.865  1.00 18.57     0.048 C 
HETATM   20  C20 STQ D3620     -39.178 135.800  11.516  1.00 22.43     0.048 C 
HETATM   21  O3  STQ D3620     -31.069 127.326   4.958  1.00 22.38    -0.395 OA
ATOM     22  H3  STQ D3620     -30.199 127.685   4.824  1.00  0.00     0.210 HD
HETATM   23  C21 STQ D3620     -50.840 145.433   9.760  1.00 34.58    -0.035 C 
HETATM   24  C22 STQ D3620     -51.964 146.256  10.433  1.00 34.81     0.045 C 
HETATM   25  C23 STQ D3620     -51.740 147.772  10.455  1.00 35.13     0.142 C 
HETATM   26  C24 STQ D3620     -50.279 148.147  10.723  1.00 35.28     0.007 C 
HETATM   27  C25 STQ D3620     -49.246 147.282  10.601  1.00 35.11    -0.077 C 
HETATM   28  C26 STQ D3620     -49.384 145.818  10.192  1.00 34.37     0.044 C 
HETATM   29  C27 STQ D3620     -48.283 145.406   9.221  1.00 33.36    -0.016 C 
HETATM   30  C28 STQ D3620     -47.403 144.400   9.463  1.00 31.26     0.003 C 
HETATM   31  C29 STQ D3620     -46.477 143.759   8.510  1.00 31.15    -0.062 C 
HETATM   32  C30 STQ D3620     -45.670 142.777   8.967  1.00 29.00     0.007 C 
HETATM   33  C31 STQ D3620     -44.712 142.037   8.204  1.00 26.88     0.001 C 
HETATM   34  C32 STQ D3620     -43.935 141.117   8.786  1.00 27.02     0.007 C 
HETATM   35  C33 STQ D3620     -42.889 140.280   8.191  1.00 27.13    -0.062 C 
HETATM   36  C34 STQ D3620     -42.224 139.434   9.011  1.00 25.88     0.007 C 
HETATM   37  C35 STQ D3620     -41.173 138.519   8.669  1.00 25.96     0.001 C 
HETATM   38  C36 STQ D3620     -51.007 145.578   8.223  1.00 33.56     0.016 C 
HETATM   39  C37 STQ D3620     -51.100 143.960  10.106  1.00 32.85     0.016 C 
HETATM   40  C38 STQ D3620     -47.915 147.877  10.935  1.00 34.58     0.044 C 
HETATM   41  C39 STQ D3620     -46.474 144.248   7.090  1.00 30.08     0.048 C 
HETATM   42  C40 STQ D3620     -42.622 140.426   6.721  1.00 24.80     0.048 C 
HETATM   43  O23 STQ D3620     -52.600 148.382  11.409  1.00 36.44    -0.392 OA
ATOM     44  H23 STQ D3620     -52.461 149.322  11.423  1.00  0.00     0.210 HD
ENDROOT
TORSDOF 12
BEGIN_RES PHE A  61
REMARK  2 active torsions:
REMARK  status: ('A' for Active; 'I' for Inactive)
REMARK    1  A    between atoms: CA   and  CB  
REMARK    2  A    between atoms: CB   and  CG  
ROOT
ATOM      1  CA  PHE A  61     -36.237 128.293  12.768  1.00 39.40     0.164 C 
ENDROOT
BRANCH   1   2
ATOM      2  CB  PHE A  61     -36.813 128.951  11.509  1.00 39.41     0.058 C 
BRANCH   2   3
ATOM      3  CG  PHE A  61     -36.992 128.012  10.340  1.00 39.01    -0.020 A 
ATOM      4  CD2 PHE A  61     -37.893 128.300   9.327  1.00 40.32    -0.004 A 
ATOM      5  CE2 PHE A  61     -38.059 127.433   8.254  1.00 40.20    -0.000 A 
ATOM      6  CZ  PHE A  61     -37.324 126.272   8.180  1.00 40.34    -0.000 A 
ATOM      7  CE1 PHE A  61     -36.423 125.972   9.177  1.00 41.51    -0.000 A 
ATOM      8  CD1 PHE A  61     -36.261 126.835  10.254  1.00 39.94    -0.004 A 
ENDBRANCH   2   3
ENDBRANCH   1   2
END_RES PHE A  61
BEGIN_RES VAL A 134
REMARK  1 active torsions:
REMARK  status: ('A' for Active; 'I' for Inactive)
REMARK    3  A    between atoms: CA   and  CB  
ROOT
ATOM      9  CA  VAL A 134     -29.766 132.051   9.815  1.00 40.75     0.159 C 
ENDROOT
BRANCH   9  10
ATOM     10  CB  VAL A 134     -30.864 132.765   9.009  1.00 40.76     0.029 C 
ATOM     11  CG1 VAL A 134     -32.103 132.986   9.865  1.00 41.76     0.002 C 
ATOM     12  CG2 VAL A 134     -30.368 134.080   8.427  1.00 40.56     0.002 C 
ENDBRANCH   9  10
END_RES VAL A 134
BEGIN_RES TYR A 338
REMARK  3 active torsions:
REMARK  status: ('A' for Active; 'I' for Inactive)
REMARK    4  A    between atoms: CA   and  CB  
REMARK    5  A    between atoms: CB   and  CG  
REMARK    6  A    between atoms: CZ   and  OH  
ROOT
ATOM     13  CA  TYR A 338     -41.631 124.950   6.058  1.00 38.23     0.164 C 
ENDROOT
BRANCH  13  14
ATOM     14  CB  TYR A 338     -41.621 126.456   6.339  1.00 39.15     0.058 C 
BRANCH  14  15
ATOM     15  CG  TYR A 338     -40.436 127.218   5.791  1.00 39.03    -0.020 A 
ATOM     16  CD2 TYR A 338     -39.469 126.567   5.043  1.00 40.65    -0.002 A 
ATOM     17  CE2 TYR A 338     -38.362 127.231   4.539  1.00 40.91     0.024 A 
ATOM     18  CZ  TYR A 338     -38.202 128.582   4.782  1.00 42.33     0.089 A 
ATOM     19  CE1 TYR A 338     -39.157 129.256   5.523  1.00 40.63     0.024 A 
ATOM     20  CD1 TYR A 338     -40.251 128.571   6.029  1.00 39.27    -0.002 A 
BRANCH  18  21
ATOM     21  OH  TYR A 338     -37.116 129.248   4.286  1.00 43.36    -0.359 OA
ATOM     22  HH  TYR A 338     -36.386 128.767   3.915  1.00  0.00     0.217 HD
ENDBRANCH  18  21
ENDBRANCH  14  15
ENDBRANCH  13  14
END_RES TYR A 338
ENDMDL
MODEL 3
REMARK VINA RESULT:    -5.325      1.174     17.130
REMARK INTER + INTRA:          -7.813
REMARK INTER:                  -7.311
REMARK INTRA:                  -0.502
REMARK UNBOUND:                -2.488
REMARK  0 active torsions:
REMARK  status: ('A' for Active; 'I' for Inactive)
REMARK       I    between atoms: C3_3  and  O3_21 
REMARK       I    between atoms: C6_6  and  C7_7 
REMARK       I    between atoms: C8_8  and  C9_9 
REMARK       I    between atoms: C10_10  and  C11_11 
REMARK       I    between atoms: C12_12  and  C13_13 
REMARK       I    between atoms: C14_14  and  C15_15 
REMARK       I    between atoms: C23_25  and  O23_43 
REMARK       I    between atoms: C26_28  and  C27_29 
REMARK       I    between atoms: C28_30  and  C29_31 
REMARK       I    between atoms: C30_32  and  C31_33 
REMARK       I    between atoms: C32_34  and  C33_35 
REMARK       I    between atoms: C34_36  and  C35_37 
ROOT
HETATM    1  C1  STQ D3620     -51.400 144.617  12.440  1.00 21.49    -0.018 C 
HETATM    2  C2  STQ D3620     -52.055 145.171  13.724  1.00 21.50     0.045 C 
HETATM    3  C3  STQ D3620     -51.490 146.438  14.375  1.00 22.37     0.123 C 
HETATM    4  C4  STQ D3620     -50.560 147.270  13.488  1.00 21.17     0.066 C 
HETATM    5  C5  STQ D3620     -49.804 146.605  12.385  1.00 19.70    -0.074 C 
HETATM    6  C6  STQ D3620     -50.165 145.372  11.874  1.00 20.41    -0.048 C 
HETATM    7  C7  STQ D3620     -49.414 144.721  10.783  1.00 19.41     0.009 C 
HETATM    8  C8  STQ D3620     -48.250 144.061  10.868  1.00 18.90     0.007 C 
HETATM    9  C9  STQ D3620     -47.440 143.542   9.762  1.00 20.60    -0.062 C 
HETATM   10  C10 STQ D3620     -46.350 142.811  10.077  1.00 18.78     0.007 C 
HETATM   11  C11 STQ D3620     -45.433 142.201   9.164  1.00 19.97     0.001 C 
HETATM   12  C12 STQ D3620     -44.499 141.358   9.636  1.00 23.02     0.007 C 
HETATM   13  C13 STQ D3620     -43.491 140.597   8.895  1.00 23.57    -0.062 C 
HETATM   14  C14 STQ D3620     -42.732 139.727   9.595  1.00 23.43     0.007 C 
HETATM   15  C15 STQ D3620     -41.742 138.821   9.088  1.00 24.57     0.001 C 
HETATM   16  C16 STQ D3620     -52.549 144.660  11.414  1.00 19.84     0.020 C 
HETATM   17  C17 STQ D3620     -51.044 143.131  12.707  1.00 19.63     0.020 C 
HETATM   18  C18 STQ D3620     -48.686 147.507  12.003  1.00 19.29     0.044 C 
HETATM   19  C19 STQ D3620     -47.900 143.815   8.347  1.00 18.57     0.048 C 
HETATM   20  C20 STQ D3620     -43.421 140.786   7.412  1.00 22.43     0.048 C 
HETATM   21  O3  STQ D3620     -52.542 147.249  14.871  1.00 22.38    -0.395 OA
ATOM     22  H3  STQ D3620     -52.191 148.035  15.274  1.00  0.00     0.210 HD
HETATM   23  C21 STQ D3620     -34.233 128.648   7.084  1.00 34.58    -0.035 C 
HETATM   24  C22 STQ D3620     -33.347 127.706   6.235  1.00 34.81     0.045 C 
HETATM   25  C23 STQ D3620     -31.838 127.858   6.451  1.00 35.13     0.142 C 
HETATM   26  C24 STQ D3620     -31.413 129.319   6.631  1.00 35.28     0.007 C 
HETATM   27  C25 STQ D3620     -32.273 130.321   6.924  1.00 35.11    -0.077 C 
HETATM   28  C26 STQ D3620     -33.779 130.147   7.107  1.00 34.37     0.044 C 
HETATM   29  C27 STQ D3620     -34.294 130.969   8.283  1.00 33.36    -0.016 C 
HETATM   30  C28 STQ D3620     -35.250 131.927   8.170  1.00 31.26     0.003 C 
HETATM   31  C29 STQ D3620     -35.994 132.596   9.255  1.00 31.15    -0.062 C 
HETATM   32  C30 STQ D3620     -36.901 133.539   8.921  1.00 29.00     0.007 C 
HETATM   33  C31 STQ D3620     -37.718 134.294   9.821  1.00 26.88     0.001 C 
HETATM   34  C32 STQ D3620     -38.547 135.238   9.366  1.00 27.02     0.007 C 
HETATM   35  C33 STQ D3620     -39.439 136.127  10.118  1.00 27.13    -0.062 C 
HETATM   36  C34 STQ D3620     -40.167 137.023   9.414  1.00 25.88     0.007 C 
HETATM   37  C35 STQ D3620     -41.104 137.986   9.915  1.00 25.96     0.001 C 
HETATM   38  C36 STQ D3620     -34.283 128.074   8.526  1.00 33.56     0.016 C 
HETATM   39  C37 STQ D3620     -35.654 128.556   6.512  1.00 32.85     0.016 C 
HETATM   40  C38 STQ D3620     -31.624 131.665   7.031  1.00 34.58     0.044 C 
HETATM   41  C39 STQ D3620     -35.685 132.200  10.671  1.00 30.08     0.048 C 
HETATM   42  C40 STQ D3620     -39.473 135.988  11.612  1.00 24.80     0.048 C 
HETATM   43  O23 STQ D3620     -31.124 127.254   5.379  1.00 36.44    -0.392 OA
ATOM     44  H23 STQ D3620     -30.188 127.349   5.513  1.00  0.00     0.210 HD
ENDROOT
TORSDOF 12
BEGIN_RES PHE A  61
REMARK  2 active torsions:
REMARK  status: ('A' for Active; 'I' for Inactive)
REMARK    1  A    between atoms: CA   and  CB  
REMARK    2  A    between atoms: CB   and  CG  
ROOT
ATOM      1  CA  PHE A  61     -36.237 128.293  12.768  1.00 39.40     0.164 C 
ENDROOT
BRANCH   1   2
ATOM      2  CB  PHE A  61     -36.813 128.951  11.509  1.00 39.41     0.058 C 
BRANCH   2   3
ATOM      3  CG  PHE A  61     -37.011 128.008  10.347  1.00 39.01    -0.020 A 
ATOM      4  CD2 PHE A  61     -36.240 126.863  10.220  1.00 40.32    -0.004 A 
ATOM      5  CE2 PHE A  61     -36.421 125.997   9.148  1.00 40.20    -0.000 A 
ATOM      6  CZ  PHE A  61     -37.376 126.264   8.195  1.00 40.34    -0.000 A 
ATOM      7  CE1 PHE A  61     -38.152 127.397   8.307  1.00 41.51    -0.000 A 
ATOM      8  CD1 PHE A  61     -37.967 128.266   9.375  1.00 39.94    -0.004 A 
ENDBRANCH   2   3
ENDBRANCH   1   2
END_RES PHE A  61
BEGIN_RES VAL A 134
REMARK  1 active torsions:
REMARK  status: ('A' for Active; 'I' for Inactive)
REMARK    3  A    between atoms: CA   and  CB  
ROOT
ATOM      9  CA  VAL A 134     -29.766 132.051   9.815  1.00 40.75     0.159 C 
ENDROOT
BRANCH   9  10
ATOM     10  CB  VAL A 134     -30.864 132.765   9.009  1.00 40.76     0.029 C 
ATOM     11  CG1 VAL A 134     -32.110 132.968   9.859  1.00 41.76     0.002 C 
ATOM     12  CG2 VAL A 134     -30.374 134.089   8.444  1.00 40.56     0.002 C 
ENDBRANCH   9  10
END_RES VAL A 134
BEGIN_RES TYR A 338
REMARK  3 active torsions:
REMARK  status: ('A' for Active; 'I' for Inactive)
REMARK    4  A    between atoms: CA   and  CB  
REMARK    5  A    between atoms: CB   and  CG  
REMARK    6  A    between atoms: CZ   and  OH  
ROOT
ATOM     13  CA  TYR A 338     -41.631 124.950   6.058  1.00 38.23     0.164 C 
ENDROOT
BRANCH  13  14
ATOM     14  CB  TYR A 338     -41.621 126.456   6.339  1.00 39.15     0.058 C 
BRANCH  14  15
ATOM     15  CG  TYR A 338     -40.425 127.214   5.811  1.00 39.03    -0.020 A 
ATOM     16  CD2 TYR A 338     -40.268 128.560   6.093  1.00 40.65    -0.002 A 
ATOM     17  CE2 TYR A 338     -39.192 129.290   5.613  1.00 40.91     0.024 A 
ATOM     18  CZ  TYR A 338     -38.239 128.671   4.826  1.00 42.33     0.089 A 
ATOM     19  CE1 TYR A 338     -38.371 127.325   4.534  1.00 40.63     0.024 A 
ATOM     20  CD1 TYR A 338     -39.462 126.615   5.013  1.00 39.27    -0.002 A 
BRANCH  18  21
ATOM     21  OH  TYR A 338     -37.171 129.379   4.350  1.00 43.36    -0.359 OA
ATOM     22  HH  TYR A 338     -37.041 129.482   3.415  1.00  0.00     0.217 HD
ENDBRANCH  18  21
ENDBRANCH  14  15
ENDBRANCH  13  14
END_RES TYR A 338
ENDMDL
