MODEL 1
REMARK VINA RESULT:    -8.684      0.000      0.000
REMARK INTER + INTRA:          -9.118
REMARK INTER:                  -8.684
REMARK INTRA:                  -0.434
REMARK UNBOUND:                -0.434
REMARK  0 active torsions:
REMARK  status: ('A' for Active; 'I' for Inactive)
REMARK       I    between atoms: C3_3  and  O3_21 
REMARK       I    between atoms: C6_6  and  C7_7 
REMARK       I    between atoms: C8_8  and  C9_9 
REMARK       I    between atoms: C10_10  and  C11_11 
REMARK       I    between atoms: C12_12  and  C13_13 
REMARK       I    between atoms: C14_14  and  C15_15 
REMARK       I    between atoms: C23_25  and  O23_43 
REMARK       I    between atoms: C26_28  and  C27_29 
REMARK       I    between atoms: C28_30  and  C29_31 
REMARK       I    between atoms: C30_32  and  C31_33 
REMARK       I    between atoms: C32_34  and  C33_35 
REMARK       I    between atoms: C34_36  and  C35_37 
ROOT
HETATM    1  C1  STQ 2 616     -49.989 145.644  13.740  1.00 78.53    -0.022 C 
HETATM    2  C2  STQ 2 616     -50.833 146.117  14.928  1.00 78.53     0.045 C 
HETATM    3  C3  STQ 2 616     -50.169 147.015  15.973  1.00 78.53     0.119 C 
HETATM    4  C4  STQ 2 616     -49.067 147.868  15.365  1.00 78.53     0.040 C 
HETATM    5  C5  STQ 2 616     -48.101 146.919  14.720  1.00 78.53     0.013 C 
HETATM    6  C6  STQ 2 616     -48.544 146.108  13.763  1.00 78.53    -0.068 C 
HETATM    7  C7  STQ 2 616     -47.637 145.672  12.678  1.00 78.53     0.004 C 
HETATM    8  C8  STQ 2 616     -46.701 144.738  12.858  1.00 78.53     0.007 C 
HETATM    9  C9  STQ 2 616     -45.837 144.342  11.733  1.00 78.53    -0.062 C 
HETATM   10  C10 STQ 2 616     -45.026 143.282  11.877  1.00 78.53     0.007 C 
HETATM   11  C11 STQ 2 616     -44.129 142.780  10.837  1.00 78.53     0.001 C 
HETATM   12  C12 STQ 2 616     -43.353 141.746  11.164  1.00 78.53     0.007 C 
HETATM   13  C13 STQ 2 616     -42.405 141.093  10.238  1.00 78.53    -0.062 C 
HETATM   14  C14 STQ 2 616     -41.858 139.929  10.620  1.00 78.53     0.007 C 
HETATM   15  C15 STQ 2 616     -40.938 139.172   9.776  1.00 78.53     0.001 C 
HETATM   16  C16 STQ 2 616     -50.673 146.131  12.467  1.00 78.53     0.019 C 
HETATM   17  C17 STQ 2 616     -49.962 144.120  13.736  1.00 78.53     0.019 C 
HETATM   18  C18 STQ 2 616     -46.992 147.901  14.475  1.00 78.53     0.015 C 
HETATM   19  C19 STQ 2 616     -45.883 145.142  10.469  1.00 78.53     0.048 C 
HETATM   20  C20 STQ 2 616     -42.060 141.698   8.910  1.00 78.53     0.048 C 
HETATM   21  O3  STQ 2 616     -51.158 147.875  16.553  1.00 78.53    -0.396 OA
ATOM     22  H3  STQ 2 616     -50.745 148.432  17.202  1.00  0.00     0.210 HD
HETATM   23  C21 STQ 2 616     -34.216 128.342   7.075  1.00 78.53    -0.035 C 
HETATM   24  C22 STQ 2 616     -33.417 127.532   6.058  1.00 78.53     0.045 C 
HETATM   25  C23 STQ 2 616     -31.915 127.803   6.081  1.00 78.53     0.142 C 
HETATM   26  C24 STQ 2 616     -31.632 129.283   6.177  1.00 78.53     0.007 C 
HETATM   27  C25 STQ 2 616     -32.438 130.111   6.859  1.00 78.53    -0.077 C 
HETATM   28  C26 STQ 2 616     -33.919 129.843   6.957  1.00 78.53     0.044 C 
HETATM   29  C27 STQ 2 616     -34.558 130.580   8.119  1.00 78.53    -0.016 C 
HETATM   30  C28 STQ 2 616     -35.417 131.567   7.874  1.00 78.53     0.003 C 
HETATM   31  C29 STQ 2 616     -36.091 132.311   8.956  1.00 78.53    -0.062 C 
HETATM   32  C30 STQ 2 616     -37.034 133.192   8.603  1.00 78.53     0.007 C 
HETATM   33  C31 STQ 2 616     -37.815 133.987   9.541  1.00 78.53     0.001 C 
HETATM   34  C32 STQ 2 616     -38.445 135.047   9.049  1.00 78.53     0.007 C 
HETATM   35  C33 STQ 2 616     -39.297 135.913   9.882  1.00 78.53    -0.062 C 
HETATM   36  C34 STQ 2 616     -39.689 137.108   9.409  1.00 78.53     0.007 C 
HETATM   37  C35 STQ 2 616     -40.570 137.965  10.196  1.00 78.53     0.001 C 
HETATM   38  C36 STQ 2 616     -33.941 127.824   8.487  1.00 78.53     0.016 C 
HETATM   39  C37 STQ 2 616     -35.693 128.117   6.779  1.00 78.53     0.016 C 
HETATM   40  C38 STQ 2 616     -31.836 131.315   7.522  1.00 78.53     0.044 C 
HETATM   41  C39 STQ 2 616     -35.738 132.083  10.396  1.00 78.53     0.048 C 
HETATM   42  C40 STQ 2 616     -39.739 135.432  11.229  1.00 78.53     0.048 C 
HETATM   43  O23 STQ 2 616     -31.333 127.295   4.875  1.00 78.53    -0.392 OA
ATOM     44  H23 STQ 2 616     -30.398 127.463   4.889  1.00  0.00     0.210 HD
ENDROOT
TORSDOF 12
BEGIN_RES PHE A  61
REMARK  2 active torsions:
REMARK  status: ('A' for Active; 'I' for Inactive)
REMARK    1  A    between atoms: CA   and  CB  
REMARK    2  A    between atoms: CB   and  CG  
ROOT
ATOM      1  CA  PHE A  61     -36.237 128.293  12.768  1.00 39.40     0.164 C 
ENDROOT
BRANCH   1   2
ATOM      2  CB  PHE A  61     -36.813 128.951  11.509  1.00 39.41     0.058 C 
BRANCH   2   3
ATOM      3  CG  PHE A  61     -37.029 128.004  10.353  1.00 39.01    -0.020 A 
ATOM      4  CD2 PHE A  61     -36.277 126.845  10.232  1.00 40.32    -0.004 A 
ATOM      5  CE2 PHE A  61     -36.475 125.977   9.166  1.00 40.20    -0.000 A 
ATOM      6  CZ  PHE A  61     -37.427 126.254   8.212  1.00 40.34    -0.000 A 
ATOM      7  CE1 PHE A  61     -38.183 127.400   8.319  1.00 41.51    -0.000 A 
ATOM      8  CD1 PHE A  61     -37.982 128.272   9.381  1.00 39.94    -0.004 A 
ENDBRANCH   2   3
ENDBRANCH   1   2
END_RES PHE A  61
BEGIN_RES VAL A 134
REMARK  1 active torsions:
REMARK  status: ('A' for Active; 'I' for Inactive)
REMARK    3  A    between atoms: CA   and  CB  
ROOT
ATOM      9  CA  VAL A 134     -29.766 132.051   9.815  1.00 40.75     0.159 C 
ENDROOT
BRANCH   9  10
ATOM     10  CB  VAL A 134     -30.864 132.765   9.009  1.00 40.76     0.029 C 
ATOM     11  CG1 VAL A 134     -32.112 132.963   9.857  1.00 41.76     0.002 C 
ATOM     12  CG2 VAL A 134     -30.376 134.092   8.448  1.00 40.56     0.002 C 
ENDBRANCH   9  10
END_RES VAL A 134
BEGIN_RES TYR A 338
REMARK  3 active torsions:
REMARK  status: ('A' for Active; 'I' for Inactive)
REMARK    4  A    between atoms: CA   and  CB  
REMARK    5  A    between atoms: CB   and  CG  
REMARK    6  A    between atoms: CZ   and  OH  
ROOT
ATOM     13  CA  TYR A 338     -41.631 124.950   6.058  1.00 38.23     0.164 C 
ENDROOT
BRANCH  13  14
ATOM     14  CB  TYR A 338     -41.621 126.456   6.339  1.00 39.15     0.058 C 
BRANCH  14  15
ATOM     15  CG  TYR A 338     -40.415 127.211   5.829  1.00 39.03    -0.020 A 
ATOM     16  CD2 TYR A 338     -40.260 128.557   6.110  1.00 40.65    -0.002 A 
ATOM     17  CE2 TYR A 338     -39.175 129.284   5.645  1.00 40.91     0.024 A 
ATOM     18  CZ  TYR A 338     -38.211 128.661   4.875  1.00 42.33     0.089 A 
ATOM     19  CE1 TYR A 338     -38.341 127.315   4.585  1.00 40.63     0.024 A 
ATOM     20  CD1 TYR A 338     -39.440 126.608   5.048  1.00 39.27    -0.002 A 
BRANCH  18  21
ATOM     21  OH  TYR A 338     -37.135 129.367   4.415  1.00 43.36    -0.359 OA
ATOM     22  HH  TYR A 338     -37.136 129.727   3.536  1.00  0.00     0.217 HD
ENDBRANCH  18  21
ENDBRANCH  14  15
ENDBRANCH  13  14
END_RES TYR A 338
ENDMDL
MODEL 2
REMARK VINA RESULT:    -8.630      2.338     17.099
REMARK INTER + INTRA:          -9.064
REMARK INTER:                  -8.490
REMARK INTRA:                  -0.574
REMARK UNBOUND:                -0.434
REMARK  0 active torsions:
REMARK  status: ('A' for Active; 'I' for Inactive)
REMARK       I    between atoms: C3_3  and  O3_21 
REMARK       I    between atoms: C6_6  and  C7_7 
REMARK       I    between atoms: C8_8  and  C9_9 
REMARK       I    between atoms: C10_10  and  C11_11 
REMARK       I    between atoms: C12_12  and  C13_13 
REMARK       I    between atoms: C14_14  and  C15_15 
REMARK       I    between atoms: C23_25  and  O23_43 
REMARK       I    between atoms: C26_28  and  C27_29 
REMARK       I    between atoms: C28_30  and  C29_31 
REMARK       I    between atoms: C30_32  and  C31_33 
REMARK       I    between atoms: C32_34  and  C33_35 
REMARK       I    between atoms: C34_36  and  C35_37 
ROOT
HETATM    1  C1  STQ 2 616     -34.044 128.341   6.953  1.00 78.53    -0.022 C 
HETATM    2  C2  STQ 2 616     -33.058 127.687   5.979  1.00 78.53     0.045 C 
HETATM    3  C3  STQ 2 616     -31.677 128.325   5.814  1.00 78.53     0.119 C 
HETATM    4  C4  STQ 2 616     -31.225 129.026   7.085  1.00 78.53     0.040 C 
HETATM    5  C5  STQ 2 616     -32.289 130.030   7.420  1.00 78.53     0.013 C 
HETATM    6  C6  STQ 2 616     -33.530 129.599   7.629  1.00 78.53    -0.068 C 
HETATM    7  C7  STQ 2 616     -34.423 130.325   8.560  1.00 78.53     0.004 C 
HETATM    8  C8  STQ 2 616     -35.014 131.477   8.233  1.00 78.53     0.007 C 
HETATM    9  C9  STQ 2 616     -35.900 132.144   9.203  1.00 78.53    -0.062 C 
HETATM   10  C10 STQ 2 616     -36.626 133.199   8.801  1.00 78.53     0.007 C 
HETATM   11  C11 STQ 2 616     -37.549 133.942   9.659  1.00 78.53     0.001 C 
HETATM   12  C12 STQ 2 616     -38.154 134.997   9.113  1.00 78.53     0.007 C 
HETATM   13  C13 STQ 2 616     -39.133 135.850   9.818  1.00 78.53    -0.062 C 
HETATM   14  C14 STQ 2 616     -39.833 136.733   9.091  1.00 78.53     0.007 C 
HETATM   15  C15 STQ 2 616     -40.854 137.602   9.668  1.00 78.53     0.001 C 
HETATM   16  C16 STQ 2 616     -34.413 127.298   8.003  1.00 78.53     0.019 C 
HETATM   17  C17 STQ 2 616     -35.300 128.736   6.185  1.00 78.53     0.019 C 
HETATM   18  C18 STQ 2 616     -31.526 130.786   8.469  1.00 78.53     0.015 C 
HETATM   19  C19 STQ 2 616     -35.953 131.629  10.607  1.00 78.53     0.048 C 
HETATM   20  C20 STQ 2 616     -39.351 135.739  11.298  1.00 78.53     0.048 C 
HETATM   21  O3  STQ 2 616     -30.726 127.308   5.479  1.00 78.53    -0.396 OA
ATOM     22  H3  STQ 2 616     -29.868 127.705   5.376  1.00  0.00     0.210 HD
HETATM   23  C21 STQ 2 616     -50.739 145.997   8.408  1.00 78.53    -0.035 C 
HETATM   24  C22 STQ 2 616     -51.910 146.727   9.057  1.00 78.53     0.045 C 
HETATM   25  C23 STQ 2 616     -51.551 148.086   9.652  1.00 78.53     0.142 C 
HETATM   26  C24 STQ 2 616     -50.254 148.015  10.423  1.00 78.53     0.007 C 
HETATM   27  C25 STQ 2 616     -49.255 147.200  10.047  1.00 78.53    -0.077 C 
HETATM   28  C26 STQ 2 616     -49.544 145.887   9.364  1.00 78.53     0.044 C 
HETATM   29  C27 STQ 2 616     -48.337 145.358   8.611  1.00 78.53    -0.016 C 
HETATM   30  C28 STQ 2 616     -47.732 144.252   9.040  1.00 78.53     0.003 C 
HETATM   31  C29 STQ 2 616     -46.568 143.671   8.344  1.00 78.53    -0.062 C 
HETATM   32  C30 STQ 2 616     -46.118 142.489   8.778  1.00 78.53     0.007 C 
HETATM   33  C31 STQ 2 616     -45.001 141.762   8.189  1.00 78.53     0.001 C 
HETATM   34  C32 STQ 2 616     -44.455 140.802   8.925  1.00 78.53     0.007 C 
HETATM   35  C33 STQ 2 616     -43.345 139.968   8.434  1.00 78.53    -0.062 C 
HETATM   36  C34 STQ 2 616     -42.658 139.204   9.299  1.00 78.53     0.007 C 
HETATM   37  C35 STQ 2 616     -41.583 138.335   8.831  1.00 78.53     0.001 C 
HETATM   38  C36 STQ 2 616     -50.351 146.691   7.101  1.00 78.53     0.016 C 
HETATM   39  C37 STQ 2 616     -51.211 144.591   8.061  1.00 78.53     0.016 C 
HETATM   40  C38 STQ 2 616     -47.843 147.622  10.324  1.00 78.53     0.044 C 
HETATM   41  C39 STQ 2 616     -45.920 144.375   7.188  1.00 78.53     0.048 C 
HETATM   42  C40 STQ 2 616     -43.023 139.962   6.972  1.00 78.53     0.048 C 
HETATM   43  O23 STQ 2 616     -52.598 148.497  10.540  1.00 78.53    -0.392 OA
ATOM     44  H23 STQ 2 616     -52.374 149.342  10.910  1.00  0.00     0.210 HD
ENDROOT
TORSDOF 12
BEGIN_RES PHE A  61
REMARK  2 active torsions:
REMARK  status: ('A' for Active; 'I' for Inactive)
REMARK    1  A    between atoms: CA   and  CB  
REMARK    2  A    between atoms: CB   and  CG  
ROOT
ATOM      1  CA  PHE A  61     -36.237 128.293  12.768  1.00 39.40     0.164 C 
ENDROOT
BRANCH   1   2
ATOM      2  CB  PHE A  61     -36.813 128.951  11.509  1.00 39.41     0.058 C 
BRANCH   2   3
ATOM      3  CG  PHE A  61     -36.995 128.011  10.341  1.00 39.01    -0.020 A 
ATOM      4  CD2 PHE A  61     -36.280 126.826  10.263  1.00 40.32    -0.004 A 
ATOM      5  CE2 PHE A  61     -36.447 125.964   9.186  1.00 40.20    -0.000 A 
ATOM      6  CZ  PHE A  61     -37.332 126.274   8.180  1.00 40.34    -0.000 A 
ATOM      7  CE1 PHE A  61     -38.052 127.446   8.244  1.00 41.51    -0.000 A 
ATOM      8  CD1 PHE A  61     -37.881 128.312   9.316  1.00 39.94    -0.004 A 
ENDBRANCH   2   3
ENDBRANCH   1   2
END_RES PHE A  61
BEGIN_RES VAL A 134
REMARK  1 active torsions:
REMARK  status: ('A' for Active; 'I' for Inactive)
REMARK    3  A    between atoms: CA   and  CB  
ROOT
ATOM      9  CA  VAL A 134     -29.766 132.051   9.815  1.00 40.75     0.159 C 
ENDROOT
BRANCH   9  10
ATOM     10  CB  VAL A 134     -30.864 132.765   9.009  1.00 40.76     0.029 C 
ATOM     11  CG1 VAL A 134     -32.090 133.016   9.875  1.00 41.76     0.002 C 
ATOM     12  CG2 VAL A 134     -30.358 134.063   8.399  1.00 40.56     0.002 C 
ENDBRANCH   9  10
END_RES VAL A 134
BEGIN_RES TYR A 338
REMARK  3 active torsions:
REMARK  status: ('A' for Active; 'I' for Inactive)
REMARK    4  A    between atoms: CA   and  CB  
REMARK    5  A    between atoms: CB   and  CG  
REMARK    6  A    between atoms: CZ   and  OH  
ROOT
ATOM     13  CA  TYR A 338     -41.631 124.950   6.058  1.00 38.23     0.164 C 
ENDROOT
BRANCH  13  14
ATOM     14  CB  TYR A 338     -41.621 126.456   6.339  1.00 39.15     0.058 C 
BRANCH  14  15
ATOM     15  CG  TYR A 338     -40.415 127.211   5.829  1.00 39.03    -0.020 A 
ATOM     16  CD2 TYR A 338     -40.264 128.559   6.104  1.00 40.65    -0.002 A 
ATOM     17  CE2 TYR A 338     -39.179 129.286   5.639  1.00 40.91     0.024 A 
ATOM     18  CZ  TYR A 338     -38.211 128.661   4.875  1.00 42.33     0.089 A 
ATOM     19  CE1 TYR A 338     -38.337 127.313   4.591  1.00 40.63     0.024 A 
ATOM     20  CD1 TYR A 338     -39.436 126.607   5.055  1.00 39.27    -0.002 A 
BRANCH  18  21
ATOM     21  OH  TYR A 338     -37.134 129.367   4.415  1.00 43.36    -0.359 OA
ATOM     22  HH  TYR A 338     -36.368 129.485   4.964  1.00  0.00     0.217 HD
ENDBRANCH  18  21
ENDBRANCH  14  15
ENDBRANCH  13  14
END_RES TYR A 338
ENDMDL
MODEL 3
REMARK VINA RESULT:    -6.458      1.905      3.014
REMARK INTER + INTRA:          -6.892
REMARK INTER:                  -5.093
REMARK INTRA:                  -1.799
REMARK UNBOUND:                -0.434
REMARK  0 active torsions:
REMARK  status: ('A' for Active; 'I' for Inactive)
REMARK       I    between atoms: C3_3  and  O3_21 
REMARK       I    between atoms: C6_6  and  C7_7 
REMARK       I    between atoms: C8_8  and  C9_9 
REMARK       I    between atoms: C10_10  and  C11_11 
REMARK       I    between atoms: C12_12  and  C13_13 
REMARK       I    between atoms: C14_14  and  C15_15 
REMARK       I    between atoms: C23_25  and  O23_43 
REMARK       I    between atoms: C26_28  and  C27_29 
REMARK       I    between atoms: C28_30  and  C29_31 
REMARK       I    between atoms: C30_32  and  C31_33 
REMARK       I    between atoms: C32_34  and  C33_35 
REMARK       I    between atoms: C34_36  and  C35_37 
ROOT
HETATM    1  C1  STQ 2 616     -48.418 147.536   9.779  1.00 78.53    -0.022 C 
HETATM    2  C2  STQ 2 616     -49.861 147.986  10.029  1.00 78.53     0.045 C 
HETATM    3  C3  STQ 2 616     -50.394 147.939  11.462  1.00 78.53     0.119 C 
HETATM    4  C4  STQ 2 616     -49.286 148.148  12.482  1.00 78.53     0.040 C 
HETATM    5  C5  STQ 2 616     -48.254 147.091  12.213  1.00 78.53     0.013 C 
HETATM    6  C6  STQ 2 616     -47.682 147.049  11.013  1.00 78.53    -0.068 C 
HETATM    7  C7  STQ 2 616     -46.293 146.556  10.868  1.00 78.53     0.004 C 
HETATM    8  C8  STQ 2 616     -45.984 145.259  10.921  1.00 78.53     0.007 C 
HETATM    9  C9  STQ 2 616     -44.583 144.834  10.760  1.00 78.53    -0.062 C 
HETATM   10  C10 STQ 2 616     -44.311 143.526  10.634  1.00 78.53     0.007 C 
HETATM   11  C11 STQ 2 616     -42.967 142.974  10.458  1.00 78.53     0.001 C 
HETATM   12  C12 STQ 2 616     -42.869 141.646  10.401  1.00 78.53     0.007 C 
HETATM   13  C13 STQ 2 616     -41.600 140.914  10.203  1.00 78.53    -0.062 C 
HETATM   14  C14 STQ 2 616     -41.670 139.602   9.937  1.00 78.53     0.007 C 
HETATM   15  C15 STQ 2 616     -40.488 138.781   9.685  1.00 78.53     0.001 C 
HETATM   16  C16 STQ 2 616     -47.671 148.710   9.155  1.00 78.53     0.019 C 
HETATM   17  C17 STQ 2 616     -48.433 146.376   8.790  1.00 78.53     0.019 C 
HETATM   18  C18 STQ 2 616     -47.451 147.275  13.469  1.00 78.53     0.015 C 
HETATM   19  C19 STQ 2 616     -43.508 145.875  10.751  1.00 78.53     0.048 C 
HETATM   20  C20 STQ 2 616     -40.273 141.606  10.290  1.00 78.53     0.048 C 
HETATM   21  O3  STQ 2 616     -51.382 148.962  11.631  1.00 78.53    -0.396 OA
ATOM     22  H3  STQ 2 616     -51.713 148.933  12.522  1.00  0.00     0.210 HD
HETATM   23  C21 STQ 2 616     -34.935 127.674   5.743  1.00 78.53    -0.035 C 
HETATM   24  C22 STQ 2 616     -33.670 126.939   5.310  1.00 78.53     0.045 C 
HETATM   25  C23 STQ 2 616     -32.908 126.275   6.454  1.00 78.53     0.142 C 
HETATM   26  C24 STQ 2 616     -32.812 127.193   7.648  1.00 78.53     0.007 C 
HETATM   27  C25 STQ 2 616     -33.795 128.055   7.954  1.00 78.53    -0.077 C 
HETATM   28  C26 STQ 2 616     -34.649 128.670   6.874  1.00 78.53     0.044 C 
HETATM   29  C27 STQ 2 616     -35.958 129.210   7.419  1.00 78.53    -0.016 C 
HETATM   30  C28 STQ 2 616     -36.171 130.525   7.424  1.00 78.53     0.003 C 
HETATM   31  C29 STQ 2 616     -37.429 131.116   7.919  1.00 78.53    -0.062 C 
HETATM   32  C30 STQ 2 616     -37.595 132.434   7.758  1.00 78.53     0.007 C 
HETATM   33  C31 STQ 2 616     -38.785 133.172   8.161  1.00 78.53     0.001 C 
HETATM   34  C32 STQ 2 616     -38.667 134.491   8.262  1.00 78.53     0.007 C 
HETATM   35  C33 STQ 2 616     -39.801 135.357   8.624  1.00 78.53    -0.062 C 
HETATM   36  C34 STQ 2 616     -39.573 136.634   8.973  1.00 78.53     0.007 C 
HETATM   37  C35 STQ 2 616     -40.684 137.526   9.292  1.00 78.53     0.001 C 
HETATM   38  C36 STQ 2 616     -36.013 126.665   6.142  1.00 78.53     0.016 C 
HETATM   39  C37 STQ 2 616     -35.450 128.447   4.536  1.00 78.53     0.016 C 
HETATM   40  C38 STQ 2 616     -34.026 128.398   9.397  1.00 78.53     0.044 C 
HETATM   41  C39 STQ 2 616     -38.485 130.271   8.570  1.00 78.53     0.048 C 
HETATM   42  C40 STQ 2 616     -41.193 134.808   8.565  1.00 78.53     0.048 C 
HETATM   43  O23 STQ 2 616     -31.585 125.953   6.007  1.00 78.53    -0.392 OA
ATOM     44  H23 STQ 2 616     -31.111 125.540   6.718  1.00  0.00     0.210 HD
ENDROOT
TORSDOF 12
BEGIN_RES PHE A  61
REMARK  2 active torsions:
REMARK  status: ('A' for Active; 'I' for Inactive)
REMARK    1  A    between atoms: CA   and  CB  
REMARK    2  A    between atoms: CB   and  CG  
ROOT
ATOM      1  CA  PHE A  61     -36.237 128.293  12.768  1.00 39.40     0.164 C 
ENDROOT
BRANCH   1   2
ATOM      2  CB  PHE A  61     -36.813 128.951  11.509  1.00 39.41     0.058 C 
BRANCH   2   3
ATOM      3  CG  PHE A  61     -36.334 130.362  11.268  1.00 39.01    -0.020 A 
ATOM      4  CD2 PHE A  61     -37.161 131.447  11.513  1.00 40.32    -0.004 A 
ATOM      5  CE2 PHE A  61     -36.720 132.745  11.288  1.00 40.20    -0.000 A 
ATOM      6  CZ  PHE A  61     -35.446 132.973  10.818  1.00 40.34    -0.000 A 
ATOM      7  CE1 PHE A  61     -34.611 131.906  10.571  1.00 41.51    -0.000 A 
ATOM      8  CD1 PHE A  61     -35.054 130.608  10.790  1.00 39.94    -0.004 A 
ENDBRANCH   2   3
ENDBRANCH   1   2
END_RES PHE A  61
BEGIN_RES VAL A 134
REMARK  1 active torsions:
REMARK  status: ('A' for Active; 'I' for Inactive)
REMARK    3  A    between atoms: CA   and  CB  
ROOT
ATOM      9  CA  VAL A 134     -29.766 132.051   9.815  1.00 40.75     0.159 C 
ENDROOT
BRANCH   9  10
ATOM     10  CB  VAL A 134     -30.864 132.765   9.009  1.00 40.76     0.029 C 
ATOM     11  CG1 VAL A 134     -31.477 131.823   7.983  1.00 41.76     0.002 C 
ATOM     12  CG2 VAL A 134     -31.937 133.348   9.916  1.00 40.56     0.002 C 
ENDBRANCH   9  10
END_RES VAL A 134
BEGIN_RES TYR A 338
REMARK  3 active torsions:
REMARK  status: ('A' for Active; 'I' for Inactive)
REMARK    4  A    between atoms: CA   and  CB  
REMARK    5  A    between atoms: CB   and  CG  
REMARK    6  A    between atoms: CZ   and  OH  
ROOT
ATOM     13  CA  TYR A 338     -41.631 124.950   6.058  1.00 38.23     0.164 C 
ENDROOT
BRANCH  13  14
ATOM     14  CB  TYR A 338     -41.621 126.456   6.339  1.00 39.15     0.058 C 
BRANCH  14  15
ATOM     15  CG  TYR A 338     -40.456 127.224   5.759  1.00 39.03    -0.020 A 
ATOM     16  CD2 TYR A 338     -40.239 128.544   6.115  1.00 40.65    -0.002 A 
ATOM     17  CE2 TYR A 338     -39.190 129.283   5.591  1.00 40.91     0.024 A 
ATOM     18  CZ  TYR A 338     -38.327 128.700   4.683  1.00 42.33     0.089 A 
ATOM     19  CE1 TYR A 338     -38.519 127.380   4.314  1.00 40.63     0.024 A 
ATOM     20  CD1 TYR A 338     -39.582 126.662   4.840  1.00 39.27    -0.002 A 
BRANCH  18  21
ATOM     21  OH  TYR A 338     -37.286 129.418   4.162  1.00 43.36    -0.359 OA
ATOM     22  HH  TYR A 338     -37.020 129.293   3.259  1.00  0.00     0.217 HD
ENDBRANCH  18  21
ENDBRANCH  14  15
ENDBRANCH  13  14
END_RES TYR A 338
ENDMDL
MODEL 4
REMARK VINA RESULT:    -6.221      1.900     17.136
REMARK INTER + INTRA:          -6.655
REMARK INTER:                  -2.710
REMARK INTRA:                  -3.945
REMARK UNBOUND:                -0.434
REMARK  0 active torsions:
REMARK  status: ('A' for Active; 'I' for Inactive)
REMARK       I    between atoms: C3_3  and  O3_21 
REMARK       I    between atoms: C6_6  and  C7_7 
REMARK       I    between atoms: C8_8  and  C9_9 
REMARK       I    between atoms: C10_10  and  C11_11 
REMARK       I    between atoms: C12_12  and  C13_13 
REMARK       I    between atoms: C14_14  and  C15_15 
REMARK       I    between atoms: C23_25  and  O23_43 
REMARK       I    between atoms: C26_28  and  C27_29 
REMARK       I    between atoms: C28_30  and  C29_31 
REMARK       I    between atoms: C30_32  and  C31_33 
REMARK       I    between atoms: C32_34  and  C33_35 
REMARK       I    between atoms: C34_36  and  C35_37 
ROOT
HETATM    1  C1  STQ 2 616     -34.709 128.412   5.750  1.00 78.53    -0.022 C 
HETATM    2  C2  STQ 2 616     -33.631 127.869   4.806  1.00 78.53     0.045 C 
HETATM    3  C3  STQ 2 616     -32.168 128.174   5.129  1.00 78.53     0.119 C 
HETATM    4  C4  STQ 2 616     -31.941 128.325   6.625  1.00 78.53     0.040 C 
HETATM    5  C5  STQ 2 616     -32.874 129.404   7.091  1.00 78.53     0.013 C 
HETATM    6  C6  STQ 2 616     -34.181 129.242   6.906  1.00 78.53    -0.068 C 
HETATM    7  C7  STQ 2 616     -35.147 129.842   7.853  1.00 78.53     0.004 C 
HETATM    8  C8  STQ 2 616     -35.438 131.145   7.850  1.00 78.53     0.007 C 
HETATM    9  C9  STQ 2 616     -36.417 131.678   8.813  1.00 78.53    -0.062 C 
HETATM   10  C10 STQ 2 616     -36.833 132.947   8.682  1.00 78.53     0.007 C 
HETATM   11  C11 STQ 2 616     -37.806 133.593   9.563  1.00 78.53     0.001 C 
HETATM   12  C12 STQ 2 616     -38.070 134.878   9.322  1.00 78.53     0.007 C 
HETATM   13  C13 STQ 2 616     -39.040 135.684  10.091  1.00 78.53    -0.062 C 
HETATM   14  C14 STQ 2 616     -39.377 136.888   9.605  1.00 78.53     0.007 C 
HETATM   15  C15 STQ 2 616     -40.353 137.759  10.255  1.00 78.53     0.001 C 
HETATM   16  C16 STQ 2 616     -35.498 127.220   6.281  1.00 78.53     0.019 C 
HETATM   17  C17 STQ 2 616     -35.647 129.312   4.954  1.00 78.53     0.019 C 
HETATM   18  C18 STQ 2 616     -32.286 129.597   8.459  1.00 78.53     0.015 C 
HETATM   19  C19 STQ 2 616     -36.907 130.788   9.912  1.00 78.53     0.048 C 
HETATM   20  C20 STQ 2 616     -39.640 135.184  11.371  1.00 78.53     0.048 C 
HETATM   21  O3  STQ 2 616     -31.344 127.110   4.638  1.00 78.53    -0.396 OA
ATOM     22  H3  STQ 2 616     -30.435 127.300   4.838  1.00  0.00     0.210 HD
HETATM   23  C21 STQ 2 616     -48.067 148.259  10.244  1.00 78.53    -0.035 C 
HETATM   24  C22 STQ 2 616     -49.227 149.016  10.884  1.00 78.53     0.045 C 
HETATM   25  C23 STQ 2 616     -48.810 150.000  11.973  1.00 78.53     0.142 C 
HETATM   26  C24 STQ 2 616     -47.780 149.388  12.892  1.00 78.53     0.007 C 
HETATM   27  C25 STQ 2 616     -46.868 148.511  12.443  1.00 78.53    -0.077 C 
HETATM   28  C26 STQ 2 616     -47.188 147.579  11.302  1.00 78.53     0.044 C 
HETATM   29  C27 STQ 2 616     -45.935 147.030  10.644  1.00 78.53    -0.016 C 
HETATM   30  C28 STQ 2 616     -45.650 145.735  10.761  1.00 78.53     0.003 C 
HETATM   31  C29 STQ 2 616     -44.461 145.131  10.129  1.00 78.53    -0.062 C 
HETATM   32  C30 STQ 2 616     -44.337 143.801  10.195  1.00 78.53     0.007 C 
HETATM   33  C31 STQ 2 616     -43.244 143.042   9.602  1.00 78.53     0.001 C 
HETATM   34  C32 STQ 2 616     -43.068 141.801  10.040  1.00 78.53     0.007 C 
HETATM   35  C33 STQ 2 616     -42.024 140.915   9.499  1.00 78.53    -0.062 C 
HETATM   36  C34 STQ 2 616     -41.714 139.782  10.150  1.00 78.53     0.007 C 
HETATM   37  C35 STQ 2 616     -40.714 138.865   9.610  1.00 78.53     0.001 C 
HETATM   38  C36 STQ 2 616     -47.253 149.203   9.359  1.00 78.53     0.016 C 
HETATM   39  C37 STQ 2 616     -48.663 147.183   9.347  1.00 78.53     0.016 C 
HETATM   40  C38 STQ 2 616     -45.521 148.476  13.103  1.00 78.53     0.044 C 
HETATM   41  C39 STQ 2 616     -43.434 145.976   9.433  1.00 78.53     0.048 C 
HETATM   42  C40 STQ 2 616     -41.349 141.277   8.212  1.00 78.53     0.048 C 
HETATM   43  O23 STQ 2 616     -49.964 150.360  12.742  1.00 78.53    -0.392 OA
ATOM     44  H23 STQ 2 616     -49.704 150.973  13.420  1.00  0.00     0.210 HD
ENDROOT
TORSDOF 12
BEGIN_RES PHE A  61
REMARK  2 active torsions:
REMARK  status: ('A' for Active; 'I' for Inactive)
REMARK    1  A    between atoms: CA   and  CB  
REMARK    2  A    between atoms: CB   and  CG  
ROOT
ATOM      1  CA  PHE A  61     -36.237 128.293  12.768  1.00 39.40     0.164 C 
ENDROOT
BRANCH   1   2
ATOM      2  CB  PHE A  61     -36.813 128.951  11.509  1.00 39.41     0.058 C 
BRANCH   2   3
ATOM      3  CG  PHE A  61     -36.891 128.039  10.308  1.00 39.01    -0.020 A 
ATOM      4  CD2 PHE A  61     -35.895 127.109  10.054  1.00 40.32    -0.004 A 
ATOM      5  CE2 PHE A  61     -35.967 126.273   8.948  1.00 40.20    -0.000 A 
ATOM      6  CZ  PHE A  61     -37.036 126.353   8.085  1.00 40.34    -0.000 A 
ATOM      7  CE1 PHE A  61     -38.035 127.270   8.324  1.00 41.51    -0.000 A 
ATOM      8  CD1 PHE A  61     -37.961 128.111   9.427  1.00 39.94    -0.004 A 
ENDBRANCH   2   3
ENDBRANCH   1   2
END_RES PHE A  61
BEGIN_RES VAL A 134
REMARK  1 active torsions:
REMARK  status: ('A' for Active; 'I' for Inactive)
REMARK    3  A    between atoms: CA   and  CB  
ROOT
ATOM      9  CA  VAL A 134     -29.766 132.051   9.815  1.00 40.75     0.159 C 
ENDROOT
BRANCH   9  10
ATOM     10  CB  VAL A 134     -30.864 132.765   9.009  1.00 40.76     0.029 C 
ATOM     11  CG1 VAL A 134     -30.886 132.267   7.571  1.00 41.76     0.002 C 
ATOM     12  CG2 VAL A 134     -32.230 132.605   9.657  1.00 40.56     0.002 C 
ENDBRANCH   9  10
END_RES VAL A 134
BEGIN_RES TYR A 338
REMARK  3 active torsions:
REMARK  status: ('A' for Active; 'I' for Inactive)
REMARK    4  A    between atoms: CA   and  CB  
REMARK    5  A    between atoms: CB   and  CG  
REMARK    6  A    between atoms: CZ   and  OH  
ROOT
ATOM     13  CA  TYR A 338     -41.631 124.950   6.058  1.00 38.23     0.164 C 
ENDROOT
BRANCH  13  14
ATOM     14  CB  TYR A 338     -41.621 126.456   6.339  1.00 39.15     0.058 C 
BRANCH  14  15
ATOM     15  CG  TYR A 338     -40.451 127.222   5.767  1.00 39.03    -0.020 A 
ATOM     16  CD2 TYR A 338     -40.271 128.560   6.075  1.00 40.65    -0.002 A 
ATOM     17  CE2 TYR A 338     -39.218 129.298   5.556  1.00 40.91     0.024 A 
ATOM     18  CZ  TYR A 338     -38.313 128.695   4.703  1.00 42.33     0.089 A 
ATOM     19  CE1 TYR A 338     -38.469 127.358   4.383  1.00 40.63     0.024 A 
ATOM     20  CD1 TYR A 338     -39.536 126.641   4.903  1.00 39.27    -0.002 A 
BRANCH  18  21
ATOM     21  OH  TYR A 338     -37.269 129.411   4.189  1.00 43.36    -0.359 OA
ATOM     22  HH  TYR A 338     -36.410 129.367   4.593  1.00  0.00     0.217 HD
ENDBRANCH  18  21
ENDBRANCH  14  15
ENDBRANCH  13  14
END_RES TYR A 338
ENDMDL
MODEL 5
REMARK VINA RESULT:    -6.110      1.536      2.011
REMARK INTER + INTRA:          -6.544
REMARK INTER:                  -2.065
REMARK INTRA:                  -4.479
REMARK UNBOUND:                -0.434
REMARK  0 active torsions:
REMARK  status: ('A' for Active; 'I' for Inactive)
REMARK       I    between atoms: C3_3  and  O3_21 
REMARK       I    between atoms: C6_6  and  C7_7 
REMARK       I    between atoms: C8_8  and  C9_9 
REMARK       I    between atoms: C10_10  and  C11_11 
REMARK       I    between atoms: C12_12  and  C13_13 
REMARK       I    between atoms: C14_14  and  C15_15 
REMARK       I    between atoms: C23_25  and  O23_43 
REMARK       I    between atoms: C26_28  and  C27_29 
REMARK       I    between atoms: C28_30  and  C29_31 
REMARK       I    between atoms: C30_32  and  C31_33 
REMARK       I    between atoms: C32_34  and  C33_35 
REMARK       I    between atoms: C34_36  and  C35_37 
ROOT
HETATM    1  C1  STQ 2 616     -49.649 147.250  10.212  1.00 78.53    -0.022 C 
HETATM    2  C2  STQ 2 616     -51.107 147.576  10.550  1.00 78.53     0.045 C 
HETATM    3  C3  STQ 2 616     -51.533 147.539  12.018  1.00 78.53     0.119 C 
HETATM    4  C4  STQ 2 616     -50.383 147.890  12.948  1.00 78.53     0.040 C 
HETATM    5  C5  STQ 2 616     -49.277 146.923  12.642  1.00 78.53     0.013 C 
HETATM    6  C6  STQ 2 616     -48.787 146.884  11.406  1.00 78.53    -0.068 C 
HETATM    7  C7  STQ 2 616     -47.371 146.516  11.178  1.00 78.53     0.004 C 
HETATM    8  C8  STQ 2 616     -46.938 145.256  11.253  1.00 78.53     0.007 C 
HETATM    9  C9  STQ 2 616     -45.517 144.956  11.005  1.00 78.53    -0.062 C 
HETATM   10  C10 STQ 2 616     -45.131 143.674  10.906  1.00 78.53     0.007 C 
HETATM   11  C11 STQ 2 616     -43.757 143.242  10.652  1.00 78.53     0.001 C 
HETATM   12  C12 STQ 2 616     -43.537 141.927  10.634  1.00 78.53     0.007 C 
HETATM   13  C13 STQ 2 616     -42.222 141.308  10.370  1.00 78.53    -0.062 C 
HETATM   14  C14 STQ 2 616     -42.184 139.985  10.155  1.00 78.53     0.007 C 
HETATM   15  C15 STQ 2 616     -40.951 139.267   9.847  1.00 78.53     0.001 C 
HETATM   16  C16 STQ 2 616     -49.061 148.461   9.496  1.00 78.53     0.019 C 
HETATM   17  C17 STQ 2 616     -49.622 146.055   9.267  1.00 78.53     0.019 C 
HETATM   18  C18 STQ 2 616     -48.410 147.231  13.829  1.00 78.53     0.015 C 
HETATM   19  C19 STQ 2 616     -44.549 146.090  10.884  1.00 78.53     0.048 C 
HETATM   20  C20 STQ 2 616     -40.963 142.121  10.337  1.00 78.53     0.048 C 
HETATM   21  O3  STQ 2 616     -52.600 148.473  12.223  1.00 78.53    -0.396 OA
ATOM     22  H3  STQ 2 616     -52.865 148.450  13.136  1.00  0.00     0.210 HD
HETATM   23  C21 STQ 2 616     -34.655 128.565   5.898  1.00 78.53    -0.035 C 
HETATM   24  C22 STQ 2 616     -33.358 127.933   5.401  1.00 78.53     0.045 C 
HETATM   25  C23 STQ 2 616     -32.460 127.389   6.509  1.00 78.53     0.142 C 
HETATM   26  C24 STQ 2 616     -32.370 128.360   7.661  1.00 78.53     0.007 C 
HETATM   27  C25 STQ 2 616     -33.406 129.140   8.007  1.00 78.53    -0.077 C 
HETATM   28  C26 STQ 2 616     -34.387 129.629   6.971  1.00 78.53     0.044 C 
HETATM   29  C27 STQ 2 616     -35.701 130.068   7.590  1.00 78.53    -0.016 C 
HETATM   30  C28 STQ 2 616     -36.036 131.357   7.566  1.00 78.53     0.003 C 
HETATM   31  C29 STQ 2 616     -37.308 131.850   8.129  1.00 78.53    -0.062 C 
HETATM   32  C30 STQ 2 616     -37.609 133.139   7.936  1.00 78.53     0.007 C 
HETATM   33  C31 STQ 2 616     -38.833 133.780   8.398  1.00 78.53     0.001 C 
HETATM   34  C32 STQ 2 616     -38.833 135.107   8.444  1.00 78.53     0.007 C 
HETATM   35  C33 STQ 2 616     -40.016 135.880   8.857  1.00 78.53    -0.062 C 
HETATM   36  C34 STQ 2 616     -39.887 137.186   9.145  1.00 78.53     0.007 C 
HETATM   37  C35 STQ 2 616     -41.053 137.984   9.513  1.00 78.53     0.001 C 
HETATM   38  C36 STQ 2 616     -35.602 127.479   6.408  1.00 78.53     0.016 C 
HETATM   39  C37 STQ 2 616     -35.322 129.238   4.706  1.00 78.53     0.016 C 
HETATM   40  C38 STQ 2 616     -33.569 129.519   9.450  1.00 78.53     0.044 C 
HETATM   41  C39 STQ 2 616     -38.231 130.938   8.883  1.00 78.53     0.048 C 
HETATM   42  C40 STQ 2 616     -41.351 135.203   8.918  1.00 78.53     0.048 C 
HETATM   43  O23 STQ 2 616     -31.146 127.173   5.979  1.00 78.53    -0.392 OA
ATOM     44  H23 STQ 2 616     -30.587 126.834   6.668  1.00  0.00     0.210 HD
ENDROOT
TORSDOF 12
BEGIN_RES PHE A  61
REMARK  2 active torsions:
REMARK  status: ('A' for Active; 'I' for Inactive)
REMARK    1  A    between atoms: CA   and  CB  
REMARK    2  A    between atoms: CB   and  CG  
ROOT
ATOM      1  CA  PHE A  61     -36.237 128.293  12.768  1.00 39.40     0.164 C 
ENDROOT
BRANCH   1   2
ATOM      2  CB  PHE A  61     -36.813 128.951  11.509  1.00 39.41     0.058 C 
BRANCH   2   3
ATOM      3  CG  PHE A  61     -36.890 128.039  10.308  1.00 39.01    -0.020 A 
ATOM      4  CD2 PHE A  61     -35.863 127.154  10.019  1.00 40.32    -0.004 A 
ATOM      5  CE2 PHE A  61     -35.933 126.318   8.912  1.00 40.20    -0.000 A 
ATOM      6  CZ  PHE A  61     -37.031 126.355   8.084  1.00 40.34    -0.000 A 
ATOM      7  CE1 PHE A  61     -38.061 127.227   8.358  1.00 41.51    -0.000 A 
ATOM      8  CD1 PHE A  61     -37.988 128.068   9.461  1.00 39.94    -0.004 A 
ENDBRANCH   2   3
ENDBRANCH   1   2
END_RES PHE A  61
BEGIN_RES VAL A 134
REMARK  1 active torsions:
REMARK  status: ('A' for Active; 'I' for Inactive)
REMARK    3  A    between atoms: CA   and  CB  
ROOT
ATOM      9  CA  VAL A 134     -29.766 132.051   9.815  1.00 40.75     0.159 C 
ENDROOT
BRANCH   9  10
ATOM     10  CB  VAL A 134     -30.864 132.765   9.009  1.00 40.76     0.029 C 
ATOM     11  CG1 VAL A 134     -31.167 132.008   7.724  1.00 41.76     0.002 C 
ATOM     12  CG2 VAL A 134     -32.128 132.960   9.832  1.00 40.56     0.002 C 
ENDBRANCH   9  10
END_RES VAL A 134
BEGIN_RES TYR A 338
REMARK  3 active torsions:
REMARK  status: ('A' for Active; 'I' for Inactive)
REMARK    4  A    between atoms: CA   and  CB  
REMARK    5  A    between atoms: CB   and  CG  
REMARK    6  A    between atoms: CZ   and  OH  
ROOT
ATOM     13  CA  TYR A 338     -41.631 124.950   6.058  1.00 38.23     0.164 C 
ENDROOT
BRANCH  13  14
ATOM     14  CB  TYR A 338     -41.621 126.456   6.339  1.00 39.15     0.058 C 
BRANCH  14  15
ATOM     15  CG  TYR A 338     -40.441 127.219   5.783  1.00 39.03    -0.020 A 
ATOM     16  CD2 TYR A 338     -40.256 128.554   6.103  1.00 40.65    -0.002 A 
ATOM     17  CE2 TYR A 338     -39.194 129.288   5.598  1.00 40.91     0.024 A 
ATOM     18  CZ  TYR A 338     -38.285 128.687   4.748  1.00 42.33     0.089 A 
ATOM     19  CE1 TYR A 338     -38.447 127.353   4.417  1.00 40.63     0.024 A 
ATOM     20  CD1 TYR A 338     -39.523 126.639   4.922  1.00 39.27    -0.002 A 
BRANCH  18  21
ATOM     21  OH  TYR A 338     -37.232 129.400   4.248  1.00 43.36    -0.359 OA
ATOM     22  HH  TYR A 338     -37.384 130.178   3.724  1.00  0.00     0.217 HD
ENDBRANCH  18  21
ENDBRANCH  14  15
ENDBRANCH  13  14
END_RES TYR A 338
ENDMDL
