MODEL 1
REMARK VINA RESULT:   -10.972      0.000      0.000
REMARK INTER + INTRA:         -13.560
REMARK INTER:                 -10.972
REMARK INTRA:                  -2.588
REMARK UNBOUND:                -2.588
REMARK  0 active torsions:
REMARK  status: ('A' for Active; 'I' for Inactive)
REMARK       I    between atoms: C3_3  and  O3_21 
REMARK       I    between atoms: C6_6  and  C7_7 
REMARK       I    between atoms: C8_8  and  C9_9 
REMARK       I    between atoms: C10_10  and  C11_11 
REMARK       I    between atoms: C12_12  and  C13_13 
REMARK       I    between atoms: C14_14  and  C15_15 
REMARK       I    between atoms: C23_25  and  O23_43 
REMARK       I    between atoms: C26_28  and  C27_29 
REMARK       I    between atoms: C28_30  and  C29_31 
REMARK       I    between atoms: C30_32  and  C31_33 
REMARK       I    between atoms: C32_34  and  C33_35 
REMARK       I    between atoms: C34_36  and  C35_37 
ROOT
HETATM    1  C1  STQ U1620     -33.679 129.194   7.050  1.00 22.99    -0.018 C 
HETATM    2  C2  STQ U1620     -32.869 129.894   5.979  1.00 22.99     0.045 C 
HETATM    3  C3  STQ U1620     -32.114 131.098   6.473  1.00 22.99     0.123 C 
HETATM    4  C4  STQ U1620     -31.223 130.599   7.575  1.00 22.99     0.066 C 
HETATM    5  C5  STQ U1620     -32.056 130.065   8.693  1.00 22.99    -0.074 C 
HETATM    6  C6  STQ U1620     -33.284 129.626   8.446  1.00 22.99    -0.048 C 
HETATM    7  C7  STQ U1620     -34.361 129.912   9.386  1.00 22.99     0.009 C 
HETATM    8  C8  STQ U1620     -34.813 131.140   9.113  1.00 22.99     0.007 C 
HETATM    9  C9  STQ U1620     -35.911 131.790   9.851  1.00 22.99    -0.062 C 
HETATM   10  C10 STQ U1620     -36.299 133.009   9.438  1.00 22.99     0.007 C 
HETATM   11  C11 STQ U1620     -37.393 133.748  10.052  1.00 22.99     0.001 C 
HETATM   12  C12 STQ U1620     -37.765 134.924   9.560  1.00 22.99     0.007 C 
HETATM   13  C13 STQ U1620     -38.913 135.626  10.145  1.00 22.99    -0.062 C 
HETATM   14  C14 STQ U1620     -39.344 136.718   9.507  1.00 22.99     0.007 C 
HETATM   15  C15 STQ U1620     -40.510 137.506   9.880  1.00 22.99     0.001 C 
HETATM   16  C16 STQ U1620     -33.494 127.713   6.789  1.00 22.99     0.020 C 
HETATM   17  C17 STQ U1620     -35.143 129.549   6.854  1.00 22.99     0.020 C 
HETATM   18  C18 STQ U1620     -31.696 130.915   9.869  1.00 22.99     0.044 C 
HETATM   19  C19 STQ U1620     -36.555 131.083  11.005  1.00 22.99     0.048 C 
HETATM   20  C20 STQ U1620     -39.578 135.039  11.347  1.00 22.99     0.048 C 
HETATM   21  O3  STQ U1620     -31.288 131.588   5.426  1.00 22.99    -0.395 OA
ATOM     22  H3  STQ U1620     -30.811 132.348   5.738  1.00  0.00     0.210 HD
HETATM   23  C21 STQ U1620     -50.203 145.504   8.595  1.00 22.99    -0.035 C 
HETATM   24  C22 STQ U1620     -51.540 145.752   9.250  1.00 22.99     0.045 C 
HETATM   25  C23 STQ U1620     -51.692 147.195   9.690  1.00 22.99     0.142 C 
HETATM   26  C24 STQ U1620     -50.382 147.820  10.114  1.00 22.99     0.007 C 
HETATM   27  C25 STQ U1620     -49.204 147.170  10.111  1.00 22.99    -0.077 C 
HETATM   28  C26 STQ U1620     -49.081 145.768   9.592  1.00 22.99     0.044 C 
HETATM   29  C27 STQ U1620     -47.787 145.445   8.873  1.00 22.99    -0.016 C 
HETATM   30  C28 STQ U1620     -47.046 144.414   9.280  1.00 22.99     0.003 C 
HETATM   31  C29 STQ U1620     -45.809 143.989   8.592  1.00 22.99    -0.062 C 
HETATM   32  C30 STQ U1620     -45.236 142.867   9.061  1.00 22.99     0.007 C 
HETATM   33  C31 STQ U1620     -44.032 142.232   8.528  1.00 22.99     0.001 C 
HETATM   34  C32 STQ U1620     -43.588 141.121   9.115  1.00 22.99     0.007 C 
HETATM   35  C33 STQ U1620     -42.384 140.404   8.658  1.00 22.99    -0.062 C 
HETATM   36  C34 STQ U1620     -42.010 139.329   9.372  1.00 22.99     0.007 C 
HETATM   37  C35 STQ U1620     -40.840 138.510   9.077  1.00 22.99     0.001 C 
HETATM   38  C36 STQ U1620     -50.079 146.383   7.362  1.00 22.99     0.016 C 
HETATM   39  C37 STQ U1620     -50.180 144.059   8.123  1.00 22.99     0.016 C 
HETATM   40  C38 STQ U1620     -48.015 147.843  10.720  1.00 22.99     0.044 C 
HETATM   41  C39 STQ U1620     -45.301 144.763   7.410  1.00 22.99     0.048 C 
HETATM   42  C40 STQ U1620     -41.665 140.881   7.432  1.00 22.99     0.048 C 
HETATM   43  O23 STQ U1620     -52.600 147.227  10.796  1.00 22.99    -0.392 OA
ATOM     44  H23 STQ U1620     -52.695 148.131  11.072  1.00  0.00     0.210 HD
ENDROOT
TORSDOF 12
BEGIN_RES PHE A  61
REMARK  2 active torsions:
REMARK  status: ('A' for Active; 'I' for Inactive)
REMARK    1  A    between atoms: CA   and  CB  
REMARK    2  A    between atoms: CB   and  CG  
ROOT
ATOM      1  CA  PHE A  61     -36.237 128.293  12.768  1.00 39.40     0.164 C 
ENDROOT
BRANCH   1   2
ATOM      2  CB  PHE A  61     -36.813 128.951  11.509  1.00 39.41     0.058 C 
BRANCH   2   3
ATOM      3  CG  PHE A  61     -36.765 128.084  10.274  1.00 39.01    -0.020 A 
ATOM      4  CD2 PHE A  61     -35.709 127.213  10.057  1.00 40.32    -0.004 A 
ATOM      5  CE2 PHE A  61     -35.664 126.418   8.918  1.00 40.20    -0.000 A 
ATOM      6  CZ  PHE A  61     -36.676 126.481   7.987  1.00 40.34    -0.000 A 
ATOM      7  CE1 PHE A  61     -37.733 127.340   8.189  1.00 41.51    -0.000 A 
ATOM      8  CD1 PHE A  61     -37.775 128.140   9.324  1.00 39.94    -0.004 A 
ENDBRANCH   2   3
ENDBRANCH   1   2
END_RES PHE A  61
BEGIN_RES VAL A 134
REMARK  1 active torsions:
REMARK  status: ('A' for Active; 'I' for Inactive)
REMARK    3  A    between atoms: CA   and  CB  
ROOT
ATOM      9  CA  VAL A 134     -29.766 132.051   9.815  1.00 40.75     0.159 C 
ENDROOT
BRANCH   9  10
ATOM     10  CB  VAL A 134     -30.864 132.765   9.009  1.00 40.76     0.029 C 
ATOM     11  CG1 VAL A 134     -31.929 133.333   9.936  1.00 41.76     0.002 C 
ATOM     12  CG2 VAL A 134     -30.287 133.854   8.117  1.00 40.56     0.002 C 
ENDBRANCH   9  10
END_RES VAL A 134
BEGIN_RES TYR A 338
REMARK  3 active torsions:
REMARK  status: ('A' for Active; 'I' for Inactive)
REMARK    4  A    between atoms: CA   and  CB  
REMARK    5  A    between atoms: CB   and  CG  
REMARK    6  A    between atoms: CZ   and  OH  
ROOT
ATOM     13  CA  TYR A 338     -41.631 124.950   6.058  1.00 38.23     0.164 C 
ENDROOT
BRANCH  13  14
ATOM     14  CB  TYR A 338     -41.621 126.456   6.339  1.00 39.15     0.058 C 
BRANCH  14  15
ATOM     15  CG  TYR A 338     -40.403 127.207   5.851  1.00 39.03    -0.020 A 
ATOM     16  CD2 TYR A 338     -40.226 128.541   6.174  1.00 40.65    -0.002 A 
ATOM     17  CE2 TYR A 338     -39.130 129.264   5.731  1.00 40.91     0.024 A 
ATOM     18  CZ  TYR A 338     -38.177 128.650   4.940  1.00 42.33     0.089 A 
ATOM     19  CE1 TYR A 338     -38.329 127.316   4.607  1.00 40.63     0.024 A 
ATOM     20  CD1 TYR A 338     -39.440 126.613   5.050  1.00 39.27    -0.002 A 
BRANCH  18  21
ATOM     21  OH  TYR A 338     -37.090 129.352   4.500  1.00 43.36    -0.359 OA
ATOM     22  HH  TYR A 338     -36.274 129.328   4.986  1.00  0.00     0.217 HD
ENDBRANCH  18  21
ENDBRANCH  14  15
ENDBRANCH  13  14
END_RES TYR A 338
ENDMDL
