MODEL 1
REMARK VINA RESULT:   -12.221      0.000      0.000
REMARK INTER + INTRA:         -12.601
REMARK INTER:                 -12.221
REMARK INTRA:                  -0.380
REMARK UNBOUND:                -0.380
REMARK  0 active torsions:
REMARK  status: ('A' for Active; 'I' for Inactive)
REMARK       I    between atoms: C3_3  and  O3_21 
REMARK       I    between atoms: C6_6  and  C7_7 
REMARK       I    between atoms: C8_8  and  C9_9 
REMARK       I    between atoms: C10_10  and  C11_11 
REMARK       I    between atoms: C12_12  and  C13_13 
REMARK       I    between atoms: C14_14  and  C15_15 
REMARK       I    between atoms: C23_25  and  O23_43 
REMARK       I    between atoms: C26_28  and  C27_29 
REMARK       I    between atoms: C28_30  and  C29_31 
REMARK       I    between atoms: C30_32  and  C31_33 
REMARK       I    between atoms: C32_34  and  C33_35 
REMARK       I    between atoms: C34_36  and  C35_37 
ROOT
HETATM    1  C1  STQ 4 619     -50.120 144.609  12.950  1.00 29.53    -0.018 C 
HETATM    2  C2  STQ 4 619     -50.785 144.867  14.301  1.00 29.53     0.045 C 
HETATM    3  C3  STQ 4 619     -50.016 145.688  15.325  1.00 29.53     0.123 C 
HETATM    4  C4  STQ 4 619     -49.225 146.785  14.646  1.00 29.53     0.066 C 
HETATM    5  C5  STQ 4 619     -48.286 146.140  13.670  1.00 29.53    -0.074 C 
HETATM    6  C6  STQ 4 619     -48.746 145.235  12.797  1.00 29.53    -0.048 C 
HETATM    7  C7  STQ 4 619     -47.924 144.837  11.633  1.00 29.53     0.009 C 
HETATM    8  C8  STQ 4 619     -46.973 143.904  11.702  1.00 29.53     0.007 C 
HETATM    9  C9  STQ 4 619     -46.192 143.538  10.511  1.00 29.53    -0.062 C 
HETATM   10  C10 STQ 4 619     -45.116 142.754  10.676  1.00 29.53     0.007 C 
HETATM   11  C11 STQ 4 619     -44.232 142.269   9.619  1.00 29.53     0.001 C 
HETATM   12  C12 STQ 4 619     -43.277 141.439  10.018  1.00 29.53     0.007 C 
HETATM   13  C13 STQ 4 619     -42.275 140.783   9.164  1.00 29.53    -0.062 C 
HETATM   14  C14 STQ 4 619     -41.689 139.712   9.714  1.00 29.53     0.007 C 
HETATM   15  C15 STQ 4 619     -40.696 138.870   9.065  1.00 29.53     0.001 C 
HETATM   16  C16 STQ 4 619     -51.080 145.109  11.875  1.00 29.53     0.020 C 
HETATM   17  C17 STQ 4 619     -49.948 143.104  12.780  1.00 29.53     0.020 C 
HETATM   18  C18 STQ 4 619     -47.095 147.010  13.388  1.00 29.53     0.044 C 
HETATM   19  C19 STQ 4 619     -46.629 144.045   9.172  1.00 29.53     0.048 C 
HETATM   20  C20 STQ 4 619     -41.943 141.272   7.789  1.00 29.53     0.048 C 
HETATM   21  O3  STQ 4 619     -50.942 146.298  16.229  1.00 29.53    -0.395 OA
ATOM     22  H3  STQ 4 619     -50.462 146.811  16.868  1.00  0.00     0.210 HD
HETATM   23  C21 STQ 4 619     -34.157 128.151   6.977  1.00 29.53    -0.035 C 
HETATM   24  C22 STQ 4 619     -33.422 127.540   5.792  1.00 29.53     0.045 C 
HETATM   25  C23 STQ 4 619     -31.921 127.800   5.739  1.00 29.53     0.142 C 
HETATM   26  C24 STQ 4 619     -31.528 129.153   6.285  1.00 29.53     0.007 C 
HETATM   27  C25 STQ 4 619     -32.288 129.825   7.156  1.00 29.53    -0.077 C 
HETATM   28  C26 STQ 4 619     -33.777 129.624   7.171  1.00 29.53     0.044 C 
HETATM   29  C27 STQ 4 619     -34.434 130.169   8.422  1.00 29.53    -0.016 C 
HETATM   30  C28 STQ 4 619     -35.178 131.257   8.263  1.00 29.53     0.003 C 
HETATM   31  C29 STQ 4 619     -35.925 131.919   9.342  1.00 29.53    -0.062 C 
HETATM   32  C30 STQ 4 619     -36.720 132.918   8.953  1.00 29.53     0.007 C 
HETATM   33  C31 STQ 4 619     -37.591 133.710   9.812  1.00 29.53     0.001 C 
HETATM   34  C32 STQ 4 619     -38.125 134.762   9.205  1.00 29.53     0.007 C 
HETATM   35  C33 STQ 4 619     -39.059 135.706   9.829  1.00 29.53    -0.062 C 
HETATM   36  C34 STQ 4 619     -39.408 136.807   9.146  1.00 29.53     0.007 C 
HETATM   37  C35 STQ 4 619     -40.362 137.755   9.707  1.00 29.53     0.001 C 
HETATM   38  C36 STQ 4 619     -33.900 127.328   8.235  1.00 29.53     0.016 C 
HETATM   39  C37 STQ 4 619     -35.647 128.061   6.669  1.00 29.53     0.016 C 
HETATM   40  C38 STQ 4 619     -31.622 130.787   8.094  1.00 29.53     0.044 C 
HETATM   41  C39 STQ 4 619     -35.819 131.486  10.774  1.00 29.53     0.048 C 
HETATM   42  C40 STQ 4 619     -39.620 135.415  11.186  1.00 29.53     0.048 C 
HETATM   43  O23 STQ 4 619     -31.526 127.754   4.367  1.00 29.53    -0.392 OA
ATOM     44  H23 STQ 4 619     -30.591 127.916   4.334  1.00  0.00     0.210 HD
ENDROOT
TORSDOF 12
BEGIN_RES PHE A  61
REMARK  2 active torsions:
REMARK  status: ('A' for Active; 'I' for Inactive)
REMARK    1  A    between atoms: CA   and  CB  
REMARK    2  A    between atoms: CB   and  CG  
ROOT
ATOM      1  CA  PHE A  61     -36.237 128.293  12.768  1.00 39.40     0.164 C 
ENDROOT
BRANCH   1   2
ATOM      2  CB  PHE A  61     -36.813 128.951  11.509  1.00 39.41     0.058 C 
BRANCH   2   3
ATOM      3  CG  PHE A  61     -37.028 128.004  10.353  1.00 39.01    -0.020 A 
ATOM      4  CD2 PHE A  61     -36.278 126.845  10.233  1.00 40.32    -0.004 A 
ATOM      5  CE2 PHE A  61     -36.474 125.976   9.167  1.00 40.20    -0.000 A 
ATOM      6  CZ  PHE A  61     -37.425 126.254   8.212  1.00 40.34    -0.000 A 
ATOM      7  CE1 PHE A  61     -38.180 127.401   8.317  1.00 41.51    -0.000 A 
ATOM      8  CD1 PHE A  61     -37.980 128.273   9.379  1.00 39.94    -0.004 A 
ENDBRANCH   2   3
ENDBRANCH   1   2
END_RES PHE A  61
BEGIN_RES VAL A 134
REMARK  1 active torsions:
REMARK  status: ('A' for Active; 'I' for Inactive)
REMARK    3  A    between atoms: CA   and  CB  
ROOT
ATOM      9  CA  VAL A 134     -29.766 132.051   9.815  1.00 40.75     0.159 C 
ENDROOT
BRANCH   9  10
ATOM     10  CB  VAL A 134     -30.864 132.765   9.009  1.00 40.76     0.029 C 
ATOM     11  CG1 VAL A 134     -32.107 132.975   9.861  1.00 41.76     0.002 C 
ATOM     12  CG2 VAL A 134     -30.372 134.086   8.437  1.00 40.56     0.002 C 
ENDBRANCH   9  10
END_RES VAL A 134
BEGIN_RES TYR A 338
REMARK  3 active torsions:
REMARK  status: ('A' for Active; 'I' for Inactive)
REMARK    4  A    between atoms: CA   and  CB  
REMARK    5  A    between atoms: CB   and  CG  
REMARK    6  A    between atoms: CZ   and  OH  
ROOT
ATOM     13  CA  TYR A 338     -41.631 124.950   6.058  1.00 38.23     0.164 C 
ENDROOT
BRANCH  13  14
ATOM     14  CB  TYR A 338     -41.621 126.456   6.339  1.00 39.15     0.058 C 
BRANCH  14  15
ATOM     15  CG  TYR A 338     -40.418 127.212   5.822  1.00 39.03    -0.020 A 
ATOM     16  CD2 TYR A 338     -40.263 128.558   6.104  1.00 40.65    -0.002 A 
ATOM     17  CE2 TYR A 338     -39.181 129.286   5.634  1.00 40.91     0.024 A 
ATOM     18  CZ  TYR A 338     -38.221 128.664   4.858  1.00 42.33     0.089 A 
ATOM     19  CE1 TYR A 338     -38.351 127.318   4.567  1.00 40.63     0.024 A 
ATOM     20  CD1 TYR A 338     -39.448 126.611   5.036  1.00 39.27    -0.002 A 
BRANCH  18  21
ATOM     21  OH  TYR A 338     -37.147 129.371   4.393  1.00 43.36    -0.359 OA
ATOM     22  HH  TYR A 338     -36.566 129.817   4.998  1.00  0.00     0.217 HD
ENDBRANCH  18  21
ENDBRANCH  14  15
ENDBRANCH  13  14
END_RES TYR A 338
ENDMDL
MODEL 2
REMARK VINA RESULT:   -11.990      1.843     16.702
REMARK INTER + INTRA:         -12.370
REMARK INTER:                  -9.889
REMARK INTRA:                  -2.481
REMARK UNBOUND:                -0.380
REMARK  0 active torsions:
REMARK  status: ('A' for Active; 'I' for Inactive)
REMARK       I    between atoms: C3_3  and  O3_21 
REMARK       I    between atoms: C6_6  and  C7_7 
REMARK       I    between atoms: C8_8  and  C9_9 
REMARK       I    between atoms: C10_10  and  C11_11 
REMARK       I    between atoms: C12_12  and  C13_13 
REMARK       I    between atoms: C14_14  and  C15_15 
REMARK       I    between atoms: C23_25  and  O23_43 
REMARK       I    between atoms: C26_28  and  C27_29 
REMARK       I    between atoms: C28_30  and  C29_31 
REMARK       I    between atoms: C30_32  and  C31_33 
REMARK       I    between atoms: C32_34  and  C33_35 
REMARK       I    between atoms: C34_36  and  C35_37 
ROOT
HETATM    1  C1  STQ 4 619     -34.295 127.369   6.546  1.00 29.53    -0.018 C 
HETATM    2  C2  STQ 4 619     -33.674 126.810   5.267  1.00 29.53     0.045 C 
HETATM    3  C3  STQ 4 619     -32.470 127.535   4.687  1.00 29.53     0.123 C 
HETATM    4  C4  STQ 4 619     -31.582 128.068   5.792  1.00 29.53     0.066 C 
HETATM    5  C5  STQ 4 619     -32.405 128.996   6.636  1.00 29.53    -0.074 C 
HETATM    6  C6  STQ 4 619     -33.600 128.603   7.094  1.00 29.53    -0.048 C 
HETATM    7  C7  STQ 4 619     -34.270 129.358   8.176  1.00 29.53     0.009 C 
HETATM    8  C8  STQ 4 619     -35.004 130.448   7.952  1.00 29.53     0.007 C 
HETATM    9  C9  STQ 4 619     -35.657 131.155   9.064  1.00 29.53    -0.062 C 
HETATM   10  C10 STQ 4 619     -36.206 132.354   8.817  1.00 29.53     0.007 C 
HETATM   11  C11 STQ 4 619     -36.913 133.195   9.779  1.00 29.53     0.001 C 
HETATM   12  C12 STQ 4 619     -37.439 134.306   9.280  1.00 29.53     0.007 C 
HETATM   13  C13 STQ 4 619     -38.223 135.310  10.016  1.00 29.53    -0.062 C 
HETATM   14  C14 STQ 4 619     -38.967 136.113   9.245  1.00 29.53     0.007 C 
HETATM   15  C15 STQ 4 619     -39.855 137.158   9.728  1.00 29.53     0.001 C 
HETATM   16  C16 STQ 4 619     -34.307 126.239   7.571  1.00 29.53     0.020 C 
HETATM   17  C17 STQ 4 619     -35.736 127.764   6.248  1.00 29.53     0.020 C 
HETATM   18  C18 STQ 4 619     -31.548 129.998   7.356  1.00 29.53     0.044 C 
HETATM   19  C19 STQ 4 619     -35.691 130.511  10.414  1.00 29.53     0.048 C 
HETATM   20  C20 STQ 4 619     -38.194 135.420  11.509  1.00 29.53     0.048 C 
HETATM   21  O3  STQ 4 619     -31.703 126.618   3.902  1.00 29.53    -0.395 OA
ATOM     22  H3  STQ 4 619     -30.951 127.071   3.539  1.00  0.00     0.210 HD
HETATM   23  C21 STQ 4 619     -49.793 145.092   9.200  1.00 29.53    -0.035 C 
HETATM   24  C22 STQ 4 619     -50.679 145.794  10.221  1.00 29.53     0.045 C 
HETATM   25  C23 STQ 4 619     -50.277 147.221  10.576  1.00 29.53     0.142 C 
HETATM   26  C24 STQ 4 619     -48.783 147.444  10.558  1.00 29.53     0.007 C 
HETATM   27  C25 STQ 4 619     -47.950 146.677   9.847  1.00 29.53    -0.077 C 
HETATM   28  C26 STQ 4 619     -48.309 145.248   9.549  1.00 29.53     0.044 C 
HETATM   29  C27 STQ 4 619     -47.453 144.640   8.457  1.00 29.53    -0.016 C 
HETATM   30  C28 STQ 4 619     -46.579 143.719   8.846  1.00 29.53     0.003 C 
HETATM   31  C29 STQ 4 619     -45.683 142.987   7.938  1.00 29.53    -0.062 C 
HETATM   32  C30 STQ 4 619     -44.977 142.007   8.506  1.00 29.53     0.007 C 
HETATM   33  C31 STQ 4 619     -44.050 141.111   7.829  1.00 29.53     0.001 C 
HETATM   34  C32 STQ 4 619     -43.337 140.356   8.656  1.00 29.53     0.007 C 
HETATM   35  C33 STQ 4 619     -42.355 139.350   8.237  1.00 29.53    -0.062 C 
HETATM   36  C34 STQ 4 619     -41.601 138.762   9.179  1.00 29.53     0.007 C 
HETATM   37  C35 STQ 4 619     -40.638 137.729   8.818  1.00 29.53     0.001 C 
HETATM   38  C36 STQ 4 619     -50.104 145.603   7.797  1.00 29.53     0.016 C 
HETATM   39  C37 STQ 4 619     -50.158 143.613   9.240  1.00 29.53     0.016 C 
HETATM   40  C38 STQ 4 619     -46.655 147.269   9.377  1.00 29.53     0.044 C 
HETATM   41  C39 STQ 4 619     -45.589 143.304   6.475  1.00 29.53     0.048 C 
HETATM   42  C40 STQ 4 619     -42.232 138.981   6.792  1.00 29.53     0.048 C 
HETATM   43  O23 STQ 4 619     -50.739 147.479  11.903  1.00 29.53    -0.392 OA
ATOM     44  H23 STQ 4 619     -50.488 148.369  12.123  1.00  0.00     0.210 HD
ENDROOT
TORSDOF 12
BEGIN_RES PHE A  61
REMARK  2 active torsions:
REMARK  status: ('A' for Active; 'I' for Inactive)
REMARK    1  A    between atoms: CA   and  CB  
REMARK    2  A    between atoms: CB   and  CG  
ROOT
ATOM      1  CA  PHE A  61     -36.237 128.293  12.768  1.00 39.40     0.164 C 
ENDROOT
BRANCH   1   2
ATOM      2  CB  PHE A  61     -36.813 128.951  11.509  1.00 39.41     0.058 C 
BRANCH   2   3
ATOM      3  CG  PHE A  61     -37.064 127.997  10.366  1.00 39.01    -0.020 A 
ATOM      4  CD2 PHE A  61     -36.335 126.825  10.243  1.00 40.32    -0.004 A 
ATOM      5  CE2 PHE A  61     -36.565 125.950   9.189  1.00 40.20    -0.000 A 
ATOM      6  CZ  PHE A  61     -37.529 126.235   8.249  1.00 40.34    -0.000 A 
ATOM      7  CE1 PHE A  61     -38.264 127.394   8.357  1.00 41.51    -0.000 A 
ATOM      8  CD1 PHE A  61     -38.030 128.273   9.408  1.00 39.94    -0.004 A 
ENDBRANCH   2   3
ENDBRANCH   1   2
END_RES PHE A  61
BEGIN_RES VAL A 134
REMARK  1 active torsions:
REMARK  status: ('A' for Active; 'I' for Inactive)
REMARK    3  A    between atoms: CA   and  CB  
ROOT
ATOM      9  CA  VAL A 134     -29.766 132.051   9.815  1.00 40.75     0.159 C 
ENDROOT
BRANCH   9  10
ATOM     10  CB  VAL A 134     -30.864 132.765   9.009  1.00 40.76     0.029 C 
ATOM     11  CG1 VAL A 134     -30.846 132.312   7.556  1.00 41.76     0.002 C 
ATOM     12  CG2 VAL A 134     -32.239 132.553   9.624  1.00 40.56     0.002 C 
ENDBRANCH   9  10
END_RES VAL A 134
BEGIN_RES TYR A 338
REMARK  3 active torsions:
REMARK  status: ('A' for Active; 'I' for Inactive)
REMARK    4  A    between atoms: CA   and  CB  
REMARK    5  A    between atoms: CB   and  CG  
REMARK    6  A    between atoms: CZ   and  OH  
ROOT
ATOM     13  CA  TYR A 338     -41.631 124.950   6.058  1.00 38.23     0.164 C 
ENDROOT
BRANCH  13  14
ATOM     14  CB  TYR A 338     -41.621 126.456   6.339  1.00 39.15     0.058 C 
BRANCH  14  15
ATOM     15  CG  TYR A 338     -40.423 127.213   5.814  1.00 39.03    -0.020 A 
ATOM     16  CD2 TYR A 338     -40.256 128.555   6.113  1.00 40.65    -0.002 A 
ATOM     17  CE2 TYR A 338     -39.178 129.284   5.635  1.00 40.91     0.024 A 
ATOM     18  CZ  TYR A 338     -38.234 128.669   4.835  1.00 42.33     0.089 A 
ATOM     19  CE1 TYR A 338     -38.376 127.328   4.527  1.00 40.63     0.024 A 
ATOM     20  CD1 TYR A 338     -39.468 126.619   5.003  1.00 39.27    -0.002 A 
BRANCH  18  21
ATOM     21  OH  TYR A 338     -37.164 129.378   4.363  1.00 43.36    -0.359 OA
ATOM     22  HH  TYR A 338     -37.130 129.644   3.451  1.00  0.00     0.217 HD
ENDBRANCH  18  21
ENDBRANCH  14  15
ENDBRANCH  13  14
END_RES TYR A 338
ENDMDL
