MODEL 1
REMARK VINA RESULT:    -8.708      0.000      0.000
REMARK INTER + INTRA:         -11.516
REMARK INTER:                  -8.708
REMARK INTRA:                  -2.808
REMARK UNBOUND:                -2.808
REMARK  0 active torsions:
REMARK  status: ('A' for Active; 'I' for Inactive)
REMARK       I    between atoms: C3_3  and  O3_21 
REMARK       I    between atoms: C6_6  and  C7_7 
REMARK       I    between atoms: C8_8  and  C9_9 
REMARK       I    between atoms: C10_10  and  C11_11 
REMARK       I    between atoms: C12_12  and  C13_13 
REMARK       I    between atoms: C14_14  and  C15_15 
REMARK       I    between atoms: C23_25  and  O23_43 
REMARK       I    between atoms: C26_28  and  C27_29 
REMARK       I    between atoms: C28_30  and  C29_31 
REMARK       I    between atoms: C30_32  and  C31_33 
REMARK       I    between atoms: C32_34  and  C33_35 
REMARK       I    between atoms: C34_36  and  C35_37 
ROOT
HETATM    1  C1  STQ F5620     -34.540 126.981   6.259  1.00 19.30    -0.018 C 
HETATM    2  C2  STQ F5620     -34.155 126.313   4.925  1.00 17.68     0.045 C 
HETATM    3  C3  STQ F5620     -33.014 126.910   4.109  1.00 17.79     0.123 C 
HETATM    4  C4  STQ F5620     -32.042 127.797   4.888  1.00 18.50     0.066 C 
HETATM    5  C5  STQ F5620     -32.557 128.588   6.046  1.00 19.40    -0.074 C 
HETATM    6  C6  STQ F5620     -33.719 128.233   6.703  1.00 19.02    -0.048 C 
HETATM    7  C7  STQ F5620     -34.236 129.020   7.832  1.00 18.60     0.009 C 
HETATM    8  C8  STQ F5620     -34.899 130.194   7.762  1.00 18.09     0.007 C 
HETATM    9  C9  STQ F5620     -35.314 131.043   8.883  1.00 18.23    -0.062 C 
HETATM   10  C10 STQ F5620     -36.061 132.133   8.603  1.00 15.81     0.007 C 
HETATM   11  C11 STQ F5620     -36.586 133.082   9.546  1.00 18.00     0.001 C 
HETATM   12  C12 STQ F5620     -37.463 134.011   9.133  1.00 18.12     0.007 C 
HETATM   13  C13 STQ F5620     -38.159 135.032   9.905  1.00 18.88    -0.062 C 
HETATM   14  C14 STQ F5620     -39.081 135.775   9.256  1.00 21.10     0.007 C 
HETATM   15  C15 STQ F5620     -39.956 136.776   9.807  1.00 24.06     0.001 C 
HETATM   16  C16 STQ F5620     -34.358 125.850   7.287  1.00 17.17     0.020 C 
HETATM   17  C17 STQ F5620     -36.047 127.314   6.181  1.00 16.95     0.020 C 
HETATM   18  C18 STQ F5620     -31.630 129.734   6.299  1.00 19.80     0.044 C 
HETATM   19  C19 STQ F5620     -34.919 130.613  10.278  1.00 17.09     0.048 C 
HETATM   20  C20 STQ F5620     -37.862 135.136  11.369  1.00 16.35     0.048 C 
HETATM   21  O3  STQ F5620     -32.303 125.884   3.441  1.00 17.38    -0.395 OA
ATOM     22  H3  STQ F5620     -31.591 126.255   2.932  1.00  0.00     0.210 HD
HETATM   23  C21 STQ F5620     -49.820 144.465  12.550  1.00 25.60    -0.035 C 
HETATM   24  C22 STQ F5620     -50.660 145.420  13.432  1.00 24.99     0.045 C 
HETATM   25  C23 STQ F5620     -50.535 146.900  13.053  1.00 24.73     0.142 C 
HETATM   26  C24 STQ F5620     -49.093 147.296  12.723  1.00 25.13     0.007 C 
HETATM   27  C25 STQ F5620     -48.132 146.399  12.416  1.00 24.82    -0.077 C 
HETATM   28  C26 STQ F5620     -48.331 144.895  12.358  1.00 24.32     0.044 C 
HETATM   29  C27 STQ F5620     -47.636 144.339  11.130  1.00 25.62    -0.016 C 
HETATM   30  C28 STQ F5620     -46.685 143.380  11.184  1.00 26.25     0.003 C 
HETATM   31  C29 STQ F5620     -46.063 142.666  10.062  1.00 26.61    -0.062 C 
HETATM   32  C30 STQ F5620     -45.127 141.736  10.345  1.00 25.24     0.007 C 
HETATM   33  C31 STQ F5620     -44.440 140.897   9.408  1.00 26.40     0.001 C 
HETATM   34  C32 STQ F5620     -43.487 140.032   9.805  1.00 26.29     0.007 C 
HETATM   35  C33 STQ F5620     -42.683 139.119   8.987  1.00 26.99    -0.062 C 
HETATM   36  C34 STQ F5620     -41.753 138.370   9.619  1.00 26.65     0.007 C 
HETATM   37  C35 STQ F5620     -40.847 137.417   9.042  1.00 25.43     0.001 C 
HETATM   38  C36 STQ F5620     -50.536 144.344  11.172  1.00 22.69     0.016 C 
HETATM   39  C37 STQ F5620     -49.867 143.083  13.217  1.00 23.76     0.016 C 
HETATM   40  C38 STQ F5620     -46.798 147.003  12.150  1.00 26.09     0.044 C 
HETATM   41  C39 STQ F5620     -46.505 143.019   8.663  1.00 26.87     0.048 C 
HETATM   42  C40 STQ F5620     -42.931 139.099   7.507  1.00 24.17     0.048 C 
HETATM   43  O23 STQ F5620     -51.055 147.719  14.091  1.00 24.51    -0.392 OA
ATOM     44  H23 STQ F5620     -50.978 148.637  13.856  1.00  0.00     0.210 HD
ENDROOT
TORSDOF 12
BEGIN_RES PHE A  61
REMARK  2 active torsions:
REMARK  status: ('A' for Active; 'I' for Inactive)
REMARK    1  A    between atoms: CA   and  CB  
REMARK    2  A    between atoms: CB   and  CG  
ROOT
ATOM      1  CA  PHE A  61     -36.237 128.293  12.768  1.00 39.40     0.164 C 
ENDROOT
BRANCH   1   2
ATOM      2  CB  PHE A  61     -36.813 128.951  11.509  1.00 39.41     0.058 C 
BRANCH   2   3
ATOM      3  CG  PHE A  61     -37.064 127.997  10.366  1.00 39.01    -0.020 A 
ATOM      4  CD2 PHE A  61     -36.328 126.830  10.238  1.00 40.32    -0.004 A 
ATOM      5  CE2 PHE A  61     -36.558 125.955   9.184  1.00 40.20    -0.000 A 
ATOM      6  CZ  PHE A  61     -37.527 126.235   8.248  1.00 40.34    -0.000 A 
ATOM      7  CE1 PHE A  61     -38.269 127.390   8.362  1.00 41.51    -0.000 A 
ATOM      8  CD1 PHE A  61     -38.035 128.268   9.412  1.00 39.94    -0.004 A 
ENDBRANCH   2   3
ENDBRANCH   1   2
END_RES PHE A  61
BEGIN_RES VAL A 134
REMARK  1 active torsions:
REMARK  status: ('A' for Active; 'I' for Inactive)
REMARK    3  A    between atoms: CA   and  CB  
ROOT
ATOM      9  CA  VAL A 134     -29.766 132.051   9.815  1.00 40.75     0.159 C 
ENDROOT
BRANCH   9  10
ATOM     10  CB  VAL A 134     -30.864 132.765   9.009  1.00 40.76     0.029 C 
ATOM     11  CG1 VAL A 134     -31.177 132.001   7.731  1.00 41.76     0.002 C 
ATOM     12  CG2 VAL A 134     -32.123 132.972   9.837  1.00 40.56     0.002 C 
ENDBRANCH   9  10
END_RES VAL A 134
BEGIN_RES TYR A 338
REMARK  3 active torsions:
REMARK  status: ('A' for Active; 'I' for Inactive)
REMARK    4  A    between atoms: CA   and  CB  
REMARK    5  A    between atoms: CB   and  CG  
REMARK    6  A    between atoms: CZ   and  OH  
ROOT
ATOM     13  CA  TYR A 338     -41.631 124.950   6.058  1.00 38.23     0.164 C 
ENDROOT
BRANCH  13  14
ATOM     14  CB  TYR A 338     -41.621 126.456   6.339  1.00 39.15     0.058 C 
BRANCH  14  15
ATOM     15  CG  TYR A 338     -40.424 127.214   5.812  1.00 39.03    -0.020 A 
ATOM     16  CD2 TYR A 338     -40.246 128.550   6.127  1.00 40.65    -0.002 A 
ATOM     17  CE2 TYR A 338     -39.169 129.280   5.649  1.00 40.91     0.024 A 
ATOM     18  CZ  TYR A 338     -38.237 128.671   4.830  1.00 42.33     0.089 A 
ATOM     19  CE1 TYR A 338     -38.391 127.335   4.504  1.00 40.63     0.024 A 
ATOM     20  CD1 TYR A 338     -39.482 126.626   4.982  1.00 39.27    -0.002 A 
BRANCH  18  21
ATOM     21  OH  TYR A 338     -37.169 129.379   4.356  1.00 43.36    -0.359 OA
ATOM     22  HH  TYR A 338     -37.074 129.540   3.424  1.00  0.00     0.217 HD
ENDBRANCH  18  21
ENDBRANCH  14  15
ENDBRANCH  13  14
END_RES TYR A 338
ENDMDL
MODEL 2
REMARK VINA RESULT:    -8.150      1.480      1.811
REMARK INTER + INTRA:         -10.958
REMARK INTER:                 -10.610
REMARK INTRA:                  -0.348
REMARK UNBOUND:                -2.808
REMARK  0 active torsions:
REMARK  status: ('A' for Active; 'I' for Inactive)
REMARK       I    between atoms: C3_3  and  O3_21 
REMARK       I    between atoms: C6_6  and  C7_7 
REMARK       I    between atoms: C8_8  and  C9_9 
REMARK       I    between atoms: C10_10  and  C11_11 
REMARK       I    between atoms: C12_12  and  C13_13 
REMARK       I    between atoms: C14_14  and  C15_15 
REMARK       I    between atoms: C23_25  and  O23_43 
REMARK       I    between atoms: C26_28  and  C27_29 
REMARK       I    between atoms: C28_30  and  C29_31 
REMARK       I    between atoms: C30_32  and  C31_33 
REMARK       I    between atoms: C32_34  and  C33_35 
REMARK       I    between atoms: C34_36  and  C35_37 
ROOT
HETATM    1  C1  STQ F5620     -34.208 128.172   6.798  1.00 19.30    -0.018 C 
HETATM    2  C2  STQ F5620     -33.376 127.665   5.604  1.00 17.68     0.045 C 
HETATM    3  C3  STQ F5620     -32.026 128.316   5.320  1.00 17.79     0.123 C 
HETATM    4  C4  STQ F5620     -31.395 129.060   6.498  1.00 18.50     0.066 C 
HETATM    5  C5  STQ F5620     -32.288 129.717   7.500  1.00 19.40    -0.074 C 
HETATM    6  C6  STQ F5620     -33.603 129.326   7.660  1.00 19.02    -0.048 C 
HETATM    7  C7  STQ F5620     -34.488 129.983   8.633  1.00 18.60     0.009 C 
HETATM    8  C8  STQ F5620     -35.095 131.180   8.493  1.00 18.09     0.007 C 
HETATM    9  C9  STQ F5620     -35.882 131.896   9.503  1.00 18.23    -0.062 C 
HETATM   10  C10 STQ F5620     -36.494 133.040   9.127  1.00 15.81     0.007 C 
HETATM   11  C11 STQ F5620     -37.322 133.881   9.946  1.00 18.00     0.001 C 
HETATM   12  C12 STQ F5620     -38.008 134.887   9.382  1.00 18.12     0.007 C 
HETATM   13  C13 STQ F5620     -38.939 135.828   9.992  1.00 18.88    -0.062 C 
HETATM   14  C14 STQ F5620     -39.583 136.682   9.168  1.00 21.10     0.007 C 
HETATM   15  C15 STQ F5620     -40.604 137.638   9.508  1.00 24.06     0.001 C 
HETATM   16  C16 STQ F5620     -34.385 126.914   7.666  1.00 17.17     0.020 C 
HETATM   17  C17 STQ F5620     -35.595 128.569   6.246  1.00 16.95     0.020 C 
HETATM   18  C18 STQ F5620     -31.518 130.785   8.207  1.00 19.80     0.044 C 
HETATM   19  C19 STQ F5620     -35.995 131.277  10.878  1.00 17.09     0.048 C 
HETATM   20  C20 STQ F5620     -39.172 135.735  11.468  1.00 16.35     0.048 C 
HETATM   21  O3  STQ F5620     -31.119 127.356   4.811  1.00 17.38    -0.395 OA
ATOM     22  H3  STQ F5620     -30.278 127.762   4.635  1.00  0.00     0.210 HD
HETATM   23  C21 STQ F5620     -50.870 145.288   9.650  1.00 25.60    -0.035 C 
HETATM   24  C22 STQ F5620     -51.972 146.155  10.305  1.00 24.99     0.045 C 
HETATM   25  C23 STQ F5620     -51.736 147.666  10.191  1.00 24.73     0.142 C 
HETATM   26  C24 STQ F5620     -50.273 148.045  10.437  1.00 25.13     0.007 C 
HETATM   27  C25 STQ F5620     -49.258 147.158  10.367  1.00 24.82    -0.077 C 
HETATM   28  C26 STQ F5620     -49.411 145.681  10.046  1.00 24.32     0.044 C 
HETATM   29  C27 STQ F5620     -48.327 145.260   9.073  1.00 25.62    -0.016 C 
HETATM   30  C28 STQ F5620     -47.446 144.266   9.326  1.00 26.25     0.003 C 
HETATM   31  C29 STQ F5620     -46.466 143.677   8.406  1.00 26.61    -0.062 C 
HETATM   32  C30 STQ F5620     -45.679 142.683   8.870  1.00 25.24     0.007 C 
HETATM   33  C31 STQ F5620     -44.701 141.945   8.127  1.00 26.40     0.001 C 
HETATM   34  C32 STQ F5620     -43.940 141.001   8.712  1.00 26.29     0.007 C 
HETATM   35  C33 STQ F5620     -42.893 140.168   8.111  1.00 26.99    -0.062 C 
HETATM   36  C34 STQ F5620     -42.235 139.310   8.921  1.00 26.65     0.007 C 
HETATM   37  C35 STQ F5620     -41.177 138.405   8.573  1.00 25.43     0.001 C 
HETATM   38  C36 STQ F5620     -51.060 145.371   8.106  1.00 22.69     0.016 C 
HETATM   39  C37 STQ F5620     -51.135 143.835  10.071  1.00 23.76     0.016 C 
HETATM   40  C38 STQ F5620     -47.919 147.739  10.662  1.00 26.09     0.044 C 
HETATM   41  C39 STQ F5620     -46.395 144.221   7.000  1.00 26.87     0.048 C 
HETATM   42  C40 STQ F5620     -42.609 140.346   6.648  1.00 24.17     0.048 C 
HETATM   43  O23 STQ F5620     -52.592 148.365  11.084  1.00 24.51    -0.392 OA
ATOM     44  H23 STQ F5620     -52.446 149.302  11.013  1.00  0.00     0.210 HD
ENDROOT
TORSDOF 12
BEGIN_RES PHE A  61
REMARK  2 active torsions:
REMARK  status: ('A' for Active; 'I' for Inactive)
REMARK    1  A    between atoms: CA   and  CB  
REMARK    2  A    between atoms: CB   and  CG  
ROOT
ATOM      1  CA  PHE A  61     -36.237 128.293  12.768  1.00 39.40     0.164 C 
ENDROOT
BRANCH   1   2
ATOM      2  CB  PHE A  61     -36.813 128.951  11.509  1.00 39.41     0.058 C 
BRANCH   2   3
ATOM      3  CG  PHE A  61     -37.012 128.007  10.347  1.00 39.01    -0.020 A 
ATOM      4  CD2 PHE A  61     -36.274 126.838  10.245  1.00 40.32    -0.004 A 
ATOM      5  CE2 PHE A  61     -36.456 125.973   9.174  1.00 40.20    -0.000 A 
ATOM      6  CZ  PHE A  61     -37.379 126.264   8.196  1.00 40.34    -0.000 A 
ATOM      7  CE1 PHE A  61     -38.122 127.421   8.283  1.00 41.51    -0.000 A 
ATOM      8  CD1 PHE A  61     -37.935 128.290   9.350  1.00 39.94    -0.004 A 
ENDBRANCH   2   3
ENDBRANCH   1   2
END_RES PHE A  61
BEGIN_RES VAL A 134
REMARK  1 active torsions:
REMARK  status: ('A' for Active; 'I' for Inactive)
REMARK    3  A    between atoms: CA   and  CB  
ROOT
ATOM      9  CA  VAL A 134     -29.766 132.051   9.815  1.00 40.75     0.159 C 
ENDROOT
BRANCH   9  10
ATOM     10  CB  VAL A 134     -30.864 132.765   9.009  1.00 40.76     0.029 C 
ATOM     11  CG1 VAL A 134     -32.106 132.976   9.862  1.00 41.76     0.002 C 
ATOM     12  CG2 VAL A 134     -30.371 134.085   8.436  1.00 40.56     0.002 C 
ENDBRANCH   9  10
END_RES VAL A 134
BEGIN_RES TYR A 338
REMARK  3 active torsions:
REMARK  status: ('A' for Active; 'I' for Inactive)
REMARK    4  A    between atoms: CA   and  CB  
REMARK    5  A    between atoms: CB   and  CG  
REMARK    6  A    between atoms: CZ   and  OH  
ROOT
ATOM     13  CA  TYR A 338     -41.631 124.950   6.058  1.00 38.23     0.164 C 
ENDROOT
BRANCH  13  14
ATOM     14  CB  TYR A 338     -41.621 126.456   6.339  1.00 39.15     0.058 C 
BRANCH  14  15
ATOM     15  CG  TYR A 338     -40.427 127.215   5.807  1.00 39.03    -0.020 A 
ATOM     16  CD2 TYR A 338     -40.264 128.558   6.099  1.00 40.65    -0.002 A 
ATOM     17  CE2 TYR A 338     -39.189 129.289   5.615  1.00 40.91     0.024 A 
ATOM     18  CZ  TYR A 338     -38.245 128.673   4.816  1.00 42.33     0.089 A 
ATOM     19  CE1 TYR A 338     -38.383 127.329   4.515  1.00 40.63     0.024 A 
ATOM     20  CD1 TYR A 338     -39.472 126.620   4.998  1.00 39.27    -0.002 A 
BRANCH  18  21
ATOM     21  OH  TYR A 338     -37.179 129.382   4.338  1.00 43.36    -0.359 OA
ATOM     22  HH  TYR A 338     -37.236 130.325   4.234  1.00  0.00     0.217 HD
ENDBRANCH  18  21
ENDBRANCH  14  15
ENDBRANCH  13  14
END_RES TYR A 338
ENDMDL
