MODEL 1
REMARK VINA RESULT:   -10.360      0.000      0.000
REMARK INTER + INTRA:         -12.807
REMARK INTER:                 -10.360
REMARK INTRA:                  -2.448
REMARK UNBOUND:                -2.448
REMARK  0 active torsions:
REMARK  status: ('A' for Active; 'I' for Inactive)
REMARK       I    between atoms: C3_3  and  O3_21 
REMARK       I    between atoms: C6_6  and  C7_7 
REMARK       I    between atoms: C8_8  and  C9_9 
REMARK       I    between atoms: C10_10  and  C11_11 
REMARK       I    between atoms: C12_12  and  C13_13 
REMARK       I    between atoms: C14_14  and  C15_15 
REMARK       I    between atoms: C23_25  and  O23_43 
REMARK       I    between atoms: C26_28  and  C27_29 
REMARK       I    between atoms: C28_30  and  C29_31 
REMARK       I    between atoms: C30_32  and  C31_33 
REMARK       I    between atoms: C32_34  and  C33_35 
REMARK       I    between atoms: C34_36  and  C35_37 
ROOT
HETATM    1  C1  STQ V1621     -34.213 127.032   6.728  1.00 16.22    -0.018 C 
HETATM    2  C2  STQ V1621     -34.017 126.767   5.251  1.00 16.22     0.045 C 
HETATM    3  C3  STQ V1621     -33.095 127.728   4.560  1.00 16.22     0.123 C 
HETATM    4  C4  STQ V1621     -31.901 127.908   5.459  1.00 16.22     0.066 C 
HETATM    5  C5  STQ V1621     -32.410 128.668   6.641  1.00 16.22    -0.074 C 
HETATM    6  C6  STQ V1621     -33.478 128.213   7.290  1.00 16.22    -0.048 C 
HETATM    7  C7  STQ V1621     -34.137 128.932   8.389  1.00 16.22     0.009 C 
HETATM    8  C8  STQ V1621     -34.301 130.237   8.204  1.00 16.22     0.007 C 
HETATM    9  C9  STQ V1621     -35.171 130.994   9.121  1.00 16.22    -0.062 C 
HETATM   10  C10 STQ V1621     -35.766 132.090   8.632  1.00 16.22     0.007 C 
HETATM   11  C11 STQ V1621     -36.768 132.860   9.360  1.00 16.22     0.001 C 
HETATM   12  C12 STQ V1621     -37.438 133.820   8.733  1.00 16.22     0.007 C 
HETATM   13  C13 STQ V1621     -38.506 134.581   9.404  1.00 16.22    -0.062 C 
HETATM   14  C14 STQ V1621     -39.215 135.452   8.669  1.00 16.22     0.007 C 
HETATM   15  C15 STQ V1621     -40.312 136.263   9.193  1.00 16.22     0.001 C 
HETATM   16  C16 STQ V1621     -33.659 125.850   7.504  1.00 16.22     0.020 C 
HETATM   17  C17 STQ V1621     -35.694 127.188   6.931  1.00 16.22     0.020 C 
HETATM   18  C18 STQ V1621     -31.436 129.626   7.242  1.00 16.22     0.044 C 
HETATM   19  C19 STQ V1621     -35.438 130.474  10.503  1.00 16.22     0.048 C 
HETATM   20  C20 STQ V1621     -38.760 134.327  10.857  1.00 16.22     0.048 C 
HETATM   21  O3  STQ V1621     -32.741 127.125   3.321  1.00 16.22    -0.395 OA
ATOM     22  H3  STQ V1621     -32.157 127.734   2.883  1.00  0.00     0.210 HD
HETATM   23  C21 STQ V1621     -49.759 144.844   9.936  1.00 16.22    -0.035 C 
HETATM   24  C22 STQ V1621     -50.697 145.740  10.710  1.00 16.22     0.045 C 
HETATM   25  C23 STQ V1621     -50.287 147.190  10.634  1.00 16.22     0.142 C 
HETATM   26  C24 STQ V1621     -48.816 147.350  10.894  1.00 16.22     0.007 C 
HETATM   27  C25 STQ V1621     -47.948 146.343  10.798  1.00 16.22    -0.077 C 
HETATM   28  C26 STQ V1621     -48.339 144.944  10.463  1.00 16.22     0.044 C 
HETATM   29  C27 STQ V1621     -47.395 144.351   9.447  1.00 16.22    -0.016 C 
HETATM   30  C28 STQ V1621     -46.765 143.223   9.746  1.00 16.22     0.003 C 
HETATM   31  C29 STQ V1621     -45.851 142.559   8.809  1.00 16.22    -0.062 C 
HETATM   32  C30 STQ V1621     -45.305 141.399   9.204  1.00 16.22     0.007 C 
HETATM   33  C31 STQ V1621     -44.356 140.628   8.415  1.00 16.22     0.001 C 
HETATM   34  C32 STQ V1621     -43.748 139.589   8.971  1.00 16.22     0.007 C 
HETATM   35  C33 STQ V1621     -42.723 138.825   8.244  1.00 16.22    -0.062 C 
HETATM   36  C34 STQ V1621     -42.036 137.902   8.933  1.00 16.22     0.007 C 
HETATM   37  C35 STQ V1621     -40.953 137.091   8.388  1.00 16.22     0.001 C 
HETATM   38  C36 STQ V1621     -49.830 145.201   8.468  1.00 16.22     0.016 C 
HETATM   39  C37 STQ V1621     -50.218 143.411  10.091  1.00 16.22     0.016 C 
HETATM   40  C38 STQ V1621     -46.508 146.613  11.043  1.00 16.22     0.044 C 
HETATM   41  C39 STQ V1621     -45.632 143.188   7.471  1.00 16.22     0.048 C 
HETATM   42  C40 STQ V1621     -42.475 139.149   6.803  1.00 16.22     0.048 C 
HETATM   43  O23 STQ V1621     -51.005 147.864  11.655  1.00 16.22    -0.392 OA
ATOM     44  H23 STQ V1621     -50.747 148.777  11.608  1.00  0.00     0.210 HD
ENDROOT
TORSDOF 12
BEGIN_RES PHE A  61
REMARK  2 active torsions:
REMARK  status: ('A' for Active; 'I' for Inactive)
REMARK    1  A    between atoms: CA   and  CB  
REMARK    2  A    between atoms: CB   and  CG  
ROOT
ATOM      1  CA  PHE A  61     -36.237 128.293  12.768  1.00 39.40     0.164 C 
ENDROOT
BRANCH   1   2
ATOM      2  CB  PHE A  61     -36.813 128.951  11.509  1.00 39.41     0.058 C 
BRANCH   2   3
ATOM      3  CG  PHE A  61     -37.103 127.991  10.380  1.00 39.01    -0.020 A 
ATOM      4  CD2 PHE A  61     -36.393 126.807  10.253  1.00 40.32    -0.004 A 
ATOM      5  CE2 PHE A  61     -36.659 125.926   9.212  1.00 40.20    -0.000 A 
ATOM      6  CZ  PHE A  61     -37.639 126.217   8.290  1.00 40.34    -0.000 A 
ATOM      7  CE1 PHE A  61     -38.355 127.388   8.404  1.00 41.51    -0.000 A 
ATOM      8  CD1 PHE A  61     -38.085 128.272   9.441  1.00 39.94    -0.004 A 
ENDBRANCH   2   3
ENDBRANCH   1   2
END_RES PHE A  61
BEGIN_RES VAL A 134
REMARK  1 active torsions:
REMARK  status: ('A' for Active; 'I' for Inactive)
REMARK    3  A    between atoms: CA   and  CB  
ROOT
ATOM      9  CA  VAL A 134     -29.766 132.051   9.815  1.00 40.75     0.159 C 
ENDROOT
BRANCH   9  10
ATOM     10  CB  VAL A 134     -30.864 132.765   9.009  1.00 40.76     0.029 C 
ATOM     11  CG1 VAL A 134     -30.990 132.160   7.618  1.00 41.76     0.002 C 
ATOM     12  CG2 VAL A 134     -32.201 132.736   9.734  1.00 40.56     0.002 C 
ENDBRANCH   9  10
END_RES VAL A 134
BEGIN_RES TYR A 338
REMARK  3 active torsions:
REMARK  status: ('A' for Active; 'I' for Inactive)
REMARK    4  A    between atoms: CA   and  CB  
REMARK    5  A    between atoms: CB   and  CG  
REMARK    6  A    between atoms: CZ   and  OH  
ROOT
ATOM     13  CA  TYR A 338     -41.631 124.950   6.058  1.00 38.23     0.164 C 
ENDROOT
BRANCH  13  14
ATOM     14  CB  TYR A 338     -41.621 126.456   6.339  1.00 39.15     0.058 C 
BRANCH  14  15
ATOM     15  CG  TYR A 338     -40.400 127.205   5.857  1.00 39.03    -0.020 A 
ATOM     16  CD2 TYR A 338     -40.231 128.544   6.168  1.00 40.65    -0.002 A 
ATOM     17  CE2 TYR A 338     -39.132 129.266   5.730  1.00 40.91     0.024 A 
ATOM     18  CZ  TYR A 338     -38.167 128.646   4.958  1.00 42.33     0.089 A 
ATOM     19  CE1 TYR A 338     -38.311 127.308   4.638  1.00 40.63     0.024 A 
ATOM     20  CD1 TYR A 338     -39.424 126.607   5.075  1.00 39.27    -0.002 A 
BRANCH  18  21
ATOM     21  OH  TYR A 338     -37.076 129.347   4.525  1.00 43.36    -0.359 OA
ATOM     22  HH  TYR A 338     -36.963 130.258   4.768  1.00  0.00     0.217 HD
ENDBRANCH  18  21
ENDBRANCH  14  15
ENDBRANCH  13  14
END_RES TYR A 338
ENDMDL
