MODEL 1
REMARK VINA RESULT:    -7.999      0.000      0.000
REMARK INTER + INTRA:         -11.842
REMARK INTER:                  -7.999
REMARK INTRA:                  -3.843
REMARK UNBOUND:                -3.843
REMARK  0 active torsions:
REMARK  status: ('A' for Active; 'I' for Inactive)
REMARK       I    between atoms: C3_3  and  O3_21 
REMARK       I    between atoms: C6_6  and  C7_7 
REMARK       I    between atoms: C8_8  and  C9_9 
REMARK       I    between atoms: C10_10  and  C11_11 
REMARK       I    between atoms: C12_12  and  C13_13 
REMARK       I    between atoms: C14_14  and  C15_15 
REMARK       I    between atoms: C23_25  and  O23_43 
REMARK       I    between atoms: C26_28  and  C27_29 
REMARK       I    between atoms: C28_30  and  C29_31 
REMARK       I    between atoms: C30_32  and  C31_33 
REMARK       I    between atoms: C32_34  and  C33_35 
REMARK       I    between atoms: C34_36  and  C35_37 
ROOT
HETATM    1  C1  STQ 31620     -50.038 142.385  13.082  1.00 70.34    -0.018 C 
HETATM    2  C2  STQ 31620     -50.077 143.052  14.442  1.00 70.34     0.045 C 
HETATM    3  C3  STQ 31620     -50.274 144.558  14.451  1.00 70.34     0.123 C 
HETATM    4  C4  STQ 31620     -49.423 145.271  13.416  1.00 70.34     0.066 C 
HETATM    5  C5  STQ 31620     -49.075 144.499  12.177  1.00 70.34    -0.074 C 
HETATM    6  C6  STQ 31620     -49.276 143.185  12.049  1.00 70.34    -0.048 C 
HETATM    7  C7  STQ 31620     -48.790 142.459  10.851  1.00 70.34     0.009 C 
HETATM    8  C8  STQ 31620     -47.616 141.837  10.815  1.00 70.34     0.007 C 
HETATM    9  C9  STQ 31620     -47.162 141.106   9.634  1.00 70.34    -0.062 C 
HETATM   10  C10 STQ 31620     -45.956 140.556   9.725  1.00 70.34     0.007 C 
HETATM   11  C11 STQ 31620     -45.318 139.766   8.694  1.00 70.34     0.001 C 
HETATM   12  C12 STQ 31620     -44.349 139.008   9.178  1.00 70.34     0.007 C 
HETATM   13  C13 STQ 31620     -43.543 138.090   8.374  1.00 70.34    -0.062 C 
HETATM   14  C14 STQ 31620     -42.642 137.365   9.027  1.00 70.34     0.007 C 
HETATM   15  C15 STQ 31620     -41.791 136.406   8.353  1.00 70.34     0.001 C 
HETATM   16  C16 STQ 31620     -51.466 142.113  12.630  1.00 70.34     0.020 C 
HETATM   17  C17 STQ 31620     -49.310 141.061  13.273  1.00 70.34     0.020 C 
HETATM   18  C18 STQ 31620     -48.191 145.266  11.237  1.00 70.34     0.044 C 
HETATM   19  C19 STQ 31620     -48.031 140.982   8.425  1.00 70.34     0.048 C 
HETATM   20  C20 STQ 31620     -43.726 137.972   6.893  1.00 70.34     0.048 C 
HETATM   21  O3  STQ 31620     -51.650 144.906  14.280  1.00 70.34    -0.395 OA
ATOM     22  H3  STQ 31620     -51.774 145.847  14.286  1.00  0.00     0.210 HD
HETATM   23  C21 STQ 31620     -34.387 126.590   5.909  1.00 70.34    -0.035 C 
HETATM   24  C22 STQ 31620     -33.895 125.850   4.675  1.00 70.34     0.045 C 
HETATM   25  C23 STQ 31620     -32.468 126.178   4.242  1.00 70.34     0.142 C 
HETATM   26  C24 STQ 31620     -32.134 127.635   4.431  1.00 70.34     0.007 C 
HETATM   27  C25 STQ 31620     -32.682 128.308   5.443  1.00 70.34    -0.077 C 
HETATM   28  C26 STQ 31620     -34.129 128.084   5.762  1.00 70.34     0.044 C 
HETATM   29  C27 STQ 31620     -34.529 128.807   7.020  1.00 70.34    -0.016 C 
HETATM   30  C28 STQ 31620     -35.346 129.836   6.877  1.00 70.34     0.003 C 
HETATM   31  C29 STQ 31620     -35.818 130.619   8.021  1.00 70.34    -0.062 C 
HETATM   32  C30 STQ 31620     -36.797 131.481   7.769  1.00 70.34     0.007 C 
HETATM   33  C31 STQ 31620     -37.408 132.344   8.763  1.00 70.34     0.001 C 
HETATM   34  C32 STQ 31620     -38.369 133.102   8.263  1.00 70.34     0.007 C 
HETATM   35  C33 STQ 31620     -39.145 134.060   9.050  1.00 70.34    -0.062 C 
HETATM   36  C34 STQ 31620     -40.124 134.704   8.418  1.00 70.34     0.007 C 
HETATM   37  C35 STQ 31620     -40.966 135.675   9.090  1.00 70.34     0.001 C 
HETATM   38  C36 STQ 31620     -33.740 126.035   7.173  1.00 70.34     0.016 C 
HETATM   39  C37 STQ 31620     -35.884 126.356   6.019  1.00 70.34     0.016 C 
HETATM   40  C38 STQ 31620     -31.831 129.246   6.248  1.00 70.34     0.044 C 
HETATM   41  C39 STQ 31620     -35.233 130.450   9.389  1.00 70.34     0.048 C 
HETATM   42  C40 STQ 31620     -38.839 134.301  10.491  1.00 70.34     0.048 C 
HETATM   43  O23 STQ 31620     -32.325 125.854   2.862  1.00 70.34    -0.392 OA
ATOM     44  H23 STQ 31620     -31.437 126.059   2.592  1.00  0.00     0.210 HD
ENDROOT
TORSDOF 12
BEGIN_RES PHE A  61
REMARK  2 active torsions:
REMARK  status: ('A' for Active; 'I' for Inactive)
REMARK    1  A    between atoms: CA   and  CB  
REMARK    2  A    between atoms: CB   and  CG  
ROOT
ATOM      1  CA  PHE A  61     -36.237 128.293  12.768  1.00 39.40     0.164 C 
ENDROOT
BRANCH   1   2
ATOM      2  CB  PHE A  61     -36.813 128.951  11.509  1.00 39.41     0.058 C 
BRANCH   2   3
ATOM      3  CG  PHE A  61     -36.984 128.014  10.337  1.00 39.01    -0.020 A 
ATOM      4  CD2 PHE A  61     -36.095 126.971  10.125  1.00 40.32    -0.004 A 
ATOM      5  CE2 PHE A  61     -36.252 126.112   9.044  1.00 40.20    -0.000 A 
ATOM      6  CZ  PHE A  61     -37.299 126.282   8.168  1.00 40.34    -0.000 A 
ATOM      7  CE1 PHE A  61     -38.192 127.312   8.367  1.00 41.51    -0.000 A 
ATOM      8  CD1 PHE A  61     -38.032 128.175   9.443  1.00 39.94    -0.004 A 
ENDBRANCH   2   3
ENDBRANCH   1   2
END_RES PHE A  61
BEGIN_RES VAL A 134
REMARK  1 active torsions:
REMARK  status: ('A' for Active; 'I' for Inactive)
REMARK    3  A    between atoms: CA   and  CB  
ROOT
ATOM      9  CA  VAL A 134     -29.766 132.051   9.815  1.00 40.75     0.159 C 
ENDROOT
BRANCH   9  10
ATOM     10  CB  VAL A 134     -30.864 132.765   9.009  1.00 40.76     0.029 C 
ATOM     11  CG1 VAL A 134     -30.868 132.287   7.564  1.00 41.76     0.002 C 
ATOM     12  CG2 VAL A 134     -32.234 132.582   9.643  1.00 40.56     0.002 C 
ENDBRANCH   9  10
END_RES VAL A 134
BEGIN_RES TYR A 338
REMARK  3 active torsions:
REMARK  status: ('A' for Active; 'I' for Inactive)
REMARK    4  A    between atoms: CA   and  CB  
REMARK    5  A    between atoms: CB   and  CG  
REMARK    6  A    between atoms: CZ   and  OH  
ROOT
ATOM     13  CA  TYR A 338     -41.631 124.950   6.058  1.00 38.23     0.164 C 
ENDROOT
BRANCH  13  14
ATOM     14  CB  TYR A 338     -41.621 126.456   6.339  1.00 39.15     0.058 C 
BRANCH  14  15
ATOM     15  CG  TYR A 338     -40.412 127.210   5.834  1.00 39.03    -0.020 A 
ATOM     16  CD2 TYR A 338     -40.239 128.547   6.148  1.00 40.65    -0.002 A 
ATOM     17  CE2 TYR A 338     -39.150 129.273   5.689  1.00 40.91     0.024 A 
ATOM     18  CZ  TYR A 338     -38.201 128.658   4.894  1.00 42.33     0.089 A 
ATOM     19  CE1 TYR A 338     -38.350 127.321   4.571  1.00 40.63     0.024 A 
ATOM     20  CD1 TYR A 338     -39.452 126.616   5.029  1.00 39.27    -0.002 A 
BRANCH  18  21
ATOM     21  OH  TYR A 338     -37.122 129.363   4.440  1.00 43.36    -0.359 OA
ATOM     22  HH  TYR A 338     -37.152 129.798   3.595  1.00  0.00     0.217 HD
ENDBRANCH  18  21
ENDBRANCH  14  15
ENDBRANCH  13  14
END_RES TYR A 338
ENDMDL
MODEL 2
REMARK VINA RESULT:    -7.789      1.793      2.314
REMARK INTER + INTRA:         -11.631
REMARK INTER:                 -11.340
REMARK INTRA:                  -0.292
REMARK UNBOUND:                -3.843
REMARK  0 active torsions:
REMARK  status: ('A' for Active; 'I' for Inactive)
REMARK       I    between atoms: C3_3  and  O3_21 
REMARK       I    between atoms: C6_6  and  C7_7 
REMARK       I    between atoms: C8_8  and  C9_9 
REMARK       I    between atoms: C10_10  and  C11_11 
REMARK       I    between atoms: C12_12  and  C13_13 
REMARK       I    between atoms: C14_14  and  C15_15 
REMARK       I    between atoms: C23_25  and  O23_43 
REMARK       I    between atoms: C26_28  and  C27_29 
REMARK       I    between atoms: C28_30  and  C29_31 
REMARK       I    between atoms: C30_32  and  C31_33 
REMARK       I    between atoms: C32_34  and  C33_35 
REMARK       I    between atoms: C34_36  and  C35_37 
ROOT
HETATM    1  C1  STQ 31620     -49.991 145.023  11.758  1.00 70.34    -0.018 C 
HETATM    2  C2  STQ 31620     -50.472 145.436  13.135  1.00 70.34     0.045 C 
HETATM    3  C3  STQ 31620     -50.531 146.928  13.411  1.00 70.34     0.123 C 
HETATM    4  C4  STQ 31620     -49.301 147.668  12.917  1.00 70.34     0.066 C 
HETATM    5  C5  STQ 31620     -48.588 147.084  11.733  1.00 70.34    -0.074 C 
HETATM    6  C6  STQ 31620     -48.838 145.862  11.254  1.00 70.34    -0.048 C 
HETATM    7  C7  STQ 31620     -48.009 145.292  10.166  1.00 70.34     0.009 C 
HETATM    8  C8  STQ 31620     -46.961 144.508  10.397  1.00 70.34     0.007 C 
HETATM    9  C9  STQ 31620     -46.168 143.934   9.311  1.00 70.34    -0.062 C 
HETATM   10  C10 STQ 31620     -45.131 143.193   9.685  1.00 70.34     0.007 C 
HETATM   11  C11 STQ 31620     -44.227 142.507   8.786  1.00 70.34     0.001 C 
HETATM   12  C12 STQ 31620     -43.573 141.530   9.391  1.00 70.34     0.007 C 
HETATM   13  C13 STQ 31620     -42.607 140.653   8.729  1.00 70.34    -0.062 C 
HETATM   14  C14 STQ 31620     -42.075 139.690   9.472  1.00 70.34     0.007 C 
HETATM   15  C15 STQ 31620     -41.120 138.742   8.934  1.00 70.34     0.001 C 
HETATM   16  C16 STQ 31620     -51.170 145.066  10.796  1.00 70.34     0.020 C 
HETATM   17  C17 STQ 31620     -49.499 143.588  11.886  1.00 70.34     0.020 C 
HETATM   18  C18 STQ 31620     -47.358 147.854  11.349  1.00 70.34     0.044 C 
HETATM   19  C19 STQ 31620     -46.537 144.167   7.883  1.00 70.34     0.048 C 
HETATM   20  C20 STQ 31620     -42.242 140.830   7.288  1.00 70.34     0.048 C 
HETATM   21  O3  STQ 31620     -51.712 147.515  12.861  1.00 70.34    -0.395 OA
ATOM     22  H3  STQ 31620     -51.750 148.449  13.034  1.00  0.00     0.210 HD
HETATM   23  C21 STQ 31620     -34.195 128.464   7.052  1.00 70.34    -0.035 C 
HETATM   24  C22 STQ 31620     -33.347 127.886   5.930  1.00 70.34     0.045 C 
HETATM   25  C23 STQ 31620     -31.839 128.054   6.096  1.00 70.34     0.142 C 
HETATM   26  C24 STQ 31620     -31.476 129.382   6.708  1.00 70.34     0.007 C 
HETATM   27  C25 STQ 31620     -32.299 129.944   7.594  1.00 70.34    -0.077 C 
HETATM   28  C26 STQ 31620     -33.775 129.900   7.339  1.00 70.34     0.044 C 
HETATM   29  C27 STQ 31620     -34.548 130.442   8.512  1.00 70.34    -0.016 C 
HETATM   30  C28 STQ 31620     -35.165 131.597   8.330  1.00 70.34     0.003 C 
HETATM   31  C29 STQ 31620     -35.957 132.230   9.387  1.00 70.34    -0.062 C 
HETATM   32  C30 STQ 31620     -36.698 133.267   9.014  1.00 70.34     0.007 C 
HETATM   33  C31 STQ 31620     -37.556 134.026   9.905  1.00 70.34     0.001 C 
HETATM   34  C32 STQ 31620     -38.198 135.005   9.288  1.00 70.34     0.007 C 
HETATM   35  C33 STQ 31620     -39.125 135.919   9.954  1.00 70.34    -0.062 C 
HETATM   36  C34 STQ 31620     -39.744 136.812   9.185  1.00 70.34     0.007 C 
HETATM   37  C35 STQ 31620     -40.689 137.770   9.727  1.00 70.34     0.001 C 
HETATM   38  C36 STQ 31620     -34.108 127.598   8.304  1.00 70.34     0.016 C 
HETATM   39  C37 STQ 31620     -35.641 128.456   6.587  1.00 70.34     0.016 C 
HETATM   40  C38 STQ 31620     -31.729 130.576   8.829  1.00 70.34     0.044 C 
HETATM   41  C39 STQ 31620     -35.933 131.730  10.799  1.00 70.34     0.048 C 
HETATM   42  C40 STQ 31620     -39.352 135.849  11.428  1.00 70.34     0.048 C 
HETATM   43  O23 STQ 31620     -31.226 127.961   4.813  1.00 70.34    -0.392 OA
ATOM     44  H23 STQ 31620     -30.287 128.066   4.917  1.00  0.00     0.210 HD
ENDROOT
TORSDOF 12
BEGIN_RES PHE A  61
REMARK  2 active torsions:
REMARK  status: ('A' for Active; 'I' for Inactive)
REMARK    1  A    between atoms: CA   and  CB  
REMARK    2  A    between atoms: CB   and  CG  
ROOT
ATOM      1  CA  PHE A  61     -36.237 128.293  12.768  1.00 39.40     0.164 C 
ENDROOT
BRANCH   1   2
ATOM      2  CB  PHE A  61     -36.813 128.951  11.509  1.00 39.41     0.058 C 
BRANCH   2   3
ATOM      3  CG  PHE A  61     -37.017 128.006  10.349  1.00 39.01    -0.020 A 
ATOM      4  CD2 PHE A  61     -36.260 126.851  10.230  1.00 40.32    -0.004 A 
ATOM      5  CE2 PHE A  61     -36.447 125.985   9.160  1.00 40.20    -0.000 A 
ATOM      6  CZ  PHE A  61     -37.394 126.261   8.201  1.00 40.34    -0.000 A 
ATOM      7  CE1 PHE A  61     -38.156 127.403   8.306  1.00 41.51    -0.000 A 
ATOM      8  CD1 PHE A  61     -37.965 128.273   9.371  1.00 39.94    -0.004 A 
ENDBRANCH   2   3
ENDBRANCH   1   2
END_RES PHE A  61
BEGIN_RES VAL A 134
REMARK  1 active torsions:
REMARK  status: ('A' for Active; 'I' for Inactive)
REMARK    3  A    between atoms: CA   and  CB  
ROOT
ATOM      9  CA  VAL A 134     -29.766 132.051   9.815  1.00 40.75     0.159 C 
ENDROOT
BRANCH   9  10
ATOM     10  CB  VAL A 134     -30.864 132.765   9.009  1.00 40.76     0.029 C 
ATOM     11  CG1 VAL A 134     -32.072 133.057   9.887  1.00 41.76     0.002 C 
ATOM     12  CG2 VAL A 134     -30.346 134.040   8.361  1.00 40.56     0.002 C 
ENDBRANCH   9  10
END_RES VAL A 134
BEGIN_RES TYR A 338
REMARK  3 active torsions:
REMARK  status: ('A' for Active; 'I' for Inactive)
REMARK    4  A    between atoms: CA   and  CB  
REMARK    5  A    between atoms: CB   and  CG  
REMARK    6  A    between atoms: CZ   and  OH  
ROOT
ATOM     13  CA  TYR A 338     -41.631 124.950   6.058  1.00 38.23     0.164 C 
ENDROOT
BRANCH  13  14
ATOM     14  CB  TYR A 338     -41.621 126.456   6.339  1.00 39.15     0.058 C 
BRANCH  14  15
ATOM     15  CG  TYR A 338     -40.425 127.214   5.811  1.00 39.03    -0.020 A 
ATOM     16  CD2 TYR A 338     -40.277 128.564   6.079  1.00 40.65    -0.002 A 
ATOM     17  CE2 TYR A 338     -39.201 129.294   5.598  1.00 40.91     0.024 A 
ATOM     18  CZ  TYR A 338     -38.240 128.671   4.824  1.00 42.33     0.089 A 
ATOM     19  CE1 TYR A 338     -38.363 127.321   4.546  1.00 40.63     0.024 A 
ATOM     20  CD1 TYR A 338     -39.454 126.612   5.026  1.00 39.27    -0.002 A 
BRANCH  18  21
ATOM     21  OH  TYR A 338     -37.172 129.379   4.348  1.00 43.36    -0.359 OA
ATOM     22  HH  TYR A 338     -37.091 130.308   4.532  1.00  0.00     0.217 HD
ENDBRANCH  18  21
ENDBRANCH  14  15
ENDBRANCH  13  14
END_RES TYR A 338
ENDMDL
MODEL 3
REMARK VINA RESULT:    -7.670      2.287     16.688
REMARK INTER + INTRA:         -11.513
REMARK INTER:                 -10.176
REMARK INTRA:                  -1.337
REMARK UNBOUND:                -3.843
REMARK  0 active torsions:
REMARK  status: ('A' for Active; 'I' for Inactive)
REMARK       I    between atoms: C3_3  and  O3_21 
REMARK       I    between atoms: C6_6  and  C7_7 
REMARK       I    between atoms: C8_8  and  C9_9 
REMARK       I    between atoms: C10_10  and  C11_11 
REMARK       I    between atoms: C12_12  and  C13_13 
REMARK       I    between atoms: C14_14  and  C15_15 
REMARK       I    between atoms: C23_25  and  O23_43 
REMARK       I    between atoms: C26_28  and  C27_29 
REMARK       I    between atoms: C28_30  and  C29_31 
REMARK       I    between atoms: C30_32  and  C31_33 
REMARK       I    between atoms: C32_34  and  C33_35 
REMARK       I    between atoms: C34_36  and  C35_37 
ROOT
HETATM    1  C1  STQ 31620     -34.273 128.812   6.688  1.00 70.34    -0.018 C 
HETATM    2  C2  STQ 31620     -33.358 128.632   5.493  1.00 70.34     0.045 C 
HETATM    3  C3  STQ 31620     -31.889 128.388   5.797  1.00 70.34     0.123 C 
HETATM    4  C4  STQ 31620     -31.351 129.306   6.879  1.00 70.34     0.066 C 
HETATM    5  C5  STQ 31620     -32.330 129.786   7.910  1.00 70.34    -0.074 C 
HETATM    6  C6  STQ 31620     -33.653 129.637   7.793  1.00 70.34    -0.048 C 
HETATM    7  C7  STQ 31620     -34.573 130.250   8.781  1.00 70.34     0.009 C 
HETATM    8  C8  STQ 31620     -35.133 131.441   8.598  1.00 70.34     0.007 C 
HETATM    9  C9  STQ 31620     -36.057 132.020   9.571  1.00 70.34    -0.062 C 
HETATM   10  C10 STQ 31620     -36.521 133.230   9.276  1.00 70.34     0.007 C 
HETATM   11  C11 STQ 31620     -37.465 133.981  10.077  1.00 70.34     0.001 C 
HETATM   12  C12 STQ 31620     -38.068 134.925   9.376  1.00 70.34     0.007 C 
HETATM   13  C13 STQ 31620     -39.085 135.828   9.916  1.00 70.34    -0.062 C 
HETATM   14  C14 STQ 31620     -39.626 136.689   9.062  1.00 70.34     0.007 C 
HETATM   15  C15 STQ 31620     -40.656 137.625   9.462  1.00 70.34     0.001 C 
HETATM   16  C16 STQ 31620     -34.695 127.439   7.191  1.00 70.34     0.020 C 
HETATM   17  C17 STQ 31620     -35.499 129.561   6.182  1.00 70.34     0.020 C 
HETATM   18  C18 STQ 31620     -31.719 130.726   8.908  1.00 70.34     0.044 C 
HETATM   19  C19 STQ 31620     -36.453 131.266  10.799  1.00 70.34     0.048 C 
HETATM   20  C20 STQ 31620     -39.496 135.781  11.354  1.00 70.34     0.048 C 
HETATM   21  O3  STQ 31620     -31.647 127.024   6.144  1.00 70.34    -0.395 OA
ATOM     22  H3  STQ 31620     -30.729 126.870   6.334  1.00  0.00     0.210 HD
HETATM   23  C21 STQ 31620     -50.397 145.514   9.317  1.00 70.34    -0.035 C 
HETATM   24  C22 STQ 31620     -51.337 146.137  10.337  1.00 70.34     0.045 C 
HETATM   25  C23 STQ 31620     -51.032 147.586  10.710  1.00 70.34     0.142 C 
HETATM   26  C24 STQ 31620     -49.552 147.857  10.784  1.00 70.34     0.007 C 
HETATM   27  C25 STQ 31620     -48.723 147.201   9.973  1.00 70.34    -0.077 C 
HETATM   28  C26 STQ 31620     -48.949 145.739   9.735  1.00 70.34     0.044 C 
HETATM   29  C27 STQ 31620     -48.016 145.207   8.680  1.00 70.34    -0.016 C 
HETATM   30  C28 STQ 31620     -47.074 144.374   9.089  1.00 70.34     0.003 C 
HETATM   31  C29 STQ 31620     -46.108 143.779   8.163  1.00 70.34    -0.062 C 
HETATM   32  C30 STQ 31620     -45.359 142.800   8.658  1.00 70.34     0.007 C 
HETATM   33  C31 STQ 31620     -44.350 142.077   7.906  1.00 70.34     0.001 C 
HETATM   34  C32 STQ 31620     -43.748 141.142   8.622  1.00 70.34     0.007 C 
HETATM   35  C33 STQ 31620     -42.695 140.270   8.105  1.00 70.34    -0.062 C 
HETATM   36  C34 STQ 31620     -42.232 139.332   8.929  1.00 70.34     0.007 C 
HETATM   37  C35 STQ 31620     -41.191 138.404   8.531  1.00 70.34     0.001 C 
HETATM   38  C36 STQ 31620     -50.666 146.064   7.921  1.00 70.34     0.016 C 
HETATM   39  C37 STQ 31620     -50.676 144.022   9.286  1.00 70.34     0.016 C 
HETATM   40  C38 STQ 31620     -47.607 147.947   9.302  1.00 70.34     0.044 C 
HETATM   41  C39 STQ 31620     -45.981 144.245   6.746  1.00 70.34     0.048 C 
HETATM   42  C40 STQ 31620     -42.165 140.439   6.719  1.00 70.34     0.048 C 
HETATM   43  O23 STQ 31620     -51.610 147.861  11.983  1.00 70.34    -0.392 OA
ATOM     44  H23 STQ 31620     -51.420 148.762  12.214  1.00  0.00     0.210 HD
ENDROOT
TORSDOF 12
BEGIN_RES PHE A  61
REMARK  2 active torsions:
REMARK  status: ('A' for Active; 'I' for Inactive)
REMARK    1  A    between atoms: CA   and  CB  
REMARK    2  A    between atoms: CB   and  CG  
ROOT
ATOM      1  CA  PHE A  61     -36.237 128.293  12.768  1.00 39.40     0.164 C 
ENDROOT
BRANCH   1   2
ATOM      2  CB  PHE A  61     -36.813 128.951  11.509  1.00 39.41     0.058 C 
BRANCH   2   3
ATOM      3  CG  PHE A  61     -36.931 128.027  10.320  1.00 39.01    -0.020 A 
ATOM      4  CD2 PHE A  61     -36.052 126.969  10.152  1.00 40.32    -0.004 A 
ATOM      5  CE2 PHE A  61     -36.160 126.122   9.056  1.00 40.20    -0.000 A 
ATOM      6  CZ  PHE A  61     -37.148 126.321   8.120  1.00 40.34    -0.000 A 
ATOM      7  CE1 PHE A  61     -38.031 127.367   8.274  1.00 41.51    -0.000 A 
ATOM      8  CD1 PHE A  61     -37.920 128.218   9.366  1.00 39.94    -0.004 A 
ENDBRANCH   2   3
ENDBRANCH   1   2
END_RES PHE A  61
BEGIN_RES VAL A 134
REMARK  1 active torsions:
REMARK  status: ('A' for Active; 'I' for Inactive)
REMARK    3  A    between atoms: CA   and  CB  
ROOT
ATOM      9  CA  VAL A 134     -29.766 132.051   9.815  1.00 40.75     0.159 C 
ENDROOT
BRANCH   9  10
ATOM     10  CB  VAL A 134     -30.864 132.765   9.009  1.00 40.76     0.029 C 
ATOM     11  CG1 VAL A 134     -32.071 133.060   9.888  1.00 41.76     0.002 C 
ATOM     12  CG2 VAL A 134     -30.345 134.038   8.359  1.00 40.56     0.002 C 
ENDBRANCH   9  10
END_RES VAL A 134
BEGIN_RES TYR A 338
REMARK  3 active torsions:
REMARK  status: ('A' for Active; 'I' for Inactive)
REMARK    4  A    between atoms: CA   and  CB  
REMARK    5  A    between atoms: CB   and  CG  
REMARK    6  A    between atoms: CZ   and  OH  
ROOT
ATOM     13  CA  TYR A 338     -41.631 124.950   6.058  1.00 38.23     0.164 C 
ENDROOT
BRANCH  13  14
ATOM     14  CB  TYR A 338     -41.621 126.456   6.339  1.00 39.15     0.058 C 
BRANCH  14  15
ATOM     15  CG  TYR A 338     -40.426 127.214   5.809  1.00 39.03    -0.020 A 
ATOM     16  CD2 TYR A 338     -39.453 126.562   5.071  1.00 40.65    -0.002 A 
ATOM     17  CE2 TYR A 338     -38.336 127.223   4.583  1.00 40.91     0.024 A 
ATOM     18  CZ  TYR A 338     -38.173 128.572   4.834  1.00 42.33     0.089 A 
ATOM     19  CE1 TYR A 338     -39.134 129.247   5.566  1.00 40.63     0.024 A 
ATOM     20  CD1 TYR A 338     -40.237 128.565   6.056  1.00 39.27    -0.002 A 
BRANCH  18  21
ATOM     21  OH  TYR A 338     -37.078 129.235   4.354  1.00 43.36    -0.359 OA
ATOM     22  HH  TYR A 338     -37.026 129.476   3.437  1.00  0.00     0.217 HD
ENDBRANCH  18  21
ENDBRANCH  14  15
ENDBRANCH  13  14
END_RES TYR A 338
ENDMDL
