MODEL 1
REMARK VINA RESULT:    -9.065      0.000      0.000
REMARK INTER + INTRA:         -11.803
REMARK INTER:                  -9.065
REMARK INTRA:                  -2.738
REMARK UNBOUND:                -2.738
REMARK  0 active torsions:
REMARK  status: ('A' for Active; 'I' for Inactive)
REMARK       I    between atoms: C3_3  and  O3_21 
REMARK       I    between atoms: C6_6  and  C7_7 
REMARK       I    between atoms: C8_8  and  C9_9 
REMARK       I    between atoms: C10_10  and  C11_11 
REMARK       I    between atoms: C12_12  and  C13_13 
REMARK       I    between atoms: C14_14  and  C15_15 
REMARK       I    between atoms: C23_25  and  O23_43 
REMARK       I    between atoms: C26_28  and  C27_29 
REMARK       I    between atoms: C28_30  and  C29_31 
REMARK       I    between atoms: C30_32  and  C31_33 
REMARK       I    between atoms: C32_34  and  C33_35 
REMARK       I    between atoms: C34_36  and  C35_37 
ROOT
HETATM    1  C1  STQ 21620     -34.481 128.117   6.524  1.00 97.95    -0.018 C 
HETATM    2  C2  STQ 21620     -33.674 127.854   5.256  1.00 97.95     0.045 C 
HETATM    3  C3  STQ 21620     -32.287 128.469   5.172  1.00 97.95     0.123 C 
HETATM    4  C4  STQ 21620     -31.593 128.465   6.515  1.00 97.95     0.066 C 
HETATM    5  C5  STQ 21620     -32.454 129.185   7.509  1.00 97.95    -0.074 C 
HETATM    6  C6  STQ 21620     -33.779 129.002   7.537  1.00 97.95    -0.048 C 
HETATM    7  C7  STQ 21620     -34.609 129.664   8.571  1.00 97.95     0.009 C 
HETATM    8  C8  STQ 21620     -35.122 130.878   8.375  1.00 97.95     0.007 C 
HETATM    9  C9  STQ 21620     -35.959 131.549   9.372  1.00 97.95    -0.062 C 
HETATM   10  C10 STQ 21620     -36.482 132.719   9.018  1.00 97.95     0.007 C 
HETATM   11  C11 STQ 21620     -37.345 133.505   9.880  1.00 97.95     0.001 C 
HETATM   12  C12 STQ 21620     -37.753 134.641   9.341  1.00 97.95     0.007 C 
HETATM   13  C13 STQ 21620     -38.655 135.581  10.014  1.00 97.95    -0.062 C 
HETATM   14  C14 STQ 21620     -39.223 136.492   9.225  1.00 97.95     0.007 C 
HETATM   15  C15 STQ 21620     -40.174 137.476   9.703  1.00 97.95     0.001 C 
HETATM   16  C16 STQ 21620     -34.827 126.755   7.117  1.00 97.95     0.020 C 
HETATM   17  C17 STQ 21620     -35.772 128.819   6.124  1.00 97.95     0.020 C 
HETATM   18  C18 STQ 21620     -31.722 130.004   8.531  1.00 97.95     0.044 C 
HETATM   19  C19 STQ 21620     -36.210 130.939  10.717  1.00 97.95     0.048 C 
HETATM   20  C20 STQ 21620     -38.934 135.514  11.485  1.00 97.95     0.048 C 
HETATM   21  O3  STQ 21620     -31.493 127.700   4.261  1.00 97.95    -0.395 OA
ATOM     22  H3  STQ 21620     -30.625 128.085   4.209  1.00  0.00     0.210 HD
HETATM   23  C21 STQ 21620     -49.971 145.346   8.926  1.00 97.95    -0.035 C 
HETATM   24  C22 STQ 21620     -50.898 146.135   9.838  1.00 97.95     0.045 C 
HETATM   25  C23 STQ 21620     -50.594 147.624   9.887  1.00 97.95     0.142 C 
HETATM   26  C24 STQ 21620     -49.115 147.879  10.039  1.00 97.95     0.007 C 
HETATM   27  C25 STQ 21620     -48.201 147.040   9.534  1.00 97.95    -0.077 C 
HETATM   28  C26 STQ 21620     -48.513 145.579   9.330  1.00 97.95     0.044 C 
HETATM   29  C27 STQ 21620     -47.594 144.970   8.300  1.00 97.95    -0.016 C 
HETATM   30  C28 STQ 21620     -46.770 144.026   8.726  1.00 97.95     0.003 C 
HETATM   31  C29 STQ 21620     -45.832 143.326   7.846  1.00 97.95    -0.062 C 
HETATM   32  C30 STQ 21620     -45.091 142.393   8.434  1.00 97.95     0.007 C 
HETATM   33  C31 STQ 21620     -44.108 141.564   7.765  1.00 97.95     0.001 C 
HETATM   34  C32 STQ 21620     -43.507 140.730   8.596  1.00 97.95     0.007 C 
HETATM   35  C33 STQ 21620     -42.484 139.778   8.170  1.00 97.95    -0.062 C 
HETATM   36  C34 STQ 21620     -41.941 139.008   9.112  1.00 97.95     0.007 C 
HETATM   37  C35 STQ 21620     -40.929 138.028   8.765  1.00 97.95     0.001 C 
HETATM   38  C36 STQ 21620     -50.218 145.700   7.464  1.00 97.95     0.016 C 
HETATM   39  C37 STQ 21620     -50.330 143.875   9.107  1.00 97.95     0.016 C 
HETATM   40  C38 STQ 21620     -46.851 147.592   9.182  1.00 97.95     0.044 C 
HETATM   41  C39 STQ 21620     -45.725 143.635   6.383  1.00 97.95     0.048 C 
HETATM   42  C40 STQ 21620     -42.074 139.686   6.735  1.00 97.95     0.048 C 
HETATM   43  O23 STQ 21620     -51.275 148.179  11.012  1.00 97.95    -0.392 OA
ATOM     44  H23 STQ 21620     -52.206 148.018  10.917  1.00  0.00     0.210 HD
ENDROOT
TORSDOF 12
BEGIN_RES PHE A  61
REMARK  2 active torsions:
REMARK  status: ('A' for Active; 'I' for Inactive)
REMARK    1  A    between atoms: CA   and  CB  
REMARK    2  A    between atoms: CB   and  CG  
ROOT
ATOM      1  CA  PHE A  61     -36.237 128.293  12.768  1.00 39.40     0.164 C 
ENDROOT
BRANCH   1   2
ATOM      2  CB  PHE A  61     -36.813 128.951  11.509  1.00 39.41     0.058 C 
BRANCH   2   3
ATOM      3  CG  PHE A  61     -37.024 128.005  10.351  1.00 39.01    -0.020 A 
ATOM      4  CD2 PHE A  61     -36.273 126.846  10.233  1.00 40.32    -0.004 A 
ATOM      5  CE2 PHE A  61     -36.466 125.978   9.165  1.00 40.20    -0.000 A 
ATOM      6  CZ  PHE A  61     -37.415 126.256   8.208  1.00 40.34    -0.000 A 
ATOM      7  CE1 PHE A  61     -38.172 127.402   8.313  1.00 41.51    -0.000 A 
ATOM      8  CD1 PHE A  61     -37.974 128.274   9.376  1.00 39.94    -0.004 A 
ENDBRANCH   2   3
ENDBRANCH   1   2
END_RES PHE A  61
BEGIN_RES VAL A 134
REMARK  1 active torsions:
REMARK  status: ('A' for Active; 'I' for Inactive)
REMARK    3  A    between atoms: CA   and  CB  
ROOT
ATOM      9  CA  VAL A 134     -29.766 132.051   9.815  1.00 40.75     0.159 C 
ENDROOT
BRANCH   9  10
ATOM     10  CB  VAL A 134     -30.864 132.765   9.009  1.00 40.76     0.029 C 
ATOM     11  CG1 VAL A 134     -30.874 132.281   7.567  1.00 41.76     0.002 C 
ATOM     12  CG2 VAL A 134     -32.233 132.589   9.648  1.00 40.56     0.002 C 
ENDBRANCH   9  10
END_RES VAL A 134
BEGIN_RES TYR A 338
REMARK  3 active torsions:
REMARK  status: ('A' for Active; 'I' for Inactive)
REMARK    4  A    between atoms: CA   and  CB  
REMARK    5  A    between atoms: CB   and  CG  
REMARK    6  A    between atoms: CZ   and  OH  
ROOT
ATOM     13  CA  TYR A 338     -41.631 124.950   6.058  1.00 38.23     0.164 C 
ENDROOT
BRANCH  13  14
ATOM     14  CB  TYR A 338     -41.621 126.456   6.339  1.00 39.15     0.058 C 
BRANCH  14  15
ATOM     15  CG  TYR A 338     -40.436 127.218   5.791  1.00 39.03    -0.020 A 
ATOM     16  CD2 TYR A 338     -40.292 128.570   6.050  1.00 40.65    -0.002 A 
ATOM     17  CE2 TYR A 338     -39.227 129.303   5.550  1.00 40.91     0.024 A 
ATOM     18  CZ  TYR A 338     -38.272 128.681   4.769  1.00 42.33     0.089 A 
ATOM     19  CE1 TYR A 338     -38.391 127.329   4.500  1.00 40.63     0.024 A 
ATOM     20  CD1 TYR A 338     -39.471 126.616   4.998  1.00 39.27    -0.002 A 
BRANCH  18  21
ATOM     21  OH  TYR A 338     -37.215 129.393   4.275  1.00 43.36    -0.359 OA
ATOM     22  HH  TYR A 338     -36.599 128.986   3.676  1.00  0.00     0.217 HD
ENDBRANCH  18  21
ENDBRANCH  14  15
ENDBRANCH  13  14
END_RES TYR A 338
ENDMDL
MODEL 2
REMARK VINA RESULT:    -7.968      1.936     16.557
REMARK INTER + INTRA:         -10.706
REMARK INTER:                 -10.318
REMARK INTRA:                  -0.388
REMARK UNBOUND:                -2.738
REMARK  0 active torsions:
REMARK  status: ('A' for Active; 'I' for Inactive)
REMARK       I    between atoms: C3_3  and  O3_21 
REMARK       I    between atoms: C6_6  and  C7_7 
REMARK       I    between atoms: C8_8  and  C9_9 
REMARK       I    between atoms: C10_10  and  C11_11 
REMARK       I    between atoms: C12_12  and  C13_13 
REMARK       I    between atoms: C14_14  and  C15_15 
REMARK       I    between atoms: C23_25  and  O23_43 
REMARK       I    between atoms: C26_28  and  C27_29 
REMARK       I    between atoms: C28_30  and  C29_31 
REMARK       I    between atoms: C30_32  and  C31_33 
REMARK       I    between atoms: C32_34  and  C33_35 
REMARK       I    between atoms: C34_36  and  C35_37 
ROOT
HETATM    1  C1  STQ 21620     -50.311 144.004  12.967  1.00 97.95    -0.018 C 
HETATM    2  C2  STQ 21620     -50.689 144.344  14.404  1.00 97.95     0.045 C 
HETATM    3  C3  STQ 21620     -49.988 145.528  15.049  1.00 97.95     0.123 C 
HETATM    4  C4  STQ 21620     -49.745 146.641  14.055  1.00 97.95     0.066 C 
HETATM    5  C5  STQ 21620     -48.959 146.099  12.900  1.00 97.95    -0.074 C 
HETATM    6  C6  STQ 21620     -49.239 144.900  12.376  1.00 97.95    -0.048 C 
HETATM    7  C7  STQ 21620     -48.502 144.408  11.188  1.00 97.95     0.009 C 
HETATM    8  C8  STQ 21620     -47.372 143.713  11.312  1.00 97.95     0.007 C 
HETATM    9  C9  STQ 21620     -46.632 143.200  10.157  1.00 97.95    -0.062 C 
HETATM   10  C10 STQ 21620     -45.569 142.445  10.420  1.00 97.95     0.007 C 
HETATM   11  C11 STQ 21620     -44.737 141.847   9.392  1.00 97.95     0.001 C 
HETATM   12  C12 STQ 21620     -43.724 141.140   9.865  1.00 97.95     0.007 C 
HETATM   13  C13 STQ 21620     -42.771 140.421   9.014  1.00 97.95    -0.062 C 
HETATM   14  C14 STQ 21620     -42.029 139.505   9.636  1.00 97.95     0.007 C 
HETATM   15  C15 STQ 21620     -41.064 138.666   8.954  1.00 97.95     0.001 C 
HETATM   16  C16 STQ 21620     -51.597 144.057  12.147  1.00 97.95     0.020 C 
HETATM   17  C17 STQ 21620     -49.776 142.578  12.944  1.00 97.95     0.020 C 
HETATM   18  C18 STQ 21620     -47.948 147.034  12.305  1.00 97.95     0.044 C 
HETATM   19  C19 STQ 21620     -47.061 143.511   8.756  1.00 97.95     0.048 C 
HETATM   20  C20 STQ 21620     -42.649 140.683   7.544  1.00 97.95     0.048 C 
HETATM   21  O3  STQ 21620     -50.814 146.043  16.099  1.00 97.95    -0.395 OA
ATOM     22  H3  STQ 21620     -50.375 146.783  16.502  1.00  0.00     0.210 HD
HETATM   23  C21 STQ 21620     -34.170 128.321   6.964  1.00 97.95    -0.035 C 
HETATM   24  C22 STQ 21620     -33.332 127.681   5.868  1.00 97.95     0.045 C 
HETATM   25  C23 STQ 21620     -31.833 127.795   6.090  1.00 97.95     0.142 C 
HETATM   26  C24 STQ 21620     -31.444 129.191   6.511  1.00 97.95     0.007 C 
HETATM   27  C25 STQ 21620     -32.274 129.968   7.221  1.00 97.95    -0.077 C 
HETATM   28  C26 STQ 21620     -33.768 129.788   7.142  1.00 97.95     0.044 C 
HETATM   29  C27 STQ 21620     -34.446 130.357   8.364  1.00 97.95    -0.016 C 
HETATM   30  C28 STQ 21620     -35.252 131.389   8.168  1.00 97.95     0.003 C 
HETATM   31  C29 STQ 21620     -35.996 132.040   9.248  1.00 97.95    -0.062 C 
HETATM   32  C30 STQ 21620     -36.775 133.048   8.872  1.00 97.95     0.007 C 
HETATM   33  C31 STQ 21620     -37.612 133.831   9.759  1.00 97.95     0.001 C 
HETATM   34  C32 STQ 21620     -38.270 134.782   9.118  1.00 97.95     0.007 C 
HETATM   35  C33 STQ 21620     -39.190 135.701   9.782  1.00 97.95    -0.062 C 
HETATM   36  C34 STQ 21620     -39.773 136.630   9.025  1.00 97.95     0.007 C 
HETATM   37  C35 STQ 21620     -40.712 137.570   9.608  1.00 97.95     0.001 C 
HETATM   38  C36 STQ 21620     -34.048 127.538   8.267  1.00 97.95     0.016 C 
HETATM   39  C37 STQ 21620     -35.622 128.232   6.511  1.00 97.95     0.016 C 
HETATM   40  C38 STQ 21620     -31.674 131.031   8.093  1.00 97.95     0.044 C 
HETATM   41  C39 STQ 21620     -35.892 131.591  10.674  1.00 97.95     0.048 C 
HETATM   42  C40 STQ 21620     -39.455 135.593  11.251  1.00 97.95     0.048 C 
HETATM   43  O23 STQ 21620     -31.177 127.487   4.860  1.00 97.95    -0.392 OA
ATOM     44  H23 STQ 21620     -31.421 126.608   4.595  1.00  0.00     0.210 HD
ENDROOT
TORSDOF 12
BEGIN_RES PHE A  61
REMARK  2 active torsions:
REMARK  status: ('A' for Active; 'I' for Inactive)
REMARK    1  A    between atoms: CA   and  CB  
REMARK    2  A    between atoms: CB   and  CG  
ROOT
ATOM      1  CA  PHE A  61     -36.237 128.293  12.768  1.00 39.40     0.164 C 
ENDROOT
BRANCH   1   2
ATOM      2  CB  PHE A  61     -36.813 128.951  11.509  1.00 39.41     0.058 C 
BRANCH   2   3
ATOM      3  CG  PHE A  61     -37.022 128.005  10.351  1.00 39.01    -0.020 A 
ATOM      4  CD2 PHE A  61     -36.271 126.846  10.234  1.00 40.32    -0.004 A 
ATOM      5  CE2 PHE A  61     -36.462 125.979   9.165  1.00 40.20    -0.000 A 
ATOM      6  CZ  PHE A  61     -37.407 126.258   8.205  1.00 40.34    -0.000 A 
ATOM      7  CE1 PHE A  61     -38.163 127.404   8.308  1.00 41.51    -0.000 A 
ATOM      8  CD1 PHE A  61     -37.968 128.275   9.372  1.00 39.94    -0.004 A 
ENDBRANCH   2   3
ENDBRANCH   1   2
END_RES PHE A  61
BEGIN_RES VAL A 134
REMARK  1 active torsions:
REMARK  status: ('A' for Active; 'I' for Inactive)
REMARK    3  A    between atoms: CA   and  CB  
ROOT
ATOM      9  CA  VAL A 134     -29.766 132.051   9.815  1.00 40.75     0.159 C 
ENDROOT
BRANCH   9  10
ATOM     10  CB  VAL A 134     -30.864 132.765   9.009  1.00 40.76     0.029 C 
ATOM     11  CG1 VAL A 134     -32.106 132.976   9.862  1.00 41.76     0.002 C 
ATOM     12  CG2 VAL A 134     -30.371 134.085   8.436  1.00 40.56     0.002 C 
ENDBRANCH   9  10
END_RES VAL A 134
BEGIN_RES TYR A 338
REMARK  3 active torsions:
REMARK  status: ('A' for Active; 'I' for Inactive)
REMARK    4  A    between atoms: CA   and  CB  
REMARK    5  A    between atoms: CB   and  CG  
REMARK    6  A    between atoms: CZ   and  OH  
ROOT
ATOM     13  CA  TYR A 338     -41.631 124.950   6.058  1.00 38.23     0.164 C 
ENDROOT
BRANCH  13  14
ATOM     14  CB  TYR A 338     -41.621 126.456   6.339  1.00 39.15     0.058 C 
BRANCH  14  15
ATOM     15  CG  TYR A 338     -40.421 127.213   5.818  1.00 39.03    -0.020 A 
ATOM     16  CD2 TYR A 338     -40.260 128.557   6.108  1.00 40.65    -0.002 A 
ATOM     17  CE2 TYR A 338     -39.180 129.286   5.633  1.00 40.91     0.024 A 
ATOM     18  CZ  TYR A 338     -38.228 128.667   4.845  1.00 42.33     0.089 A 
ATOM     19  CE1 TYR A 338     -38.364 127.323   4.546  1.00 40.63     0.024 A 
ATOM     20  CD1 TYR A 338     -39.458 126.615   5.019  1.00 39.27    -0.002 A 
BRANCH  18  21
ATOM     21  OH  TYR A 338     -37.157 129.375   4.376  1.00 43.36    -0.359 OA
ATOM     22  HH  TYR A 338     -37.213 129.839   3.548  1.00  0.00     0.217 HD
ENDBRANCH  18  21
ENDBRANCH  14  15
ENDBRANCH  13  14
END_RES TYR A 338
ENDMDL
