MODEL 1
REMARK VINA RESULT:    -8.167      0.000      0.000
REMARK INTER + INTRA:         -10.979
REMARK INTER:                  -8.167
REMARK INTRA:                  -2.812
REMARK UNBOUND:                -2.812
REMARK  0 active torsions:
REMARK  status: ('A' for Active; 'I' for Inactive)
REMARK       I    between atoms: C3_3  and  O3_21 
REMARK       I    between atoms: C6_6  and  C7_7 
REMARK       I    between atoms: C8_8  and  C9_9 
REMARK       I    between atoms: C10_10  and  C11_11 
REMARK       I    between atoms: C12_12  and  C13_13 
REMARK       I    between atoms: C14_14  and  C15_15 
REMARK       I    between atoms: C23_25  and  O23_43 
REMARK       I    between atoms: C26_28  and  C27_29 
REMARK       I    between atoms: C28_30  and  C29_31 
REMARK       I    between atoms: C30_32  and  C31_33 
REMARK       I    between atoms: C32_34  and  C33_35 
REMARK       I    between atoms: C34_36  and  C35_37 
ROOT
HETATM    1  C1  STQ J9620     -34.507 126.881   6.196  1.00 17.81    -0.018 C 
HETATM    2  C2  STQ J9620     -33.910 126.057   5.036  1.00 18.03     0.045 C 
HETATM    3  C3  STQ J9620     -32.983 126.810   4.085  1.00 19.41     0.123 C 
HETATM    4  C4  STQ J9620     -31.958 127.666   4.825  1.00 18.47     0.066 C 
HETATM    5  C5  STQ J9620     -32.476 128.435   5.996  1.00 18.29    -0.074 C 
HETATM    6  C6  STQ J9620     -33.653 128.104   6.656  1.00 18.07    -0.048 C 
HETATM    7  C7  STQ J9620     -34.139 128.892   7.813  1.00 17.25     0.009 C 
HETATM    8  C8  STQ J9620     -34.795 130.067   7.768  1.00 17.01     0.007 C 
HETATM    9  C9  STQ J9620     -35.184 130.934   8.885  1.00 17.86    -0.062 C 
HETATM   10  C10 STQ J9620     -35.936 132.022   8.606  1.00 14.07     0.007 C 
HETATM   11  C11 STQ J9620     -36.440 132.984   9.542  1.00 13.24     0.001 C 
HETATM   12  C12 STQ J9620     -37.321 133.900   9.122  1.00 13.26     0.007 C 
HETATM   13  C13 STQ J9620     -38.018 134.919   9.904  1.00 14.95    -0.062 C 
HETATM   14  C14 STQ J9620     -38.952 135.657   9.264  1.00 15.84     0.007 C 
HETATM   15  C15 STQ J9620     -39.832 136.659   9.824  1.00 15.11     0.001 C 
HETATM   16  C16 STQ J9620     -34.636 125.850   7.319  1.00 16.04     0.020 C 
HETATM   17  C17 STQ J9620     -35.928 127.333   5.834  1.00 17.79     0.020 C 
HETATM   18  C18 STQ J9620     -31.509 129.539   6.249  1.00 17.18     0.044 C 
HETATM   19  C19 STQ J9620     -34.760 130.523  10.274  1.00 17.70     0.048 C 
HETATM   20  C20 STQ J9620     -37.706 135.021  11.375  1.00 11.96     0.048 C 
HETATM   21  O3  STQ J9620     -32.331 125.908   3.200  1.00 19.31    -0.395 OA
ATOM     22  H3  STQ J9620     -31.754 126.376   2.609  1.00  0.00     0.210 HD
HETATM   23  C21 STQ J9620     -49.870 144.396  12.468  1.00 34.78    -0.035 C 
HETATM   24  C22 STQ J9620     -50.723 145.331  13.359  1.00 34.65     0.045 C 
HETATM   25  C23 STQ J9620     -50.540 146.837  13.138  1.00 34.21     0.142 C 
HETATM   26  C24 STQ J9620     -49.101 147.215  12.789  1.00 34.68     0.007 C 
HETATM   27  C25 STQ J9620     -48.153 146.325  12.429  1.00 34.33    -0.077 C 
HETATM   28  C26 STQ J9620     -48.359 144.819  12.325  1.00 32.99     0.044 C 
HETATM   29  C27 STQ J9620     -47.589 144.287  11.107  1.00 29.80    -0.016 C 
HETATM   30  C28 STQ J9620     -46.609 143.340  11.166  1.00 25.87     0.003 C 
HETATM   31  C29 STQ J9620     -45.993 142.578  10.051  1.00 23.86    -0.062 C 
HETATM   32  C30 STQ J9620     -45.034 141.674  10.349  1.00 20.58     0.007 C 
HETATM   33  C31 STQ J9620     -44.339 140.799   9.433  1.00 18.13     0.001 C 
HETATM   34  C32 STQ J9620     -43.369 139.945   9.838  1.00 14.57     0.007 C 
HETATM   35  C33 STQ J9620     -42.567 139.015   9.021  1.00 16.93    -0.062 C 
HETATM   36  C34 STQ J9620     -41.627 138.271   9.647  1.00 15.59     0.007 C 
HETATM   37  C35 STQ J9620     -40.736 137.302   9.067  1.00 13.74     0.001 C 
HETATM   38  C36 STQ J9620     -50.557 144.321  11.074  1.00 32.58     0.016 C 
HETATM   39  C37 STQ J9620     -49.953 142.990  13.093  1.00 34.07     0.016 C 
HETATM   40  C38 STQ J9620     -46.839 146.980  12.157  1.00 35.34     0.044 C 
HETATM   41  C39 STQ J9620     -46.479 142.855   8.651  1.00 22.74     0.048 C 
HETATM   42  C40 STQ J9620     -42.836 138.962   7.542  1.00 15.29     0.048 C 
HETATM   43  O23 STQ J9620     -50.984 147.561  14.279  1.00 33.03    -0.392 OA
ATOM     44  H23 STQ J9620     -51.879 147.326  14.496  1.00  0.00     0.210 HD
ENDROOT
TORSDOF 12
BEGIN_RES PHE A  61
REMARK  2 active torsions:
REMARK  status: ('A' for Active; 'I' for Inactive)
REMARK    1  A    between atoms: CA   and  CB  
REMARK    2  A    between atoms: CB   and  CG  
ROOT
ATOM      1  CA  PHE A  61     -36.237 128.293  12.768  1.00 39.40     0.164 C 
ENDROOT
BRANCH   1   2
ATOM      2  CB  PHE A  61     -36.813 128.951  11.509  1.00 39.41     0.058 C 
BRANCH   2   3
ATOM      3  CG  PHE A  61     -37.048 128.000  10.360  1.00 39.01    -0.020 A 
ATOM      4  CD2 PHE A  61     -36.328 126.821  10.253  1.00 40.32    -0.004 A 
ATOM      5  CE2 PHE A  61     -36.542 125.949   9.193  1.00 40.20    -0.000 A 
ATOM      6  CZ  PHE A  61     -37.482 126.243   8.232  1.00 40.34    -0.000 A 
ATOM      7  CE1 PHE A  61     -38.208 127.410   8.325  1.00 41.51    -0.000 A 
ATOM      8  CD1 PHE A  61     -37.988 128.286   9.380  1.00 39.94    -0.004 A 
ENDBRANCH   2   3
ENDBRANCH   1   2
END_RES PHE A  61
BEGIN_RES VAL A 134
REMARK  1 active torsions:
REMARK  status: ('A' for Active; 'I' for Inactive)
REMARK    3  A    between atoms: CA   and  CB  
ROOT
ATOM      9  CA  VAL A 134     -29.766 132.051   9.815  1.00 40.75     0.159 C 
ENDROOT
BRANCH   9  10
ATOM     10  CB  VAL A 134     -30.864 132.765   9.009  1.00 40.76     0.029 C 
ATOM     11  CG1 VAL A 134     -31.179 131.999   7.733  1.00 41.76     0.002 C 
ATOM     12  CG2 VAL A 134     -32.122 132.975   9.838  1.00 40.56     0.002 C 
ENDBRANCH   9  10
END_RES VAL A 134
BEGIN_RES TYR A 338
REMARK  3 active torsions:
REMARK  status: ('A' for Active; 'I' for Inactive)
REMARK    4  A    between atoms: CA   and  CB  
REMARK    5  A    between atoms: CB   and  CG  
REMARK    6  A    between atoms: CZ   and  OH  
ROOT
ATOM     13  CA  TYR A 338     -41.631 124.950   6.058  1.00 38.23     0.164 C 
ENDROOT
BRANCH  13  14
ATOM     14  CB  TYR A 338     -41.621 126.456   6.339  1.00 39.15     0.058 C 
BRANCH  14  15
ATOM     15  CG  TYR A 338     -40.429 127.215   5.804  1.00 39.03    -0.020 A 
ATOM     16  CD2 TYR A 338     -40.245 128.549   6.126  1.00 40.65    -0.002 A 
ATOM     17  CE2 TYR A 338     -39.172 129.280   5.641  1.00 40.91     0.024 A 
ATOM     18  CZ  TYR A 338     -38.250 128.675   4.808  1.00 42.33     0.089 A 
ATOM     19  CE1 TYR A 338     -38.409 127.342   4.475  1.00 40.63     0.024 A 
ATOM     20  CD1 TYR A 338     -39.496 126.631   4.960  1.00 39.27    -0.002 A 
BRANCH  18  21
ATOM     21  OH  TYR A 338     -37.185 129.385   4.327  1.00 43.36    -0.359 OA
ATOM     22  HH  TYR A 338     -36.579 129.807   4.925  1.00  0.00     0.217 HD
ENDBRANCH  18  21
ENDBRANCH  14  15
ENDBRANCH  13  14
END_RES TYR A 338
ENDMDL
MODEL 2
REMARK VINA RESULT:    -7.074      1.573      1.917
REMARK INTER + INTRA:          -9.886
REMARK INTER:                  -9.878
REMARK INTRA:                  -0.008
REMARK UNBOUND:                -2.812
REMARK  0 active torsions:
REMARK  status: ('A' for Active; 'I' for Inactive)
REMARK       I    between atoms: C3_3  and  O3_21 
REMARK       I    between atoms: C6_6  and  C7_7 
REMARK       I    between atoms: C8_8  and  C9_9 
REMARK       I    between atoms: C10_10  and  C11_11 
REMARK       I    between atoms: C12_12  and  C13_13 
REMARK       I    between atoms: C14_14  and  C15_15 
REMARK       I    between atoms: C23_25  and  O23_43 
REMARK       I    between atoms: C26_28  and  C27_29 
REMARK       I    between atoms: C28_30  and  C29_31 
REMARK       I    between atoms: C30_32  and  C31_33 
REMARK       I    between atoms: C32_34  and  C33_35 
REMARK       I    between atoms: C34_36  and  C35_37 
ROOT
HETATM    1  C1  STQ J9620     -34.265 128.136   6.757  1.00 17.81    -0.018 C 
HETATM    2  C2  STQ J9620     -33.301 127.427   5.783  1.00 18.03     0.045 C 
HETATM    3  C3  STQ J9620     -32.102 128.245   5.310  1.00 19.41     0.123 C 
HETATM    4  C4  STQ J9620     -31.400 128.969   6.457  1.00 18.47     0.066 C 
HETATM    5  C5  STQ J9620     -32.294 129.618   7.461  1.00 18.29    -0.074 C 
HETATM    6  C6  STQ J9620     -33.627 129.262   7.629  1.00 18.07    -0.048 C 
HETATM    7  C7  STQ J9620     -34.487 129.931   8.632  1.00 17.25     0.009 C 
HETATM    8  C8  STQ J9620     -35.088 131.129   8.507  1.00 17.01     0.007 C 
HETATM    9  C9  STQ J9620     -35.843 131.878   9.517  1.00 17.86    -0.062 C 
HETATM   10  C10 STQ J9620     -36.452 133.020   9.130  1.00 14.07     0.007 C 
HETATM   11  C11 STQ J9620     -37.252 133.889   9.944  1.00 13.24     0.001 C 
HETATM   12  C12 STQ J9620     -37.934 134.882   9.360  1.00 13.26     0.007 C 
HETATM   13  C13 STQ J9620     -38.861 135.832   9.970  1.00 14.95    -0.062 C 
HETATM   14  C14 STQ J9620     -39.515 136.676   9.142  1.00 15.84     0.007 C 
HETATM   15  C15 STQ J9620     -40.537 137.642   9.481  1.00 15.11     0.001 C 
HETATM   16  C16 STQ J9620     -34.775 126.989   7.631  1.00 16.04     0.020 C 
HETATM   17  C17 STQ J9620     -35.472 128.683   5.983  1.00 17.79     0.020 C 
HETATM   18  C18 STQ J9620     -31.478 130.646   8.165  1.00 17.18     0.044 C 
HETATM   19  C19 STQ J9620     -35.928 131.294  10.906  1.00 17.70     0.048 C 
HETATM   20  C20 STQ J9620     -39.080 135.752  11.460  1.00 11.96     0.048 C 
HETATM   21  O3  STQ J9620     -31.181 127.425   4.602  1.00 19.31    -0.395 OA
ATOM     22  H3  STQ J9620     -30.435 127.934   4.308  1.00  0.00     0.210 HD
HETATM   23  C21 STQ J9620     -50.881 145.427   9.414  1.00 34.78    -0.035 C 
HETATM   24  C22 STQ J9620     -51.992 146.288  10.061  1.00 34.65     0.045 C 
HETATM   25  C23 STQ J9620     -51.747 147.800  10.102  1.00 34.21     0.142 C 
HETATM   26  C24 STQ J9620     -50.277 148.158  10.321  1.00 34.68     0.007 C 
HETATM   27  C25 STQ J9620     -49.261 147.276  10.205  1.00 34.33    -0.077 C 
HETATM   28  C26 STQ J9620     -49.416 145.801   9.853  1.00 32.99     0.044 C 
HETATM   29  C27 STQ J9620     -48.269 145.382   8.922  1.00 29.80    -0.016 C 
HETATM   30  C28 STQ J9620     -47.369 144.395   9.200  1.00 25.87     0.003 C 
HETATM   31  C29 STQ J9620     -46.403 143.742   8.283  1.00 23.86    -0.062 C 
HETATM   32  C30 STQ J9620     -45.606 142.772   8.782  1.00 20.58     0.007 C 
HETATM   33  C31 STQ J9620     -44.633 141.980   8.063  1.00 18.13     0.001 C 
HETATM   34  C32 STQ J9620     -43.863 141.046   8.671  1.00 14.57     0.007 C 
HETATM   35  C33 STQ J9620     -42.826 140.183   8.076  1.00 16.93    -0.062 C 
HETATM   36  C34 STQ J9620     -42.161 139.335   8.892  1.00 15.59     0.007 C 
HETATM   37  C35 STQ J9620     -41.122 138.403   8.543  1.00 13.74     0.001 C 
HETATM   38  C36 STQ J9620     -51.040 145.541   7.870  1.00 32.58     0.016 C 
HETATM   39  C37 STQ J9620     -51.175 143.963   9.795  1.00 34.07     0.016 C 
HETATM   40  C38 STQ J9620     -47.936 147.905  10.486  1.00 35.34     0.044 C 
HETATM   41  C39 STQ J9620     -46.371 144.197   6.846  1.00 22.74     0.048 C 
HETATM   42  C40 STQ J9620     -42.563 140.312   6.599  1.00 15.29     0.048 C 
HETATM   43  O23 STQ J9620     -52.561 148.407  11.098  1.00 33.03    -0.392 OA
ATOM     44  H23 STQ J9620     -53.475 148.184  10.962  1.00  0.00     0.210 HD
ENDROOT
TORSDOF 12
BEGIN_RES PHE A  61
REMARK  2 active torsions:
REMARK  status: ('A' for Active; 'I' for Inactive)
REMARK    1  A    between atoms: CA   and  CB  
REMARK    2  A    between atoms: CB   and  CG  
ROOT
ATOM      1  CA  PHE A  61     -36.237 128.293  12.768  1.00 39.40     0.164 C 
ENDROOT
BRANCH   1   2
ATOM      2  CB  PHE A  61     -36.813 128.951  11.509  1.00 39.41     0.058 C 
BRANCH   2   3
ATOM      3  CG  PHE A  61     -37.035 128.003  10.355  1.00 39.01    -0.020 A 
ATOM      4  CD2 PHE A  61     -36.336 126.809  10.270  1.00 40.32    -0.004 A 
ATOM      5  CE2 PHE A  61     -36.539 125.939   9.206  1.00 40.20    -0.000 A 
ATOM      6  CZ  PHE A  61     -37.446 126.250   8.219  1.00 40.34    -0.000 A 
ATOM      7  CE1 PHE A  61     -38.150 127.431   8.290  1.00 41.51    -0.000 A 
ATOM      8  CD1 PHE A  61     -37.943 128.305   9.350  1.00 39.94    -0.004 A 
ENDBRANCH   2   3
ENDBRANCH   1   2
END_RES PHE A  61
BEGIN_RES VAL A 134
REMARK  1 active torsions:
REMARK  status: ('A' for Active; 'I' for Inactive)
REMARK    3  A    between atoms: CA   and  CB  
ROOT
ATOM      9  CA  VAL A 134     -29.766 132.051   9.815  1.00 40.75     0.159 C 
ENDROOT
BRANCH   9  10
ATOM     10  CB  VAL A 134     -30.864 132.765   9.009  1.00 40.76     0.029 C 
ATOM     11  CG1 VAL A 134     -32.108 132.973   9.861  1.00 41.76     0.002 C 
ATOM     12  CG2 VAL A 134     -30.372 134.087   8.439  1.00 40.56     0.002 C 
ENDBRANCH   9  10
END_RES VAL A 134
BEGIN_RES TYR A 338
REMARK  3 active torsions:
REMARK  status: ('A' for Active; 'I' for Inactive)
REMARK    4  A    between atoms: CA   and  CB  
REMARK    5  A    between atoms: CB   and  CG  
REMARK    6  A    between atoms: CZ   and  OH  
ROOT
ATOM     13  CA  TYR A 338     -41.631 124.950   6.058  1.00 38.23     0.164 C 
ENDROOT
BRANCH  13  14
ATOM     14  CB  TYR A 338     -41.621 126.456   6.339  1.00 39.15     0.058 C 
BRANCH  14  15
ATOM     15  CG  TYR A 338     -40.428 127.215   5.804  1.00 39.03    -0.020 A 
ATOM     16  CD2 TYR A 338     -40.274 128.563   6.081  1.00 40.65    -0.002 A 
ATOM     17  CE2 TYR A 338     -39.201 129.294   5.595  1.00 40.91     0.024 A 
ATOM     18  CZ  TYR A 338     -38.250 128.674   4.807  1.00 42.33     0.089 A 
ATOM     19  CE1 TYR A 338     -38.379 127.327   4.520  1.00 40.63     0.024 A 
ATOM     20  CD1 TYR A 338     -39.467 126.616   5.006  1.00 39.27    -0.002 A 
BRANCH  18  21
ATOM     21  OH  TYR A 338     -37.185 129.384   4.325  1.00 43.36    -0.359 OA
ATOM     22  HH  TYR A 338     -37.145 130.326   4.440  1.00  0.00     0.217 HD
ENDBRANCH  18  21
ENDBRANCH  14  15
ENDBRANCH  13  14
END_RES TYR A 338
ENDMDL
