MODEL 1
REMARK VINA RESULT:    -9.754      0.000      0.000
REMARK INTER + INTRA:         -12.983
REMARK INTER:                  -9.754
REMARK INTRA:                  -3.229
REMARK UNBOUND:                -3.229
REMARK  0 active torsions:
REMARK  status: ('A' for Active; 'I' for Inactive)
REMARK       I    between atoms: C3_3  and  O3_21 
REMARK       I    between atoms: C6_6  and  C7_7 
REMARK       I    between atoms: C8_8  and  C9_9 
REMARK       I    between atoms: C10_10  and  C11_11 
REMARK       I    between atoms: C12_12  and  C13_13 
REMARK       I    between atoms: C14_14  and  C15_15 
REMARK       I    between atoms: C23_25  and  O23_43 
REMARK       I    between atoms: C26_28  and  C27_29 
REMARK       I    between atoms: C28_30  and  C29_31 
REMARK       I    between atoms: C30_32  and  C31_33 
REMARK       I    between atoms: C32_34  and  C33_35 
REMARK       I    between atoms: C34_36  and  C35_37 
ROOT
HETATM    1  C1  STQ N1621     -34.342 127.011   6.299  1.00 51.88    -0.018 C 
HETATM    2  C2  STQ N1621     -33.940 126.445   4.943  1.00 51.88     0.045 C 
HETATM    3  C3  STQ N1621     -32.771 127.107   4.248  1.00 51.88     0.123 C 
HETATM    4  C4  STQ N1621     -31.695 127.433   5.256  1.00 51.88     0.066 C 
HETATM    5  C5  STQ N1621     -32.258 128.357   6.294  1.00 51.88    -0.074 C 
HETATM    6  C6  STQ N1621     -33.458 128.124   6.830  1.00 51.88    -0.048 C 
HETATM    7  C7  STQ N1621     -33.990 128.925   7.964  1.00 51.88     0.009 C 
HETATM    8  C8  STQ N1621     -34.602 130.098   7.784  1.00 51.88     0.007 C 
HETATM    9  C9  STQ N1621     -35.185 130.898   8.869  1.00 51.88    -0.062 C 
HETATM   10  C10 STQ N1621     -36.085 131.801   8.477  1.00 51.88     0.007 C 
HETATM   11  C11 STQ N1621     -36.847 132.696   9.330  1.00 51.88     0.001 C 
HETATM   12  C12 STQ N1621     -37.699 133.476   8.678  1.00 51.88     0.007 C 
HETATM   13  C13 STQ N1621     -38.603 134.411   9.360  1.00 51.88    -0.062 C 
HETATM   14  C14 STQ N1621     -39.411 135.178   8.617  1.00 51.88     0.007 C 
HETATM   15  C15 STQ N1621     -40.358 136.099   9.230  1.00 51.88     0.001 C 
HETATM   16  C16 STQ N1621     -34.419 125.850   7.278  1.00 51.88     0.020 C 
HETATM   17  C17 STQ N1621     -35.735 127.576   6.151  1.00 51.88     0.020 C 
HETATM   18  C18 STQ N1621     -31.286 129.338   6.872  1.00 51.88     0.044 C 
HETATM   19  C19 STQ N1621     -34.805 130.708  10.303  1.00 51.88     0.048 C 
HETATM   20  C20 STQ N1621     -38.636 134.459  10.856  1.00 51.88     0.048 C 
HETATM   21  O3  STQ N1621     -32.224 126.190   3.297  1.00 51.88    -0.395 OA
ATOM     22  H3  STQ N1621     -31.489 126.605   2.860  1.00  0.00     0.210 HD
HETATM   23  C21 STQ N1621     -49.851 144.779  10.085  1.00 51.88    -0.035 C 
HETATM   24  C22 STQ N1621     -50.684 145.821  10.814  1.00 51.88     0.045 C 
HETATM   25  C23 STQ N1621     -50.103 147.219  10.713  1.00 51.88     0.142 C 
HETATM   26  C24 STQ N1621     -48.651 147.208  11.107  1.00 51.88     0.007 C 
HETATM   27  C25 STQ N1621     -47.885 146.115  11.016  1.00 51.88    -0.077 C 
HETATM   28  C26 STQ N1621     -48.398 144.772  10.574  1.00 51.88     0.044 C 
HETATM   29  C27 STQ N1621     -47.449 144.195   9.547  1.00 51.88    -0.016 C 
HETATM   30  C28 STQ N1621     -46.904 143.016   9.815  1.00 51.88     0.003 C 
HETATM   31  C29 STQ N1621     -45.970 142.345   8.900  1.00 51.88    -0.062 C 
HETATM   32  C30 STQ N1621     -45.564 141.115   9.234  1.00 51.88     0.007 C 
HETATM   33  C31 STQ N1621     -44.643 140.303   8.448  1.00 51.88     0.001 C 
HETATM   34  C32 STQ N1621     -43.820 139.497   9.117  1.00 51.88     0.007 C 
HETATM   35  C33 STQ N1621     -42.853 138.631   8.428  1.00 51.88    -0.062 C 
HETATM   36  C34 STQ N1621     -42.040 137.823   9.127  1.00 51.88     0.007 C 
HETATM   37  C35 STQ N1621     -41.078 136.934   8.483  1.00 51.88     0.001 C 
HETATM   38  C36 STQ N1621     -49.956 145.013   8.584  1.00 51.88     0.016 C 
HETATM   39  C37 STQ N1621     -50.474 143.430  10.397  1.00 51.88     0.016 C 
HETATM   40  C38 STQ N1621     -46.446 146.227  11.400  1.00 51.88     0.044 C 
HETATM   41  C39 STQ N1621     -45.504 143.028   7.652  1.00 51.88     0.048 C 
HETATM   42  C40 STQ N1621     -42.803 138.669   6.942  1.00 51.88     0.048 C 
HETATM   43  O23 STQ N1621     -50.823 148.055  11.617  1.00 51.88    -0.392 OA
ATOM     44  H23 STQ N1621     -50.460 148.930  11.554  1.00  0.00     0.210 HD
ENDROOT
TORSDOF 12
BEGIN_RES PHE A  61
REMARK  2 active torsions:
REMARK  status: ('A' for Active; 'I' for Inactive)
REMARK    1  A    between atoms: CA   and  CB  
REMARK    2  A    between atoms: CB   and  CG  
ROOT
ATOM      1  CA  PHE A  61     -36.237 128.293  12.768  1.00 39.40     0.164 C 
ENDROOT
BRANCH   1   2
ATOM      2  CB  PHE A  61     -36.813 128.951  11.509  1.00 39.41     0.058 C 
BRANCH   2   3
ATOM      3  CG  PHE A  61     -37.027 128.004  10.352  1.00 39.01    -0.020 A 
ATOM      4  CD2 PHE A  61     -36.278 126.844  10.234  1.00 40.32    -0.004 A 
ATOM      5  CE2 PHE A  61     -36.473 125.976   9.168  1.00 40.20    -0.000 A 
ATOM      6  CZ  PHE A  61     -37.421 126.255   8.210  1.00 40.34    -0.000 A 
ATOM      7  CE1 PHE A  61     -38.175 127.403   8.314  1.00 41.51    -0.000 A 
ATOM      8  CD1 PHE A  61     -37.976 128.275   9.376  1.00 39.94    -0.004 A 
ENDBRANCH   2   3
ENDBRANCH   1   2
END_RES PHE A  61
BEGIN_RES VAL A 134
REMARK  1 active torsions:
REMARK  status: ('A' for Active; 'I' for Inactive)
REMARK    3  A    between atoms: CA   and  CB  
ROOT
ATOM      9  CA  VAL A 134     -29.766 132.051   9.815  1.00 40.75     0.159 C 
ENDROOT
BRANCH   9  10
ATOM     10  CB  VAL A 134     -30.864 132.765   9.009  1.00 40.76     0.029 C 
ATOM     11  CG1 VAL A 134     -31.179 131.999   7.732  1.00 41.76     0.002 C 
ATOM     12  CG2 VAL A 134     -32.122 132.974   9.838  1.00 40.56     0.002 C 
ENDBRANCH   9  10
END_RES VAL A 134
BEGIN_RES TYR A 338
REMARK  3 active torsions:
REMARK  status: ('A' for Active; 'I' for Inactive)
REMARK    4  A    between atoms: CA   and  CB  
REMARK    5  A    between atoms: CB   and  CG  
REMARK    6  A    between atoms: CZ   and  OH  
ROOT
ATOM     13  CA  TYR A 338     -41.631 124.950   6.058  1.00 38.23     0.164 C 
ENDROOT
BRANCH  13  14
ATOM     14  CB  TYR A 338     -41.621 126.456   6.339  1.00 39.15     0.058 C 
BRANCH  14  15
ATOM     15  CG  TYR A 338     -40.423 127.213   5.814  1.00 39.03    -0.020 A 
ATOM     16  CD2 TYR A 338     -40.251 128.552   6.121  1.00 40.65    -0.002 A 
ATOM     17  CE2 TYR A 338     -39.173 129.282   5.644  1.00 40.91     0.024 A 
ATOM     18  CZ  TYR A 338     -38.234 128.670   4.835  1.00 42.33     0.089 A 
ATOM     19  CE1 TYR A 338     -38.382 127.331   4.518  1.00 40.63     0.024 A 
ATOM     20  CD1 TYR A 338     -39.474 126.622   4.994  1.00 39.27    -0.002 A 
BRANCH  18  21
ATOM     21  OH  TYR A 338     -37.165 129.378   4.363  1.00 43.36    -0.359 OA
ATOM     22  HH  TYR A 338     -37.126 129.637   3.449  1.00  0.00     0.217 HD
ENDBRANCH  18  21
ENDBRANCH  14  15
ENDBRANCH  13  14
END_RES TYR A 338
ENDMDL
