MODEL 1
REMARK VINA RESULT:   -12.359      0.000      0.000
REMARK INTER + INTRA:         -14.883
REMARK INTER:                 -12.359
REMARK INTRA:                  -2.524
REMARK UNBOUND:                -2.524
REMARK  0 active torsions:
REMARK  status: ('A' for Active; 'I' for Inactive)
REMARK       I    between atoms: C3_3  and  O3_21 
REMARK       I    between atoms: C6_6  and  C7_7 
REMARK       I    between atoms: C8_8  and  C9_9 
REMARK       I    between atoms: C10_10  and  C11_11 
REMARK       I    between atoms: C12_12  and  C13_13 
REMARK       I    between atoms: C14_14  and  C15_15 
REMARK       I    between atoms: C23_25  and  O23_43 
REMARK       I    between atoms: C26_28  and  C27_29 
REMARK       I    between atoms: C28_30  and  C29_31 
REMARK       I    between atoms: C30_32  and  C31_33 
REMARK       I    between atoms: C32_34  and  C33_35 
REMARK       I    between atoms: C34_36  and  C35_37 
ROOT
HETATM    1  C1  STQ 4 620     -34.255 127.041   6.543  1.00 26.49    -0.018 C 
HETATM    2  C2  STQ 4 620     -33.810 126.568   5.162  1.00 26.49     0.045 C 
HETATM    3  C3  STQ 4 620     -32.737 127.385   4.461  1.00 26.49     0.123 C 
HETATM    4  C4  STQ 4 620     -31.688 127.832   5.458  1.00 26.49     0.066 C 
HETATM    5  C5  STQ 4 620     -32.382 128.676   6.485  1.00 26.49    -0.074 C 
HETATM    6  C6  STQ 4 620     -33.525 128.271   7.057  1.00 26.49    -0.048 C 
HETATM    7  C7  STQ 4 620     -34.060 129.026   8.225  1.00 26.49     0.009 C 
HETATM    8  C8  STQ 4 620     -34.915 130.043   8.082  1.00 26.49     0.007 C 
HETATM    9  C9  STQ 4 620     -35.476 130.847   9.188  1.00 26.49    -0.062 C 
HETATM   10  C10 STQ 4 620     -36.417 131.739   8.851  1.00 26.49     0.007 C 
HETATM   11  C11 STQ 4 620     -37.129 132.662   9.729  1.00 26.49     0.001 C 
HETATM   12  C12 STQ 4 620     -37.607 133.747   9.122  1.00 26.49     0.007 C 
HETATM   13  C13 STQ 4 620     -38.406 134.795   9.774  1.00 26.49    -0.062 C 
HETATM   14  C14 STQ 4 620     -39.097 135.619   8.971  1.00 26.49     0.007 C 
HETATM   15  C15 STQ 4 620     -39.979 136.662   9.475  1.00 26.49     0.001 C 
HETATM   16  C16 STQ 4 620     -34.103 125.864   7.498  1.00 26.49     0.020 C 
HETATM   17  C17 STQ 4 620     -35.727 127.395   6.444  1.00 26.49     0.020 C 
HETATM   18  C18 STQ 4 620     -31.516 129.739   7.090  1.00 26.49     0.044 C 
HETATM   19  C19 STQ 4 620     -34.997 130.698  10.600  1.00 26.49     0.048 C 
HETATM   20  C20 STQ 4 620     -38.473 134.916  11.267  1.00 26.49     0.048 C 
HETATM   21  O3  STQ 4 620     -32.131 126.588   3.440  1.00 26.49    -0.395 OA
ATOM     22  H3  STQ 4 620     -31.461 127.099   3.002  1.00  0.00     0.210 HD
HETATM   23  C21 STQ 4 620     -49.630 145.429   8.867  1.00 26.49    -0.035 C 
HETATM   24  C22 STQ 4 620     -50.609 146.208   9.736  1.00 26.49     0.045 C 
HETATM   25  C23 STQ 4 620     -49.999 147.396  10.465  1.00 26.49     0.142 C 
HETATM   26  C24 STQ 4 620     -48.659 147.047  11.058  1.00 26.49     0.007 C 
HETATM   27  C25 STQ 4 620     -47.823 146.215  10.434  1.00 26.49    -0.077 C 
HETATM   28  C26 STQ 4 620     -48.362 145.053   9.642  1.00 26.49     0.044 C 
HETATM   29  C27 STQ 4 620     -47.333 144.467   8.699  1.00 26.49    -0.016 C 
HETATM   30  C28 STQ 4 620     -46.840 143.272   8.999  1.00 26.49     0.003 C 
HETATM   31  C29 STQ 4 620     -45.851 142.567   8.168  1.00 26.49    -0.062 C 
HETATM   32  C30 STQ 4 620     -45.266 141.491   8.702  1.00 26.49     0.007 C 
HETATM   33  C31 STQ 4 620     -44.295 140.643   8.024  1.00 26.49     0.001 C 
HETATM   34  C32 STQ 4 620     -43.511 139.901   8.793  1.00 26.49     0.007 C 
HETATM   35  C33 STQ 4 620     -42.528 138.956   8.245  1.00 26.49    -0.062 C 
HETATM   36  C34 STQ 4 620     -41.696 138.322   9.082  1.00 26.49     0.007 C 
HETATM   37  C35 STQ 4 620     -40.743 137.325   8.610  1.00 26.49     0.001 C 
HETATM   38  C36 STQ 4 620     -49.304 146.221   7.605  1.00 26.49     0.016 C 
HETATM   39  C37 STQ 4 620     -50.341 144.154   8.442  1.00 26.49     0.016 C 
HETATM   40  C38 STQ 4 620     -46.348 146.464  10.544  1.00 26.49     0.044 C 
HETATM   41  C39 STQ 4 620     -45.534 143.034   6.781  1.00 26.49     0.048 C 
HETATM   42  C40 STQ 4 620     -42.505 138.694   6.773  1.00 26.49     0.048 C 
HETATM   43  O23 STQ 4 620     -50.875 147.791  11.523  1.00 26.49    -0.392 OA
ATOM     44  H23 STQ 4 620     -50.495 148.533  11.978  1.00  0.00     0.210 HD
ENDROOT
TORSDOF 12
BEGIN_RES PHE A  61
REMARK  2 active torsions:
REMARK  status: ('A' for Active; 'I' for Inactive)
REMARK    1  A    between atoms: CA   and  CB  
REMARK    2  A    between atoms: CB   and  CG  
ROOT
ATOM      1  CA  PHE A  61     -36.237 128.293  12.768  1.00 39.40     0.164 C 
ENDROOT
BRANCH   1   2
ATOM      2  CB  PHE A  61     -36.813 128.951  11.509  1.00 39.41     0.058 C 
BRANCH   2   3
ATOM      3  CG  PHE A  61     -37.068 127.997  10.367  1.00 39.01    -0.020 A 
ATOM      4  CD2 PHE A  61     -36.331 126.830  10.237  1.00 40.32    -0.004 A 
ATOM      5  CE2 PHE A  61     -36.565 125.954   9.184  1.00 40.20    -0.000 A 
ATOM      6  CZ  PHE A  61     -37.539 126.233   8.253  1.00 40.34    -0.000 A 
ATOM      7  CE1 PHE A  61     -38.282 127.387   8.369  1.00 41.51    -0.000 A 
ATOM      8  CD1 PHE A  61     -38.044 128.266   9.418  1.00 39.94    -0.004 A 
ENDBRANCH   2   3
ENDBRANCH   1   2
END_RES PHE A  61
BEGIN_RES VAL A 134
REMARK  1 active torsions:
REMARK  status: ('A' for Active; 'I' for Inactive)
REMARK    3  A    between atoms: CA   and  CB  
ROOT
ATOM      9  CA  VAL A 134     -29.766 132.051   9.815  1.00 40.75     0.159 C 
ENDROOT
BRANCH   9  10
ATOM     10  CB  VAL A 134     -30.864 132.765   9.009  1.00 40.76     0.029 C 
ATOM     11  CG1 VAL A 134     -30.851 132.306   7.558  1.00 41.76     0.002 C 
ATOM     12  CG2 VAL A 134     -32.238 132.560   9.628  1.00 40.56     0.002 C 
ENDBRANCH   9  10
END_RES VAL A 134
BEGIN_RES TYR A 338
REMARK  3 active torsions:
REMARK  status: ('A' for Active; 'I' for Inactive)
REMARK    4  A    between atoms: CA   and  CB  
REMARK    5  A    between atoms: CB   and  CG  
REMARK    6  A    between atoms: CZ   and  OH  
ROOT
ATOM     13  CA  TYR A 338     -41.631 124.950   6.058  1.00 38.23     0.164 C 
ENDROOT
BRANCH  13  14
ATOM     14  CB  TYR A 338     -41.621 126.456   6.339  1.00 39.15     0.058 C 
BRANCH  14  15
ATOM     15  CG  TYR A 338     -40.418 127.212   5.823  1.00 39.03    -0.020 A 
ATOM     16  CD2 TYR A 338     -40.252 128.553   6.122  1.00 40.65    -0.002 A 
ATOM     17  CE2 TYR A 338     -39.170 129.281   5.653  1.00 40.91     0.024 A 
ATOM     18  CZ  TYR A 338     -38.220 128.665   4.860  1.00 42.33     0.089 A 
ATOM     19  CE1 TYR A 338     -38.361 127.323   4.551  1.00 40.63     0.024 A 
ATOM     20  CD1 TYR A 338     -39.458 126.616   5.019  1.00 39.27    -0.002 A 
BRANCH  18  21
ATOM     21  OH  TYR A 338     -37.146 129.371   4.395  1.00 43.36    -0.359 OA
ATOM     22  HH  TYR A 338     -37.044 129.534   3.465  1.00  0.00     0.217 HD
ENDBRANCH  18  21
ENDBRANCH  14  15
ENDBRANCH  13  14
END_RES TYR A 338
ENDMDL
