MODEL 1
REMARK VINA RESULT:    -6.576      0.000      0.000
REMARK INTER + INTRA:          -9.887
REMARK INTER:                  -6.576
REMARK INTRA:                  -3.311
REMARK UNBOUND:                -3.311
REMARK  0 active torsions:
REMARK  status: ('A' for Active; 'I' for Inactive)
REMARK       I    between atoms: C3_3  and  O3_21 
REMARK       I    between atoms: C6_6  and  C7_7 
REMARK       I    between atoms: C8_8  and  C9_9 
REMARK       I    between atoms: C10_10  and  C11_11 
REMARK       I    between atoms: C12_12  and  C13_13 
REMARK       I    between atoms: C14_14  and  C15_15 
REMARK       I    between atoms: C23_25  and  O23_43 
REMARK       I    between atoms: C26_28  and  C27_29 
REMARK       I    between atoms: C28_30  and  C29_31 
REMARK       I    between atoms: C30_32  and  C31_33 
REMARK       I    between atoms: C32_34  and  C33_35 
REMARK       I    between atoms: C34_36  and  C35_37 
ROOT
HETATM    1  C1  STQ D3621     -34.506 127.220   6.048  1.00 23.41    -0.018 C 
HETATM    2  C2  STQ D3621     -34.023 126.468   4.795  1.00 23.79     0.045 C 
HETATM    3  C3  STQ D3621     -32.802 126.956   4.022  1.00 23.28     0.123 C 
HETATM    4  C4  STQ D3621     -31.878 127.882   4.828  1.00 23.70     0.066 C 
HETATM    5  C5  STQ D3621     -32.375 128.588   6.058  1.00 23.84    -0.074 C 
HETATM    6  C6  STQ D3621     -33.585 128.312   6.663  1.00 22.99    -0.048 C 
HETATM    7  C7  STQ D3621     -34.096 128.987   7.886  1.00 20.55     0.009 C 
HETATM    8  C8  STQ D3621     -34.705 130.193   7.904  1.00 19.35     0.007 C 
HETATM    9  C9  STQ D3621     -35.198 130.985   9.033  1.00 18.45    -0.062 C 
HETATM   10  C10 STQ D3621     -35.890 132.109   8.747  1.00 18.11     0.007 C 
HETATM   11  C11 STQ D3621     -36.539 132.986   9.680  1.00 18.44     0.001 C 
HETATM   12  C12 STQ D3621     -37.279 134.046   9.281  1.00 19.34     0.007 C 
HETATM   13  C13 STQ D3621     -38.060 134.937  10.159  1.00 20.12    -0.062 C 
HETATM   14  C14 STQ D3621     -38.773 135.940   9.593  1.00 19.73     0.007 C 
HETATM   15  C15 STQ D3621     -39.650 136.894  10.266  1.00 19.24     0.001 C 
HETATM   16  C16 STQ D3621     -34.712 126.067   7.037  1.00 23.73     0.020 C 
HETATM   17  C17 STQ D3621     -35.882 127.817   5.725  1.00 23.42     0.020 C 
HETATM   18  C18 STQ D3621     -31.354 129.570   6.504  1.00 22.78     0.044 C 
HETATM   19  C19 STQ D3621     -34.969 130.455  10.415  1.00 16.12     0.048 C 
HETATM   20  C20 STQ D3621     -38.028 134.643  11.634  1.00 17.75     0.048 C 
HETATM   21  O3  STQ D3621     -32.075 125.850   3.506  1.00 21.52    -0.395 OA
ATOM     22  H3  STQ D3621     -31.315 126.154   3.024  1.00  0.00     0.210 HD
HETATM   23  C21 STQ D3621     -47.976 146.480  13.314  1.00 19.77    -0.035 C 
HETATM   24  C22 STQ D3621     -48.829 147.379  14.233  1.00 17.50     0.045 C 
HETATM   25  C23 STQ D3621     -48.207 148.737  14.547  1.00 17.67     0.142 C 
HETATM   26  C24 STQ D3621     -46.678 148.707  14.737  1.00 18.06     0.007 C 
HETATM   27  C25 STQ D3621     -45.928 147.646  14.345  1.00 19.36    -0.077 C 
HETATM   28  C26 STQ D3621     -46.466 146.372  13.695  1.00 19.09     0.044 C 
HETATM   29  C27 STQ D3621     -45.589 145.858  12.548  1.00 18.58    -0.016 C 
HETATM   30  C28 STQ D3621     -45.112 144.587  12.458  1.00 19.42     0.003 C 
HETATM   31  C29 STQ D3621     -44.375 143.981  11.332  1.00 21.21    -0.062 C 
HETATM   32  C30 STQ D3621     -43.933 142.706  11.454  1.00 20.08     0.007 C 
HETATM   33  C31 STQ D3621     -43.186 141.962  10.465  1.00 17.89     0.001 C 
HETATM   34  C32 STQ D3621     -42.594 140.772  10.728  1.00 17.64     0.007 C 
HETATM   35  C33 STQ D3621     -41.761 139.942   9.823  1.00 17.45    -0.062 C 
HETATM   36  C34 STQ D3621     -41.167 138.839  10.340  1.00 15.95     0.007 C 
HETATM   37  C35 STQ D3621     -40.280 137.914   9.651  1.00 18.41     0.001 C 
HETATM   38  C36 STQ D3621     -48.126 147.049  11.869  1.00 20.23     0.016 C 
HETATM   39  C37 STQ D3621     -48.621 145.075  13.357  1.00 15.16     0.016 C 
HETATM   40  C38 STQ D3621     -44.479 147.765  14.609  1.00 16.76     0.044 C 
HETATM   41  C39 STQ D3621     -44.087 144.856  10.141  1.00 22.05     0.048 C 
HETATM   42  C40 STQ D3621     -41.572 140.427   8.408  1.00 11.49     0.048 C 
HETATM   43  O23 STQ D3621     -48.844 149.302  15.679  1.00 18.64    -0.392 OA
ATOM     44  H23 STQ D3621     -49.787 149.320  15.562  1.00  0.00     0.210 HD
ENDROOT
TORSDOF 12
BEGIN_RES PHE A  61
REMARK  2 active torsions:
REMARK  status: ('A' for Active; 'I' for Inactive)
REMARK    1  A    between atoms: CA   and  CB  
REMARK    2  A    between atoms: CB   and  CG  
ROOT
ATOM      1  CA  PHE A  61     -36.237 128.293  12.768  1.00 39.40     0.164 C 
ENDROOT
BRANCH   1   2
ATOM      2  CB  PHE A  61     -36.813 128.951  11.509  1.00 39.41     0.058 C 
BRANCH   2   3
ATOM      3  CG  PHE A  61     -37.002 128.010  10.344  1.00 39.01    -0.020 A 
ATOM      4  CD2 PHE A  61     -36.209 126.882  10.204  1.00 40.32    -0.004 A 
ATOM      5  CE2 PHE A  61     -36.382 126.018   9.129  1.00 40.20    -0.000 A 
ATOM      6  CZ  PHE A  61     -37.352 126.270   8.186  1.00 40.34    -0.000 A 
ATOM      7  CE1 PHE A  61     -38.150 127.385   8.312  1.00 41.51    -0.000 A 
ATOM      8  CD1 PHE A  61     -37.973 128.252   9.382  1.00 39.94    -0.004 A 
ENDBRANCH   2   3
ENDBRANCH   1   2
END_RES PHE A  61
BEGIN_RES VAL A 134
REMARK  1 active torsions:
REMARK  status: ('A' for Active; 'I' for Inactive)
REMARK    3  A    between atoms: CA   and  CB  
ROOT
ATOM      9  CA  VAL A 134     -29.766 132.051   9.815  1.00 40.75     0.159 C 
ENDROOT
BRANCH   9  10
ATOM     10  CB  VAL A 134     -30.864 132.765   9.009  1.00 40.76     0.029 C 
ATOM     11  CG1 VAL A 134     -31.176 132.001   7.730  1.00 41.76     0.002 C 
ATOM     12  CG2 VAL A 134     -32.124 132.970   9.836  1.00 40.56     0.002 C 
ENDBRANCH   9  10
END_RES VAL A 134
BEGIN_RES TYR A 338
REMARK  3 active torsions:
REMARK  status: ('A' for Active; 'I' for Inactive)
REMARK    4  A    between atoms: CA   and  CB  
REMARK    5  A    between atoms: CB   and  CG  
REMARK    6  A    between atoms: CZ   and  OH  
ROOT
ATOM     13  CA  TYR A 338     -41.631 124.950   6.058  1.00 38.23     0.164 C 
ENDROOT
BRANCH  13  14
ATOM     14  CB  TYR A 338     -41.621 126.456   6.339  1.00 39.15     0.058 C 
BRANCH  14  15
ATOM     15  CG  TYR A 338     -40.434 127.217   5.794  1.00 39.03    -0.020 A 
ATOM     16  CD2 TYR A 338     -40.244 128.548   6.124  1.00 40.65    -0.002 A 
ATOM     17  CE2 TYR A 338     -39.176 129.281   5.630  1.00 40.91     0.024 A 
ATOM     18  CZ  TYR A 338     -38.266 128.680   4.781  1.00 42.33     0.089 A 
ATOM     19  CE1 TYR A 338     -38.432 127.350   4.441  1.00 40.63     0.024 A 
ATOM     20  CD1 TYR A 338     -39.514 126.638   4.935  1.00 39.27    -0.002 A 
BRANCH  18  21
ATOM     21  OH  TYR A 338     -37.206 129.392   4.292  1.00 43.36    -0.359 OA
ATOM     22  HH  TYR A 338     -37.329 130.006   3.577  1.00  0.00     0.217 HD
ENDBRANCH  18  21
ENDBRANCH  14  15
ENDBRANCH  13  14
END_RES TYR A 338
ENDMDL
MODEL 2
REMARK VINA RESULT:    -6.512      2.049      2.619
REMARK INTER + INTRA:          -9.823
REMARK INTER:                  -9.404
REMARK INTRA:                  -0.419
REMARK UNBOUND:                -3.311
REMARK  0 active torsions:
REMARK  status: ('A' for Active; 'I' for Inactive)
REMARK       I    between atoms: C3_3  and  O3_21 
REMARK       I    between atoms: C6_6  and  C7_7 
REMARK       I    between atoms: C8_8  and  C9_9 
REMARK       I    between atoms: C10_10  and  C11_11 
REMARK       I    between atoms: C12_12  and  C13_13 
REMARK       I    between atoms: C14_14  and  C15_15 
REMARK       I    between atoms: C23_25  and  O23_43 
REMARK       I    between atoms: C26_28  and  C27_29 
REMARK       I    between atoms: C28_30  and  C29_31 
REMARK       I    between atoms: C30_32  and  C31_33 
REMARK       I    between atoms: C32_34  and  C33_35 
REMARK       I    between atoms: C34_36  and  C35_37 
ROOT
HETATM    1  C1  STQ D3621     -34.061 128.212   7.063  1.00 23.41    -0.018 C 
HETATM    2  C2  STQ D3621     -33.249 127.455   5.997  1.00 23.79     0.045 C 
HETATM    3  C3  STQ D3621     -31.965 128.055   5.431  1.00 23.28     0.123 C 
HETATM    4  C4  STQ D3621     -31.340 129.147   6.313  1.00 23.70     0.066 C 
HETATM    5  C5  STQ D3621     -32.156 129.855   7.357  1.00 23.84    -0.074 C 
HETATM    6  C6  STQ D3621     -33.421 129.456   7.743  1.00 22.99    -0.048 C 
HETATM    7  C7  STQ D3621     -34.245 130.132   8.781  1.00 20.55     0.009 C 
HETATM    8  C8  STQ D3621     -34.985 131.243   8.575  1.00 19.35     0.007 C 
HETATM    9  C9  STQ D3621     -35.787 132.030   9.515  1.00 18.45    -0.062 C 
HETATM   10  C10 STQ D3621     -36.538 133.030   9.003  1.00 18.11     0.007 C 
HETATM   11  C11 STQ D3621     -37.462 133.867   9.713  1.00 18.44     0.001 C 
HETATM   12  C12 STQ D3621     -38.229 134.790   9.088  1.00 19.34     0.007 C 
HETATM   13  C13 STQ D3621     -39.273 135.620   9.718  1.00 20.12    -0.062 C 
HETATM   14  C14 STQ D3621     -39.973 136.479   8.939  1.00 19.73     0.007 C 
HETATM   15  C15 STQ D3621     -41.076 137.346   9.345  1.00 19.24     0.001 C 
HETATM   16  C16 STQ D3621     -34.320 127.108   8.093  1.00 23.73     0.020 C 
HETATM   17  C17 STQ D3621     -35.406 128.595   6.431  1.00 23.42     0.020 C 
HETATM   18  C18 STQ D3621     -31.372 130.993   7.901  1.00 22.78     0.044 C 
HETATM   19  C19 STQ D3621     -35.778 131.625  10.956  1.00 16.12     0.048 C 
HETATM   20  C20 STQ D3621     -39.502 135.427  11.192  1.00 17.75     0.048 C 
HETATM   21  O3  STQ D3621     -31.021 127.028   5.163  1.00 21.52    -0.395 OA
ATOM     22  H3  STQ D3621     -30.222 127.401   4.811  1.00  0.00     0.210 HD
HETATM   23  C21 STQ D3621     -50.940 145.885   9.885  1.00 19.77    -0.035 C 
HETATM   24  C22 STQ D3621     -52.062 146.716  10.540  1.00 17.50     0.045 C 
HETATM   25  C23 STQ D3621     -51.684 148.164  10.845  1.00 17.67     0.142 C 
HETATM   26  C24 STQ D3621     -50.233 148.354  11.325  1.00 18.06     0.007 C 
HETATM   27  C25 STQ D3621     -49.297 147.382  11.179  1.00 19.36    -0.077 C 
HETATM   28  C26 STQ D3621     -49.535 146.008  10.555  1.00 19.09     0.044 C 
HETATM   29  C27 STQ D3621     -48.390 145.546   9.646  1.00 18.58    -0.016 C 
HETATM   30  C28 STQ D3621     -47.755 144.348   9.763  1.00 19.42     0.003 C 
HETATM   31  C29 STQ D3621     -46.739 143.778   8.856  1.00 21.21    -0.062 C 
HETATM   32  C30 STQ D3621     -46.180 142.586   9.173  1.00 20.08     0.007 C 
HETATM   33  C31 STQ D3621     -45.166 141.889   8.415  1.00 17.89     0.001 C 
HETATM   34  C32 STQ D3621     -44.499 140.809   8.890  1.00 17.64     0.007 C 
HETATM   35  C33 STQ D3621     -43.407 140.044   8.238  1.00 17.45    -0.062 C 
HETATM   36  C34 STQ D3621     -42.801 139.067   8.955  1.00 15.95     0.007 C 
HETATM   37  C35 STQ D3621     -41.688 138.229   8.533  1.00 18.41     0.001 C 
HETATM   38  C36 STQ D3621     -50.864 146.336   8.392  1.00 20.23     0.016 C 
HETATM   39  C37 STQ D3621     -51.405 144.411   9.928  1.00 15.16     0.016 C 
HETATM   40  C38 STQ D3621     -47.955 147.713  11.703  1.00 16.76     0.044 C 
HETATM   41  C39 STQ D3621     -46.326 144.607   7.669  1.00 22.05     0.048 C 
HETATM   42  C40 STQ D3621     -42.998 140.460   6.848  1.00 11.49     0.048 C 
HETATM   43  O23 STQ D3621     -52.599 148.707  11.780  1.00 18.64    -0.392 OA
ATOM     44  H23 STQ D3621     -53.494 148.589  11.484  1.00  0.00     0.210 HD
ENDROOT
TORSDOF 12
BEGIN_RES PHE A  61
REMARK  2 active torsions:
REMARK  status: ('A' for Active; 'I' for Inactive)
REMARK    1  A    between atoms: CA   and  CB  
REMARK    2  A    between atoms: CB   and  CG  
ROOT
ATOM      1  CA  PHE A  61     -36.237 128.293  12.768  1.00 39.40     0.164 C 
ENDROOT
BRANCH   1   2
ATOM      2  CB  PHE A  61     -36.813 128.951  11.509  1.00 39.41     0.058 C 
BRANCH   2   3
ATOM      3  CG  PHE A  61     -37.013 128.007  10.347  1.00 39.01    -0.020 A 
ATOM      4  CD2 PHE A  61     -36.280 126.835  10.249  1.00 40.32    -0.004 A 
ATOM      5  CE2 PHE A  61     -36.463 125.969   9.178  1.00 40.20    -0.000 A 
ATOM      6  CZ  PHE A  61     -37.382 126.263   8.196  1.00 40.34    -0.000 A 
ATOM      7  CE1 PHE A  61     -38.119 127.423   8.281  1.00 41.51    -0.000 A 
ATOM      8  CD1 PHE A  61     -37.932 128.292   9.348  1.00 39.94    -0.004 A 
ENDBRANCH   2   3
ENDBRANCH   1   2
END_RES PHE A  61
BEGIN_RES VAL A 134
REMARK  1 active torsions:
REMARK  status: ('A' for Active; 'I' for Inactive)
REMARK    3  A    between atoms: CA   and  CB  
ROOT
ATOM      9  CA  VAL A 134     -29.766 132.051   9.815  1.00 40.75     0.159 C 
ENDROOT
BRANCH   9  10
ATOM     10  CB  VAL A 134     -30.864 132.765   9.009  1.00 40.76     0.029 C 
ATOM     11  CG1 VAL A 134     -32.108 132.973   9.861  1.00 41.76     0.002 C 
ATOM     12  CG2 VAL A 134     -30.372 134.086   8.439  1.00 40.56     0.002 C 
ENDBRANCH   9  10
END_RES VAL A 134
BEGIN_RES TYR A 338
REMARK  3 active torsions:
REMARK  status: ('A' for Active; 'I' for Inactive)
REMARK    4  A    between atoms: CA   and  CB  
REMARK    5  A    between atoms: CB   and  CG  
REMARK    6  A    between atoms: CZ   and  OH  
ROOT
ATOM     13  CA  TYR A 338     -41.631 124.950   6.058  1.00 38.23     0.164 C 
ENDROOT
BRANCH  13  14
ATOM     14  CB  TYR A 338     -41.621 126.456   6.339  1.00 39.15     0.058 C 
BRANCH  14  15
ATOM     15  CG  TYR A 338     -40.422 127.213   5.815  1.00 39.03    -0.020 A 
ATOM     16  CD2 TYR A 338     -40.270 128.561   6.091  1.00 40.65    -0.002 A 
ATOM     17  CE2 TYR A 338     -39.191 129.290   5.614  1.00 40.91     0.024 A 
ATOM     18  CZ  TYR A 338     -38.232 128.668   4.838  1.00 42.33     0.089 A 
ATOM     19  CE1 TYR A 338     -38.360 127.320   4.552  1.00 40.63     0.024 A 
ATOM     20  CD1 TYR A 338     -39.453 126.612   5.028  1.00 39.27    -0.002 A 
BRANCH  18  21
ATOM     21  OH  TYR A 338     -37.162 129.376   4.366  1.00 43.36    -0.359 OA
ATOM     22  HH  TYR A 338     -36.943 129.357   3.441  1.00  0.00     0.217 HD
ENDBRANCH  18  21
ENDBRANCH  14  15
ENDBRANCH  13  14
END_RES TYR A 338
ENDMDL
MODEL 3
REMARK VINA RESULT:    -4.596      1.342     17.407
REMARK INTER + INTRA:          -7.907
REMARK INTER:                  -7.556
REMARK INTRA:                  -0.352
REMARK UNBOUND:                -3.311
REMARK  0 active torsions:
REMARK  status: ('A' for Active; 'I' for Inactive)
REMARK       I    between atoms: C3_3  and  O3_21 
REMARK       I    between atoms: C6_6  and  C7_7 
REMARK       I    between atoms: C8_8  and  C9_9 
REMARK       I    between atoms: C10_10  and  C11_11 
REMARK       I    between atoms: C12_12  and  C13_13 
REMARK       I    between atoms: C14_14  and  C15_15 
REMARK       I    between atoms: C23_25  and  O23_43 
REMARK       I    between atoms: C26_28  and  C27_29 
REMARK       I    between atoms: C28_30  and  C29_31 
REMARK       I    between atoms: C30_32  and  C31_33 
REMARK       I    between atoms: C32_34  and  C33_35 
REMARK       I    between atoms: C34_36  and  C35_37 
ROOT
HETATM    1  C1  STQ D3621     -50.131 146.641  12.168  1.00 23.41    -0.018 C 
HETATM    2  C2  STQ D3621     -51.059 147.181  13.271  1.00 23.79     0.045 C 
HETATM    3  C3  STQ D3621     -50.502 148.057  14.391  1.00 23.28     0.123 C 
HETATM    4  C4  STQ D3621     -49.152 148.714  14.061  1.00 23.70     0.066 C 
HETATM    5  C5  STQ D3621     -48.279 148.173  12.965  1.00 23.84    -0.074 C 
HETATM    6  C6  STQ D3621     -48.689 147.214  12.059  1.00 22.99    -0.048 C 
HETATM    7  C7  STQ D3621     -47.849 146.670  10.959  1.00 20.55     0.009 C 
HETATM    8  C8  STQ D3621     -46.920 145.700  11.107  1.00 19.35     0.007 C 
HETATM    9  C9  STQ D3621     -45.997 145.122  10.127  1.00 18.45    -0.062 C 
HETATM   10  C10 STQ D3621     -45.258 144.062  10.523  1.00 18.11     0.007 C 
HETATM   11  C11 STQ D3621     -44.363 143.283   9.716  1.00 18.44     0.001 C 
HETATM   12  C12 STQ D3621     -43.730 142.186  10.191  1.00 19.34     0.007 C 
HETATM   13  C13 STQ D3621     -42.875 141.272   9.410  1.00 20.12    -0.062 C 
HETATM   14  C14 STQ D3621     -42.338 140.197  10.035  1.00 19.73     0.007 C 
HETATM   15  C15 STQ D3621     -41.515 139.146   9.442  1.00 19.24     0.001 C 
HETATM   16  C16 STQ D3621     -50.937 146.964  10.905  1.00 23.73     0.020 C 
HETATM   17  C17 STQ D3621     -50.078 145.115  12.318  1.00 23.42     0.020 C 
HETATM   18  C18 STQ D3621     -46.960 148.854  13.011  1.00 22.78     0.044 C 
HETATM   19  C19 STQ D3621     -45.993 145.692   8.743  1.00 16.12     0.048 C 
HETATM   20  C20 STQ D3621     -42.685 141.592   7.953  1.00 17.75     0.048 C 
HETATM   21  O3  STQ D3621     -51.458 149.039  14.765  1.00 21.52    -0.395 OA
ATOM     22  H3  STQ D3621     -51.112 149.584  15.461  1.00  0.00     0.210 HD
HETATM   23  C21 STQ D3621     -34.240 128.559   7.098  1.00 19.77    -0.035 C 
HETATM   24  C22 STQ D3621     -33.386 127.581   6.265  1.00 17.50     0.045 C 
HETATM   25  C23 STQ D3621     -31.879 127.747   6.441  1.00 17.67     0.142 C 
HETATM   26  C24 STQ D3621     -31.413 129.208   6.591  1.00 18.06     0.007 C 
HETATM   27  C25 STQ D3621     -32.284 130.213   6.864  1.00 19.36    -0.077 C 
HETATM   28  C26 STQ D3621     -33.793 130.054   7.044  1.00 19.09     0.044 C 
HETATM   29  C27 STQ D3621     -34.360 130.895   8.194  1.00 18.58    -0.016 C 
HETATM   30  C28 STQ D3621     -35.407 131.755   8.069  1.00 19.42     0.003 C 
HETATM   31  C29 STQ D3621     -36.091 132.500   9.145  1.00 21.21    -0.062 C 
HETATM   32  C30 STQ D3621     -37.087 133.356   8.812  1.00 20.08     0.007 C 
HETATM   33  C31 STQ D3621     -37.852 134.173   9.726  1.00 17.89     0.001 C 
HETATM   34  C32 STQ D3621     -38.686 135.159   9.315  1.00 17.64     0.007 C 
HETATM   35  C33 STQ D3621     -39.479 136.097  10.148  1.00 17.45    -0.062 C 
HETATM   36  C34 STQ D3621     -40.156 137.088   9.519  1.00 15.95     0.007 C 
HETATM   37  C35 STQ D3621     -40.954 138.136  10.135  1.00 18.41     0.001 C 
HETATM   38  C36 STQ D3621     -34.205 128.041   8.570  1.00 20.23     0.016 C 
HETATM   39  C37 STQ D3621     -35.688 128.434   6.570  1.00 15.16     0.016 C 
HETATM   40  C38 STQ D3621     -31.684 131.559   6.963  1.00 16.76     0.044 C 
HETATM   41  C39 STQ D3621     -35.575 132.320  10.548  1.00 22.05     0.048 C 
HETATM   42  C40 STQ D3621     -39.414 135.927  11.645  1.00 11.49     0.048 C 
HETATM   43  O23 STQ D3621     -31.203 127.111   5.372  1.00 18.64    -0.392 OA
ATOM     44  H23 STQ D3621     -31.490 126.209   5.280  1.00  0.00     0.210 HD
ENDROOT
TORSDOF 12
BEGIN_RES PHE A  61
REMARK  2 active torsions:
REMARK  status: ('A' for Active; 'I' for Inactive)
REMARK    1  A    between atoms: CA   and  CB  
REMARK    2  A    between atoms: CB   and  CG  
ROOT
ATOM      1  CA  PHE A  61     -36.237 128.293  12.768  1.00 39.40     0.164 C 
ENDROOT
BRANCH   1   2
ATOM      2  CB  PHE A  61     -36.813 128.951  11.509  1.00 39.41     0.058 C 
BRANCH   2   3
ATOM      3  CG  PHE A  61     -37.024 128.005  10.351  1.00 39.01    -0.020 A 
ATOM      4  CD2 PHE A  61     -36.274 126.845  10.234  1.00 40.32    -0.004 A 
ATOM      5  CE2 PHE A  61     -36.467 125.977   9.167  1.00 40.20    -0.000 A 
ATOM      6  CZ  PHE A  61     -37.413 126.257   8.207  1.00 40.34    -0.000 A 
ATOM      7  CE1 PHE A  61     -38.168 127.404   8.311  1.00 41.51    -0.000 A 
ATOM      8  CD1 PHE A  61     -37.971 128.275   9.374  1.00 39.94    -0.004 A 
ENDBRANCH   2   3
ENDBRANCH   1   2
END_RES PHE A  61
BEGIN_RES VAL A 134
REMARK  1 active torsions:
REMARK  status: ('A' for Active; 'I' for Inactive)
REMARK    3  A    between atoms: CA   and  CB  
ROOT
ATOM      9  CA  VAL A 134     -29.766 132.051   9.815  1.00 40.75     0.159 C 
ENDROOT
BRANCH   9  10
ATOM     10  CB  VAL A 134     -30.864 132.765   9.009  1.00 40.76     0.029 C 
ATOM     11  CG1 VAL A 134     -32.119 132.945   9.851  1.00 41.76     0.002 C 
ATOM     12  CG2 VAL A 134     -30.382 134.101   8.465  1.00 40.56     0.002 C 
ENDBRANCH   9  10
END_RES VAL A 134
BEGIN_RES TYR A 338
REMARK  3 active torsions:
REMARK  status: ('A' for Active; 'I' for Inactive)
REMARK    4  A    between atoms: CA   and  CB  
REMARK    5  A    between atoms: CB   and  CG  
REMARK    6  A    between atoms: CZ   and  OH  
ROOT
ATOM     13  CA  TYR A 338     -41.631 124.950   6.058  1.00 38.23     0.164 C 
ENDROOT
BRANCH  13  14
ATOM     14  CB  TYR A 338     -41.621 126.456   6.339  1.00 39.15     0.058 C 
BRANCH  14  15
ATOM     15  CG  TYR A 338     -40.425 127.214   5.811  1.00 39.03    -0.020 A 
ATOM     16  CD2 TYR A 338     -40.263 128.558   6.101  1.00 40.65    -0.002 A 
ATOM     17  CE2 TYR A 338     -39.187 129.288   5.620  1.00 40.91     0.024 A 
ATOM     18  CZ  TYR A 338     -38.239 128.671   4.826  1.00 42.33     0.089 A 
ATOM     19  CE1 TYR A 338     -38.376 127.327   4.526  1.00 40.63     0.024 A 
ATOM     20  CD1 TYR A 338     -39.467 126.618   5.006  1.00 39.27    -0.002 A 
BRANCH  18  21
ATOM     21  OH  TYR A 338     -37.171 129.380   4.350  1.00 43.36    -0.359 OA
ATOM     22  HH  TYR A 338     -36.995 130.256   4.671  1.00  0.00     0.217 HD
ENDBRANCH  18  21
ENDBRANCH  14  15
ENDBRANCH  13  14
END_RES TYR A 338
ENDMDL
