MODEL 1
REMARK VINA RESULT:   -10.141      0.000      0.000
REMARK INTER + INTRA:         -12.445
REMARK INTER:                 -10.141
REMARK INTRA:                  -2.304
REMARK UNBOUND:                -2.304
REMARK  0 active torsions:
REMARK  status: ('A' for Active; 'I' for Inactive)
REMARK       I    between atoms: C3_3  and  O3_21 
REMARK       I    between atoms: C6_6  and  C7_7 
REMARK       I    between atoms: C8_8  and  C9_9 
REMARK       I    between atoms: C10_10  and  C11_11 
REMARK       I    between atoms: C12_12  and  C13_13 
REMARK       I    between atoms: C14_14  and  C15_15 
REMARK       I    between atoms: C23_25  and  O23_43 
REMARK       I    between atoms: C26_28  and  C27_29 
REMARK       I    between atoms: C28_30  and  C29_31 
REMARK       I    between atoms: C30_32  and  C31_33 
REMARK       I    between atoms: C32_34  and  C33_35 
REMARK       I    between atoms: C34_36  and  C35_37 
ROOT
HETATM    1  C1  STQ 1 617     -34.250 127.087   6.578  1.00 38.90    -0.018 C 
HETATM    2  C2  STQ 1 617     -34.241 127.190   5.054  1.00 38.90     0.045 C 
HETATM    3  C3  STQ 1 617     -33.125 128.045   4.461  1.00 38.90     0.123 C 
HETATM    4  C4  STQ 1 617     -31.976 128.168   5.443  1.00 38.90     0.066 C 
HETATM    5  C5  STQ 1 617     -32.545 128.845   6.656  1.00 38.90    -0.074 C 
HETATM    6  C6  STQ 1 617     -33.583 128.259   7.259  1.00 38.90    -0.048 C 
HETATM    7  C7  STQ 1 617     -34.222 128.867   8.439  1.00 38.90     0.009 C 
HETATM    8  C8  STQ 1 617     -34.466 130.166   8.284  1.00 38.90     0.007 C 
HETATM    9  C9  STQ 1 617     -35.273 130.925   9.257  1.00 38.90    -0.062 C 
HETATM   10  C10 STQ 1 617     -35.766 132.090   8.821  1.00 38.90     0.007 C 
HETATM   11  C11 STQ 1 617     -36.687 132.929   9.580  1.00 38.90     0.001 C 
HETATM   12  C12 STQ 1 617     -37.279 133.943   8.962  1.00 38.90     0.007 C 
HETATM   13  C13 STQ 1 617     -38.284 134.790   9.626  1.00 38.90    -0.062 C 
HETATM   14  C14 STQ 1 617     -38.938 135.659   8.841  1.00 38.90     0.007 C 
HETATM   15  C15 STQ 1 617     -39.991 136.564   9.287  1.00 38.90     0.001 C 
HETATM   16  C16 STQ 1 617     -33.455 125.850   6.993  1.00 38.90     0.020 C 
HETATM   17  C17 STQ 1 617     -35.680 126.959   7.084  1.00 38.90     0.020 C 
HETATM   18  C18 STQ 1 617     -31.593 129.781   7.360  1.00 38.90     0.044 C 
HETATM   19  C19 STQ 1 617     -35.541 130.366  10.625  1.00 38.90     0.048 C 
HETATM   20  C20 STQ 1 617     -38.537 134.620  11.094  1.00 38.90     0.048 C 
HETATM   21  O3  STQ 1 617     -32.640 127.450   3.254  1.00 38.90    -0.395 OA
ATOM     22  H3  STQ 1 617     -31.945 127.982   2.884  1.00  0.00     0.210 HD
HETATM   23  C21 STQ 1 617     -49.563 144.595   9.329  1.00 38.90    -0.035 C 
HETATM   24  C22 STQ 1 617     -50.457 145.235  10.364  1.00 38.90     0.045 C 
HETATM   25  C23 STQ 1 617     -50.450 146.741  10.218  1.00 38.90     0.142 C 
HETATM   26  C24 STQ 1 617     -49.040 147.262  10.073  1.00 38.90     0.007 C 
HETATM   27  C25 STQ 1 617     -47.984 146.468   9.824  1.00 38.90    -0.077 C 
HETATM   28  C26 STQ 1 617     -48.127 144.983   9.647  1.00 38.90     0.044 C 
HETATM   29  C27 STQ 1 617     -47.239 144.428   8.560  1.00 38.90    -0.016 C 
HETATM   30  C28 STQ 1 617     -46.445 143.420   8.889  1.00 38.90     0.003 C 
HETATM   31  C29 STQ 1 617     -45.542 142.753   7.940  1.00 38.90    -0.062 C 
HETATM   32  C30 STQ 1 617     -44.849 141.730   8.454  1.00 38.90     0.007 C 
HETATM   33  C31 STQ 1 617     -43.886 140.909   7.736  1.00 38.90     0.001 C 
HETATM   34  C32 STQ 1 617     -43.264 139.978   8.449  1.00 38.90     0.007 C 
HETATM   35  C33 STQ 1 617     -42.235 139.093   7.886  1.00 38.90    -0.062 C 
HETATM   36  C34 STQ 1 617     -41.616 138.268   8.751  1.00 38.90     0.007 C 
HETATM   37  C35 STQ 1 617     -40.556 137.339   8.374  1.00 38.90     0.001 C 
HETATM   38  C36 STQ 1 617     -49.958 145.028   7.923  1.00 38.90     0.016 C 
HETATM   39  C37 STQ 1 617     -49.728 143.086   9.434  1.00 38.90     0.016 C 
HETATM   40  C38 STQ 1 617     -46.625 147.093   9.774  1.00 38.90     0.044 C 
HETATM   41  C39 STQ 1 617     -45.473 143.205   6.511  1.00 38.90     0.048 C 
HETATM   42  C40 STQ 1 617     -41.925 139.185   6.423  1.00 38.90     0.048 C 
HETATM   43  O23 STQ 1 617     -51.035 147.295  11.396  1.00 38.90    -0.392 OA
ATOM     44  H23 STQ 1 617     -51.030 148.241  11.304  1.00  0.00     0.210 HD
ENDROOT
TORSDOF 12
BEGIN_RES PHE A  61
REMARK  2 active torsions:
REMARK  status: ('A' for Active; 'I' for Inactive)
REMARK    1  A    between atoms: CA   and  CB  
REMARK    2  A    between atoms: CB   and  CG  
ROOT
ATOM      1  CA  PHE A  61     -36.237 128.293  12.768  1.00 39.40     0.164 C 
ENDROOT
BRANCH   1   2
ATOM      2  CB  PHE A  61     -36.813 128.951  11.509  1.00 39.41     0.058 C 
BRANCH   2   3
ATOM      3  CG  PHE A  61     -37.108 127.990  10.382  1.00 39.01    -0.020 A 
ATOM      4  CD2 PHE A  61     -36.398 126.807  10.251  1.00 40.32    -0.004 A 
ATOM      5  CE2 PHE A  61     -36.668 125.926   9.212  1.00 40.20    -0.000 A 
ATOM      6  CZ  PHE A  61     -37.653 126.215   8.295  1.00 40.34    -0.000 A 
ATOM      7  CE1 PHE A  61     -38.369 127.385   8.413  1.00 41.51    -0.000 A 
ATOM      8  CD1 PHE A  61     -38.095 128.270   9.448  1.00 39.94    -0.004 A 
ENDBRANCH   2   3
ENDBRANCH   1   2
END_RES PHE A  61
BEGIN_RES VAL A 134
REMARK  1 active torsions:
REMARK  status: ('A' for Active; 'I' for Inactive)
REMARK    3  A    between atoms: CA   and  CB  
ROOT
ATOM      9  CA  VAL A 134     -29.766 132.051   9.815  1.00 40.75     0.159 C 
ENDROOT
BRANCH   9  10
ATOM     10  CB  VAL A 134     -30.864 132.765   9.009  1.00 40.76     0.029 C 
ATOM     11  CG1 VAL A 134     -30.913 132.238   7.582  1.00 41.76     0.002 C 
ATOM     12  CG2 VAL A 134     -32.224 132.639   9.679  1.00 40.56     0.002 C 
ENDBRANCH   9  10
END_RES VAL A 134
BEGIN_RES TYR A 338
REMARK  3 active torsions:
REMARK  status: ('A' for Active; 'I' for Inactive)
REMARK    4  A    between atoms: CA   and  CB  
REMARK    5  A    between atoms: CB   and  CG  
REMARK    6  A    between atoms: CZ   and  OH  
ROOT
ATOM     13  CA  TYR A 338     -41.631 124.950   6.058  1.00 38.23     0.164 C 
ENDROOT
BRANCH  13  14
ATOM     14  CB  TYR A 338     -41.621 126.456   6.339  1.00 39.15     0.058 C 
BRANCH  14  15
ATOM     15  CG  TYR A 338     -40.392 127.202   5.872  1.00 39.03    -0.020 A 
ATOM     16  CD2 TYR A 338     -40.225 128.541   6.184  1.00 40.65    -0.002 A 
ATOM     17  CE2 TYR A 338     -39.119 129.260   5.759  1.00 40.91     0.024 A 
ATOM     18  CZ  TYR A 338     -38.146 128.638   5.000  1.00 42.33     0.089 A 
ATOM     19  CE1 TYR A 338     -38.288 127.300   4.680  1.00 40.63     0.024 A 
ATOM     20  CD1 TYR A 338     -39.408 126.601   5.103  1.00 39.27    -0.002 A 
BRANCH  18  21
ATOM     21  OH  TYR A 338     -37.048 129.337   4.580  1.00 43.36    -0.359 OA
ATOM     22  HH  TYR A 338     -36.183 129.113   4.904  1.00  0.00     0.217 HD
ENDBRANCH  18  21
ENDBRANCH  14  15
ENDBRANCH  13  14
END_RES TYR A 338
ENDMDL
MODEL 2
REMARK VINA RESULT:    -8.709      1.552     16.547
REMARK INTER + INTRA:         -11.013
REMARK INTER:                 -10.001
REMARK INTRA:                  -1.012
REMARK UNBOUND:                -2.304
REMARK  0 active torsions:
REMARK  status: ('A' for Active; 'I' for Inactive)
REMARK       I    between atoms: C3_3  and  O3_21 
REMARK       I    between atoms: C6_6  and  C7_7 
REMARK       I    between atoms: C8_8  and  C9_9 
REMARK       I    between atoms: C10_10  and  C11_11 
REMARK       I    between atoms: C12_12  and  C13_13 
REMARK       I    between atoms: C14_14  and  C15_15 
REMARK       I    between atoms: C23_25  and  O23_43 
REMARK       I    between atoms: C26_28  and  C27_29 
REMARK       I    between atoms: C28_30  and  C29_31 
REMARK       I    between atoms: C30_32  and  C31_33 
REMARK       I    between atoms: C32_34  and  C33_35 
REMARK       I    between atoms: C34_36  and  C35_37 
ROOT
HETATM    1  C1  STQ 1 617     -50.594 144.536  11.826  1.00 38.90    -0.018 C 
HETATM    2  C2  STQ 1 617     -50.795 144.041  13.258  1.00 38.90     0.045 C 
HETATM    3  C3  STQ 1 617     -49.988 144.775  14.325  1.00 38.90     0.123 C 
HETATM    4  C4  STQ 1 617     -49.580 146.148  13.826  1.00 38.90     0.066 C 
HETATM    5  C5  STQ 1 617     -48.725 145.907  12.618  1.00 38.90    -0.074 C 
HETATM    6  C6  STQ 1 617     -49.260 145.211  11.611  1.00 38.90    -0.048 C 
HETATM    7  C7  STQ 1 617     -48.484 144.905  10.397  1.00 38.90     0.009 C 
HETATM    8  C8  STQ 1 617     -47.265 144.441  10.666  1.00 38.90     0.007 C 
HETATM    9  C9  STQ 1 617     -46.396 143.889   9.611  1.00 38.90    -0.062 C 
HETATM   10  C10 STQ 1 617     -45.384 143.122  10.034  1.00 38.90     0.007 C 
HETATM   11  C11 STQ 1 617     -44.488 142.383   9.150  1.00 38.90     0.001 C 
HETATM   12  C12 STQ 1 617     -43.668 141.486   9.684  1.00 38.90     0.007 C 
HETATM   13  C13 STQ 1 617     -42.790 140.637   8.861  1.00 38.90    -0.062 C 
HETATM   14  C14 STQ 1 617     -42.150 139.650   9.504  1.00 38.90     0.007 C 
HETATM   15  C15 STQ 1 617     -41.262 138.678   8.877  1.00 38.90     0.001 C 
HETATM   16  C16 STQ 1 617     -51.656 145.589  11.515  1.00 38.90     0.020 C 
HETATM   17  C17 STQ 1 617     -50.734 143.376  10.849  1.00 38.90     0.020 C 
HETATM   18  C18 STQ 1 617     -47.593 146.891  12.440  1.00 38.90     0.044 C 
HETATM   19  C19 STQ 1 617     -46.691 144.156   8.162  1.00 38.90     0.048 C 
HETATM   20  C20 STQ 1 617     -42.685 140.895   7.387  1.00 38.90     0.048 C 
HETATM   21  O3  STQ 1 617     -50.770 144.927  15.513  1.00 38.90    -0.395 OA
ATOM     22  H3  STQ 1 617     -50.268 145.384  16.177  1.00  0.00     0.210 HD
HETATM   23  C21 STQ 1 617     -34.180 128.583   6.860  1.00 38.90    -0.035 C 
HETATM   24  C22 STQ 1 617     -33.421 127.985   5.699  1.00 38.90     0.045 C 
HETATM   25  C23 STQ 1 617     -31.979 127.731   6.078  1.00 38.90     0.142 C 
HETATM   26  C24 STQ 1 617     -31.385 128.931   6.776  1.00 38.90     0.007 C 
HETATM   27  C25 STQ 1 617     -32.125 129.953   7.240  1.00 38.90    -0.077 C 
HETATM   28  C26 STQ 1 617     -33.622 129.974   7.118  1.00 38.90     0.044 C 
HETATM   29  C27 STQ 1 617     -34.309 130.537   8.338  1.00 38.90    -0.016 C 
HETATM   30  C28 STQ 1 617     -35.164 131.529   8.143  1.00 38.90     0.003 C 
HETATM   31  C29 STQ 1 617     -35.931 132.166   9.223  1.00 38.90    -0.062 C 
HETATM   32  C30 STQ 1 617     -36.772 133.125   8.820  1.00 38.90     0.007 C 
HETATM   33  C31 STQ 1 617     -37.639 133.914   9.682  1.00 38.90     0.001 C 
HETATM   34  C32 STQ 1 617     -38.357 134.857   9.084  1.00 38.90     0.007 C 
HETATM   35  C33 STQ 1 617     -39.250 135.767   9.814  1.00 38.90    -0.062 C 
HETATM   36  C34 STQ 1 617     -39.835 136.741   9.092  1.00 38.90     0.007 C 
HETATM   37  C35 STQ 1 617     -40.731 137.745   9.654  1.00 38.90     0.001 C 
HETATM   38  C36 STQ 1 617     -34.068 127.701   8.097  1.00 38.90     0.016 C 
HETATM   39  C37 STQ 1 617     -35.647 128.677   6.465  1.00 38.90     0.016 C 
HETATM   40  C38 STQ 1 617     -31.414 131.121   7.851  1.00 38.90     0.044 C 
HETATM   41  C39 STQ 1 617     -35.767 131.708  10.643  1.00 38.90     0.048 C 
HETATM   42  C40 STQ 1 617     -39.426 135.575  11.290  1.00 38.90     0.048 C 
HETATM   43  O23 STQ 1 617     -31.251 127.481   4.876  1.00 38.90    -0.392 OA
ATOM     44  H23 STQ 1 617     -30.345 127.322   5.114  1.00  0.00     0.210 HD
ENDROOT
TORSDOF 12
BEGIN_RES PHE A  61
REMARK  2 active torsions:
REMARK  status: ('A' for Active; 'I' for Inactive)
REMARK    1  A    between atoms: CA   and  CB  
REMARK    2  A    between atoms: CB   and  CG  
ROOT
ATOM      1  CA  PHE A  61     -36.237 128.293  12.768  1.00 39.40     0.164 C 
ENDROOT
BRANCH   1   2
ATOM      2  CB  PHE A  61     -36.813 128.951  11.509  1.00 39.41     0.058 C 
BRANCH   2   3
ATOM      3  CG  PHE A  61     -36.968 128.017  10.332  1.00 39.01    -0.020 A 
ATOM      4  CD2 PHE A  61     -36.135 126.920  10.180  1.00 40.32    -0.004 A 
ATOM      5  CE2 PHE A  61     -36.277 126.064   9.095  1.00 40.20    -0.000 A 
ATOM      6  CZ  PHE A  61     -37.255 126.293   8.154  1.00 40.34    -0.000 A 
ATOM      7  CE1 PHE A  61     -38.092 127.377   8.292  1.00 41.51    -0.000 A 
ATOM      8  CD1 PHE A  61     -37.946 128.238   9.373  1.00 39.94    -0.004 A 
ENDBRANCH   2   3
ENDBRANCH   1   2
END_RES PHE A  61
BEGIN_RES VAL A 134
REMARK  1 active torsions:
REMARK  status: ('A' for Active; 'I' for Inactive)
REMARK    3  A    between atoms: CA   and  CB  
ROOT
ATOM      9  CA  VAL A 134     -29.766 132.051   9.815  1.00 40.75     0.159 C 
ENDROOT
BRANCH   9  10
ATOM     10  CB  VAL A 134     -30.864 132.765   9.009  1.00 40.76     0.029 C 
ATOM     11  CG1 VAL A 134     -32.107 132.975   9.861  1.00 41.76     0.002 C 
ATOM     12  CG2 VAL A 134     -30.372 134.086   8.437  1.00 40.56     0.002 C 
ENDBRANCH   9  10
END_RES VAL A 134
BEGIN_RES TYR A 338
REMARK  3 active torsions:
REMARK  status: ('A' for Active; 'I' for Inactive)
REMARK    4  A    between atoms: CA   and  CB  
REMARK    5  A    between atoms: CB   and  CG  
REMARK    6  A    between atoms: CZ   and  OH  
ROOT
ATOM     13  CA  TYR A 338     -41.631 124.950   6.058  1.00 38.23     0.164 C 
ENDROOT
BRANCH  13  14
ATOM     14  CB  TYR A 338     -41.621 126.456   6.339  1.00 39.15     0.058 C 
BRANCH  14  15
ATOM     15  CG  TYR A 338     -40.426 127.214   5.809  1.00 39.03    -0.020 A 
ATOM     16  CD2 TYR A 338     -40.269 128.561   6.090  1.00 40.65    -0.002 A 
ATOM     17  CE2 TYR A 338     -39.194 129.291   5.608  1.00 40.91     0.024 A 
ATOM     18  CZ  TYR A 338     -38.243 128.672   4.820  1.00 42.33     0.089 A 
ATOM     19  CE1 TYR A 338     -38.375 127.326   4.528  1.00 40.63     0.024 A 
ATOM     20  CD1 TYR A 338     -39.464 126.616   5.010  1.00 39.27    -0.002 A 
BRANCH  18  21
ATOM     21  OH  TYR A 338     -37.176 129.381   4.342  1.00 43.36    -0.359 OA
ATOM     22  HH  TYR A 338     -37.307 130.083   3.715  1.00  0.00     0.217 HD
ENDBRANCH  18  21
ENDBRANCH  14  15
ENDBRANCH  13  14
END_RES TYR A 338
ENDMDL
