MODEL 1
REMARK VINA RESULT:    -9.664      0.000      0.000
REMARK INTER + INTRA:         -10.039
REMARK INTER:                  -9.664
REMARK INTRA:                  -0.375
REMARK UNBOUND:                -0.375
REMARK  0 active torsions:
REMARK  status: ('A' for Active; 'I' for Inactive)
REMARK       I    between atoms: C3_3  and  O3_21 
REMARK       I    between atoms: C6_6  and  C7_7 
REMARK       I    between atoms: C8_8  and  C9_9 
REMARK       I    between atoms: C10_10  and  C11_11 
REMARK       I    between atoms: C12_12  and  C13_13 
REMARK       I    between atoms: C14_14  and  C15_15 
REMARK       I    between atoms: C23_25  and  O23_43 
REMARK       I    between atoms: C26_28  and  C27_29 
REMARK       I    between atoms: C28_30  and  C29_31 
REMARK       I    between atoms: C30_32  and  C31_33 
REMARK       I    between atoms: C32_34  and  C33_35 
REMARK       I    between atoms: C34_36  and  C35_37 
ROOT
HETATM    1  C1  STQ H7621     -34.120 128.228   7.019  1.00 22.61    -0.018 C 
HETATM    2  C2  STQ H7621     -33.356 127.589   5.846  1.00 23.33     0.045 C 
HETATM    3  C3  STQ H7621     -31.968 128.096   5.445  1.00 24.77     0.123 C 
HETATM    4  C4  STQ H7621     -31.342 129.154   6.370  1.00 22.10     0.066 C 
HETATM    5  C5  STQ H7621     -32.183 129.850   7.386  1.00 21.89    -0.074 C 
HETATM    6  C6  STQ H7621     -33.460 129.459   7.721  1.00 21.83    -0.048 C 
HETATM    7  C7  STQ H7621     -34.297 130.140   8.735  1.00 21.27     0.009 C 
HETATM    8  C8  STQ H7621     -34.997 131.277   8.516  1.00 20.16     0.007 C 
HETATM    9  C9  STQ H7621     -35.835 132.010   9.454  1.00 19.98    -0.062 C 
HETATM   10  C10 STQ H7621     -36.552 133.051   8.971  1.00 19.41     0.007 C 
HETATM   11  C11 STQ H7621     -37.509 133.843   9.703  1.00 19.37     0.001 C 
HETATM   12  C12 STQ H7621     -38.253 134.813   9.132  1.00 19.06     0.007 C 
HETATM   13  C13 STQ H7621     -39.311 135.608   9.776  1.00 20.91    -0.062 C 
HETATM   14  C14 STQ H7621     -39.970 136.514   9.021  1.00 20.64     0.007 C 
HETATM   15  C15 STQ H7621     -41.067 137.346   9.430  1.00 20.44     0.001 C 
HETATM   16  C16 STQ H7621     -34.284 127.067   8.011  1.00 21.21     0.020 C 
HETATM   17  C17 STQ H7621     -35.532 128.584   6.505  1.00 21.56     0.020 C 
HETATM   18  C18 STQ H7621     -31.387 130.961   7.952  1.00 21.82     0.044 C 
HETATM   19  C19 STQ H7621     -35.912 131.509  10.867  1.00 18.20     0.048 C 
HETATM   20  C20 STQ H7621     -39.620 135.334  11.228  1.00 20.18     0.048 C 
HETATM   21  O3  STQ H7621     -31.073 127.002   5.270  1.00 25.40    -0.395 OA
ATOM     22  H3  STQ H7621     -30.212 127.317   5.021  1.00  0.00     0.210 HD
HETATM   23  C21 STQ H7621     -50.858 145.728   9.927  1.00 19.11    -0.035 C 
HETATM   24  C22 STQ H7621     -51.981 146.523  10.618  1.00 18.10     0.045 C 
HETATM   25  C23 STQ H7621     -51.637 147.994  10.853  1.00 19.16     0.142 C 
HETATM   26  C24 STQ H7621     -50.209 148.202  11.385  1.00 17.14     0.007 C 
HETATM   27  C25 STQ H7621     -49.254 147.247  11.270  1.00 18.43    -0.077 C 
HETATM   28  C26 STQ H7621     -49.464 145.871  10.624  1.00 19.04     0.044 C 
HETATM   29  C27 STQ H7621     -48.303 145.474   9.725  1.00 19.23    -0.016 C 
HETATM   30  C28 STQ H7621     -47.644 144.305   9.829  1.00 22.69     0.003 C 
HETATM   31  C29 STQ H7621     -46.676 143.735   8.884  1.00 24.75    -0.062 C 
HETATM   32  C30 STQ H7621     -46.085 142.562   9.204  1.00 23.92     0.007 C 
HETATM   33  C31 STQ H7621     -45.081 141.872   8.441  1.00 24.21     0.001 C 
HETATM   34  C32 STQ H7621     -44.420 140.795   8.928  1.00 22.58     0.007 C 
HETATM   35  C33 STQ H7621     -43.324 140.041   8.292  1.00 22.21    -0.062 C 
HETATM   36  C34 STQ H7621     -42.737 139.059   9.009  1.00 21.24     0.007 C 
HETATM   37  C35 STQ H7621     -41.621 138.236   8.605  1.00 22.03     0.001 C 
HETATM   38  C36 STQ H7621     -50.782 146.201   8.445  1.00 19.21     0.016 C 
HETATM   39  C37 STQ H7621     -51.288 144.255   9.921  1.00 17.14     0.016 C 
HETATM   40  C38 STQ H7621     -47.940 147.624  11.858  1.00 13.06     0.044 C 
HETATM   41  C39 STQ H7621     -46.350 144.538   7.656  1.00 25.35     0.048 C 
HETATM   42  C40 STQ H7621     -42.878 140.463   6.917  1.00 19.46     0.048 C 
HETATM   43  O23 STQ H7621     -52.600 148.589  11.716  1.00 20.37    -0.392 OA
ATOM     44  H23 STQ H7621     -52.386 149.503  11.862  1.00  0.00     0.210 HD
ENDROOT
TORSDOF 12
BEGIN_RES PHE A  61
REMARK  2 active torsions:
REMARK  status: ('A' for Active; 'I' for Inactive)
REMARK    1  A    between atoms: CA   and  CB  
REMARK    2  A    between atoms: CB   and  CG  
ROOT
ATOM      1  CA  PHE A  61     -36.237 128.293  12.768  1.00 39.40     0.164 C 
ENDROOT
BRANCH   1   2
ATOM      2  CB  PHE A  61     -36.813 128.951  11.509  1.00 39.41     0.058 C 
BRANCH   2   3
ATOM      3  CG  PHE A  61     -37.025 128.005  10.352  1.00 39.01    -0.020 A 
ATOM      4  CD2 PHE A  61     -36.284 126.838  10.241  1.00 40.32    -0.004 A 
ATOM      5  CE2 PHE A  61     -36.478 125.970   9.174  1.00 40.20    -0.000 A 
ATOM      6  CZ  PHE A  61     -37.416 126.256   8.208  1.00 40.34    -0.000 A 
ATOM      7  CE1 PHE A  61     -38.161 127.410   8.304  1.00 41.51    -0.000 A 
ATOM      8  CD1 PHE A  61     -37.963 128.282   9.368  1.00 39.94    -0.004 A 
ENDBRANCH   2   3
ENDBRANCH   1   2
END_RES PHE A  61
BEGIN_RES VAL A 134
REMARK  1 active torsions:
REMARK  status: ('A' for Active; 'I' for Inactive)
REMARK    3  A    between atoms: CA   and  CB  
ROOT
ATOM      9  CA  VAL A 134     -29.766 132.051   9.815  1.00 40.75     0.159 C 
ENDROOT
BRANCH   9  10
ATOM     10  CB  VAL A 134     -30.864 132.765   9.009  1.00 40.76     0.029 C 
ATOM     11  CG1 VAL A 134     -32.107 132.976   9.862  1.00 41.76     0.002 C 
ATOM     12  CG2 VAL A 134     -30.371 134.085   8.437  1.00 40.56     0.002 C 
ENDBRANCH   9  10
END_RES VAL A 134
BEGIN_RES TYR A 338
REMARK  3 active torsions:
REMARK  status: ('A' for Active; 'I' for Inactive)
REMARK    4  A    between atoms: CA   and  CB  
REMARK    5  A    between atoms: CB   and  CG  
REMARK    6  A    between atoms: CZ   and  OH  
ROOT
ATOM     13  CA  TYR A 338     -41.631 124.950   6.058  1.00 38.23     0.164 C 
ENDROOT
BRANCH  13  14
ATOM     14  CB  TYR A 338     -41.621 126.456   6.339  1.00 39.15     0.058 C 
BRANCH  14  15
ATOM     15  CG  TYR A 338     -40.418 127.212   5.822  1.00 39.03    -0.020 A 
ATOM     16  CD2 TYR A 338     -40.262 128.558   6.105  1.00 40.65    -0.002 A 
ATOM     17  CE2 TYR A 338     -39.181 129.286   5.634  1.00 40.91     0.024 A 
ATOM     18  CZ  TYR A 338     -38.221 128.665   4.858  1.00 42.33     0.089 A 
ATOM     19  CE1 TYR A 338     -38.352 127.318   4.566  1.00 40.63     0.024 A 
ATOM     20  CD1 TYR A 338     -39.449 126.611   5.035  1.00 39.27    -0.002 A 
BRANCH  18  21
ATOM     21  OH  TYR A 338     -37.148 129.371   4.392  1.00 43.36    -0.359 OA
ATOM     22  HH  TYR A 338     -37.057 129.551   3.463  1.00  0.00     0.217 HD
ENDBRANCH  18  21
ENDBRANCH  14  15
ENDBRANCH  13  14
END_RES TYR A 338
ENDMDL
MODEL 2
REMARK VINA RESULT:    -9.403      2.018      2.580
REMARK INTER + INTRA:          -9.778
REMARK INTER:                  -7.133
REMARK INTRA:                  -2.645
REMARK UNBOUND:                -0.375
REMARK  0 active torsions:
REMARK  status: ('A' for Active; 'I' for Inactive)
REMARK       I    between atoms: C3_3  and  O3_21 
REMARK       I    between atoms: C6_6  and  C7_7 
REMARK       I    between atoms: C8_8  and  C9_9 
REMARK       I    between atoms: C10_10  and  C11_11 
REMARK       I    between atoms: C12_12  and  C13_13 
REMARK       I    between atoms: C14_14  and  C15_15 
REMARK       I    between atoms: C23_25  and  O23_43 
REMARK       I    between atoms: C26_28  and  C27_29 
REMARK       I    between atoms: C28_30  and  C29_31 
REMARK       I    between atoms: C30_32  and  C31_33 
REMARK       I    between atoms: C32_34  and  C33_35 
REMARK       I    between atoms: C34_36  and  C35_37 
ROOT
HETATM    1  C1  STQ H7621     -34.638 127.301   6.130  1.00 22.61    -0.018 C 
HETATM    2  C2  STQ H7621     -34.221 126.663   4.792  1.00 23.33     0.045 C 
HETATM    3  C3  STQ H7621     -32.888 127.028   4.131  1.00 24.77     0.123 C 
HETATM    4  C4  STQ H7621     -31.952 127.931   4.953  1.00 22.10     0.066 C 
HETATM    5  C5  STQ H7621     -32.469 128.646   6.155  1.00 21.89    -0.074 C 
HETATM    6  C6  STQ H7621     -33.691 128.388   6.734  1.00 21.83    -0.048 C 
HETATM    7  C7  STQ H7621     -34.206 129.088   7.933  1.00 21.27     0.009 C 
HETATM    8  C8  STQ H7621     -34.778 130.314   7.920  1.00 20.16     0.007 C 
HETATM    9  C9  STQ H7621     -35.303 131.071   9.048  1.00 19.98    -0.062 C 
HETATM   10  C10 STQ H7621     -35.958 132.223   8.777  1.00 19.41     0.007 C 
HETATM   11  C11 STQ H7621     -36.632 133.068   9.732  1.00 19.37     0.001 C 
HETATM   12  C12 STQ H7621     -37.340 134.160   9.378  1.00 19.06     0.007 C 
HETATM   13  C13 STQ H7621     -38.130 135.027  10.268  1.00 20.91    -0.062 C 
HETATM   14  C14 STQ H7621     -38.803 136.059   9.712  1.00 20.64     0.007 C 
HETATM   15  C15 STQ H7621     -39.672 136.984  10.384  1.00 20.44     0.001 C 
HETATM   16  C16 STQ H7621     -34.749 126.097   7.076  1.00 21.21     0.020 C 
HETATM   17  C17 STQ H7621     -36.065 127.861   5.942  1.00 21.56     0.020 C 
HETATM   18  C18 STQ H7621     -31.433 129.609   6.592  1.00 21.82     0.044 C 
HETATM   19  C19 STQ H7621     -35.156 130.480  10.420  1.00 18.20     0.048 C 
HETATM   20  C20 STQ H7621     -38.170 134.685  11.738  1.00 20.18     0.048 C 
HETATM   21  O3  STQ H7621     -32.201 125.850   3.719  1.00 25.40    -0.395 OA
ATOM     22  H3  STQ H7621     -31.374 126.077   3.309  1.00  0.00     0.210 HD
HETATM   23  C21 STQ H7621     -47.953 146.422  13.334  1.00 19.11    -0.035 C 
HETATM   24  C22 STQ H7621     -48.796 147.293  14.284  1.00 18.10     0.045 C 
HETATM   25  C23 STQ H7621     -48.219 148.691  14.511  1.00 19.16     0.142 C 
HETATM   26  C24 STQ H7621     -46.697 148.686  14.738  1.00 17.14     0.007 C 
HETATM   27  C25 STQ H7621     -45.922 147.634  14.379  1.00 18.43    -0.077 C 
HETATM   28  C26 STQ H7621     -46.440 146.345  13.728  1.00 19.04     0.044 C 
HETATM   29  C27 STQ H7621     -45.550 145.879  12.586  1.00 19.23    -0.016 C 
HETATM   30  C28 STQ H7621     -45.045 144.635  12.493  1.00 22.69     0.003 C 
HETATM   31  C29 STQ H7621     -44.374 144.024  11.339  1.00 24.75    -0.062 C 
HETATM   32  C30 STQ H7621     -43.891 142.768  11.471  1.00 23.92     0.007 C 
HETATM   33  C31 STQ H7621     -43.165 142.021  10.480  1.00 24.21     0.001 C 
HETATM   34  C32 STQ H7621     -42.568 140.840  10.765  1.00 22.58     0.007 C 
HETATM   35  C33 STQ H7621     -41.735 140.008   9.877  1.00 22.21    -0.062 C 
HETATM   36  C34 STQ H7621     -41.150 138.912  10.407  1.00 21.24     0.007 C 
HETATM   37  C35 STQ H7621     -40.259 137.993   9.737  1.00 22.03     0.001 C 
HETATM   38  C36 STQ H7621     -48.118 146.991  11.894  1.00 19.21     0.016 C 
HETATM   39  C37 STQ H7621     -48.567 145.016  13.350  1.00 17.14     0.016 C 
HETATM   40  C38 STQ H7621     -44.477 147.806  14.693  1.00 13.06     0.044 C 
HETATM   41  C39 STQ H7621     -44.201 144.871  10.109  1.00 25.35     0.048 C 
HETATM   42  C40 STQ H7621     -41.526 140.474   8.460  1.00 19.46     0.048 C 
HETATM   43  O23 STQ H7621     -48.898 149.332  15.585  1.00 20.37    -0.392 OA
ATOM     44  H23 STQ H7621     -48.539 150.200  15.726  1.00  0.00     0.210 HD
ENDROOT
TORSDOF 12
BEGIN_RES PHE A  61
REMARK  2 active torsions:
REMARK  status: ('A' for Active; 'I' for Inactive)
REMARK    1  A    between atoms: CA   and  CB  
REMARK    2  A    between atoms: CB   and  CG  
ROOT
ATOM      1  CA  PHE A  61     -36.237 128.293  12.768  1.00 39.40     0.164 C 
ENDROOT
BRANCH   1   2
ATOM      2  CB  PHE A  61     -36.813 128.951  11.509  1.00 39.41     0.058 C 
BRANCH   2   3
ATOM      3  CG  PHE A  61     -37.038 128.002  10.356  1.00 39.01    -0.020 A 
ATOM      4  CD2 PHE A  61     -36.270 126.857  10.217  1.00 40.32    -0.004 A 
ATOM      5  CE2 PHE A  61     -36.476 125.986   9.154  1.00 40.20    -0.000 A 
ATOM      6  CZ  PHE A  61     -37.453 126.249   8.221  1.00 40.34    -0.000 A 
ATOM      7  CE1 PHE A  61     -38.226 127.382   8.346  1.00 41.51    -0.000 A 
ATOM      8  CD1 PHE A  61     -38.016 128.256   9.405  1.00 39.94    -0.004 A 
ENDBRANCH   2   3
ENDBRANCH   1   2
END_RES PHE A  61
BEGIN_RES VAL A 134
REMARK  1 active torsions:
REMARK  status: ('A' for Active; 'I' for Inactive)
REMARK    3  A    between atoms: CA   and  CB  
ROOT
ATOM      9  CA  VAL A 134     -29.766 132.051   9.815  1.00 40.75     0.159 C 
ENDROOT
BRANCH   9  10
ATOM     10  CB  VAL A 134     -30.864 132.765   9.009  1.00 40.76     0.029 C 
ATOM     11  CG1 VAL A 134     -30.929 132.221   7.589  1.00 41.76     0.002 C 
ATOM     12  CG2 VAL A 134     -32.220 132.659   9.691  1.00 40.56     0.002 C 
ENDBRANCH   9  10
END_RES VAL A 134
BEGIN_RES TYR A 338
REMARK  3 active torsions:
REMARK  status: ('A' for Active; 'I' for Inactive)
REMARK    4  A    between atoms: CA   and  CB  
REMARK    5  A    between atoms: CB   and  CG  
REMARK    6  A    between atoms: CZ   and  OH  
ROOT
ATOM     13  CA  TYR A 338     -41.631 124.950   6.058  1.00 38.23     0.164 C 
ENDROOT
BRANCH  13  14
ATOM     14  CB  TYR A 338     -41.621 126.456   6.339  1.00 39.15     0.058 C 
BRANCH  14  15
ATOM     15  CG  TYR A 338     -40.438 127.219   5.787  1.00 39.03    -0.020 A 
ATOM     16  CD2 TYR A 338     -40.264 128.558   6.092  1.00 40.65    -0.002 A 
ATOM     17  CE2 TYR A 338     -39.200 129.292   5.591  1.00 40.91     0.024 A 
ATOM     18  CZ  TYR A 338     -38.278 128.684   4.760  1.00 42.33     0.089 A 
ATOM     19  CE1 TYR A 338     -38.428 127.345   4.445  1.00 40.63     0.024 A 
ATOM     20  CD1 TYR A 338     -39.506 126.632   4.945  1.00 39.27    -0.002 A 
BRANCH  18  21
ATOM     21  OH  TYR A 338     -37.222 129.397   4.264  1.00 43.36    -0.359 OA
ATOM     22  HH  TYR A 338     -37.157 129.573   3.333  1.00  0.00     0.217 HD
ENDBRANCH  18  21
ENDBRANCH  14  15
ENDBRANCH  13  14
END_RES TYR A 338
ENDMDL
MODEL 3
REMARK VINA RESULT:    -7.619      1.079     17.281
REMARK INTER + INTRA:          -7.995
REMARK INTER:                  -7.520
REMARK INTRA:                  -0.475
REMARK UNBOUND:                -0.375
REMARK  0 active torsions:
REMARK  status: ('A' for Active; 'I' for Inactive)
REMARK       I    between atoms: C3_3  and  O3_21 
REMARK       I    between atoms: C6_6  and  C7_7 
REMARK       I    between atoms: C8_8  and  C9_9 
REMARK       I    between atoms: C10_10  and  C11_11 
REMARK       I    between atoms: C12_12  and  C13_13 
REMARK       I    between atoms: C14_14  and  C15_15 
REMARK       I    between atoms: C23_25  and  O23_43 
REMARK       I    between atoms: C26_28  and  C27_29 
REMARK       I    between atoms: C28_30  and  C29_31 
REMARK       I    between atoms: C30_32  and  C31_33 
REMARK       I    between atoms: C32_34  and  C33_35 
REMARK       I    between atoms: C34_36  and  C35_37 
ROOT
HETATM    1  C1  STQ H7621     -50.411 146.279  11.740  1.00 22.61    -0.018 C 
HETATM    2  C2  STQ H7621     -51.287 146.719  12.927  1.00 23.33     0.045 C 
HETATM    3  C3  STQ H7621     -50.799 147.790  13.908  1.00 24.77     0.123 C 
HETATM    4  C4  STQ H7621     -49.477 148.487  13.543  1.00 22.10     0.066 C 
HETATM    5  C5  STQ H7621     -48.597 147.914  12.485  1.00 21.89    -0.074 C 
HETATM    6  C6  STQ H7621     -48.982 146.905  11.631  1.00 21.83    -0.048 C 
HETATM    7  C7  STQ H7621     -48.117 146.338  10.571  1.00 21.27     0.009 C 
HETATM    8  C8  STQ H7621     -47.148 145.417  10.782  1.00 20.16     0.007 C 
HETATM    9  C9  STQ H7621     -46.254 144.815   9.803  1.00 19.98    -0.062 C 
HETATM   10  C10 STQ H7621     -45.453 143.810  10.224  1.00 19.41     0.007 C 
HETATM   11  C11 STQ H7621     -44.570 143.020   9.401  1.00 19.37     0.001 C 
HETATM   12  C12 STQ H7621     -43.862 141.973   9.875  1.00 19.06     0.007 C 
HETATM   13  C13 STQ H7621     -43.009 141.060   9.097  1.00 20.91    -0.062 C 
HETATM   14  C14 STQ H7621     -42.408 140.042   9.753  1.00 20.64     0.007 C 
HETATM   15  C15 STQ H7621     -41.588 139.011   9.181  1.00 20.44     0.001 C 
HETATM   16  C16 STQ H7621     -51.258 146.653  10.516  1.00 21.21     0.020 C 
HETATM   17  C17 STQ H7621     -50.330 144.738  11.779  1.00 21.56     0.020 C 
HETATM   18  C18 STQ H7621     -47.310 148.643  12.518  1.00 21.82     0.044 C 
HETATM   19  C19 STQ H7621     -46.345 145.292   8.382  1.00 18.20     0.048 C 
HETATM   20  C20 STQ H7621     -42.891 141.294   7.610  1.00 20.18     0.048 C 
HETATM   21  O3  STQ H7621     -51.821 148.756  14.133  1.00 25.40    -0.395 OA
ATOM     22  H3  STQ H7621     -51.518 149.420  14.742  1.00  0.00     0.210 HD
HETATM   23  C21 STQ H7621     -34.240 128.607   7.156  1.00 19.11    -0.035 C 
HETATM   24  C22 STQ H7621     -33.379 127.649   6.312  1.00 18.10     0.045 C 
HETATM   25  C23 STQ H7621     -31.877 127.787   6.566  1.00 19.16     0.142 C 
HETATM   26  C24 STQ H7621     -31.412 129.251   6.649  1.00 17.14     0.007 C 
HETATM   27  C25 STQ H7621     -32.279 130.267   6.873  1.00 18.43    -0.077 C 
HETATM   28  C26 STQ H7621     -33.792 130.103   7.061  1.00 19.04     0.044 C 
HETATM   29  C27 STQ H7621     -34.327 130.959   8.199  1.00 19.23    -0.016 C 
HETATM   30  C28 STQ H7621     -35.362 131.810   8.071  1.00 22.69     0.003 C 
HETATM   31  C29 STQ H7621     -36.092 132.502   9.141  1.00 24.75    -0.062 C 
HETATM   32  C30 STQ H7621     -37.076 133.361   8.791  1.00 23.92     0.007 C 
HETATM   33  C31 STQ H7621     -37.866 134.167   9.683  1.00 24.21     0.001 C 
HETATM   34  C32 STQ H7621     -38.706 135.127   9.230  1.00 22.58     0.007 C 
HETATM   35  C33 STQ H7621     -39.514 136.071  10.024  1.00 22.21    -0.062 C 
HETATM   36  C34 STQ H7621     -40.205 137.022   9.359  1.00 21.24     0.007 C 
HETATM   37  C35 STQ H7621     -41.013 138.072   9.934  1.00 22.03     0.001 C 
HETATM   38  C36 STQ H7621     -34.195 128.112   8.632  1.00 19.21     0.016 C 
HETATM   39  C37 STQ H7621     -35.686 128.463   6.663  1.00 17.14     0.016 C 
HETATM   40  C38 STQ H7621     -31.645 131.614   6.904  1.00 13.06     0.044 C 
HETATM   41  C39 STQ H7621     -35.640 132.265  10.554  1.00 25.35     0.048 C 
HETATM   42  C40 STQ H7621     -39.458 135.964  11.525  1.00 19.46     0.048 C 
HETATM   43  O23 STQ H7621     -31.147 127.069   5.578  1.00 20.37    -0.392 OA
ATOM     44  H23 STQ H7621     -30.214 127.155   5.736  1.00  0.00     0.210 HD
ENDROOT
TORSDOF 12
BEGIN_RES PHE A  61
REMARK  2 active torsions:
REMARK  status: ('A' for Active; 'I' for Inactive)
REMARK    1  A    between atoms: CA   and  CB  
REMARK    2  A    between atoms: CB   and  CG  
ROOT
ATOM      1  CA  PHE A  61     -36.237 128.293  12.768  1.00 39.40     0.164 C 
ENDROOT
BRANCH   1   2
ATOM      2  CB  PHE A  61     -36.813 128.951  11.509  1.00 39.41     0.058 C 
BRANCH   2   3
ATOM      3  CG  PHE A  61     -37.026 128.005  10.352  1.00 39.01    -0.020 A 
ATOM      4  CD2 PHE A  61     -36.272 126.847  10.231  1.00 40.32    -0.004 A 
ATOM      5  CE2 PHE A  61     -36.467 125.979   9.164  1.00 40.20    -0.000 A 
ATOM      6  CZ  PHE A  61     -37.418 126.256   8.209  1.00 40.34    -0.000 A 
ATOM      7  CE1 PHE A  61     -38.177 127.400   8.316  1.00 41.51    -0.000 A 
ATOM      8  CD1 PHE A  61     -37.978 128.272   9.379  1.00 39.94    -0.004 A 
ENDBRANCH   2   3
ENDBRANCH   1   2
END_RES PHE A  61
BEGIN_RES VAL A 134
REMARK  1 active torsions:
REMARK  status: ('A' for Active; 'I' for Inactive)
REMARK    3  A    between atoms: CA   and  CB  
ROOT
ATOM      9  CA  VAL A 134     -29.766 132.051   9.815  1.00 40.75     0.159 C 
ENDROOT
BRANCH   9  10
ATOM     10  CB  VAL A 134     -30.864 132.765   9.009  1.00 40.76     0.029 C 
ATOM     11  CG1 VAL A 134     -32.119 132.944   9.851  1.00 41.76     0.002 C 
ATOM     12  CG2 VAL A 134     -30.382 134.102   8.466  1.00 40.56     0.002 C 
ENDBRANCH   9  10
END_RES VAL A 134
BEGIN_RES TYR A 338
REMARK  3 active torsions:
REMARK  status: ('A' for Active; 'I' for Inactive)
REMARK    4  A    between atoms: CA   and  CB  
REMARK    5  A    between atoms: CB   and  CG  
REMARK    6  A    between atoms: CZ   and  OH  
ROOT
ATOM     13  CA  TYR A 338     -41.631 124.950   6.058  1.00 38.23     0.164 C 
ENDROOT
BRANCH  13  14
ATOM     14  CB  TYR A 338     -41.621 126.456   6.339  1.00 39.15     0.058 C 
BRANCH  14  15
ATOM     15  CG  TYR A 338     -40.416 127.211   5.826  1.00 39.03    -0.020 A 
ATOM     16  CD2 TYR A 338     -40.261 128.558   6.108  1.00 40.65    -0.002 A 
ATOM     17  CE2 TYR A 338     -39.177 129.285   5.641  1.00 40.91     0.024 A 
ATOM     18  CZ  TYR A 338     -38.215 128.663   4.868  1.00 42.33     0.089 A 
ATOM     19  CE1 TYR A 338     -38.346 127.316   4.576  1.00 40.63     0.024 A 
ATOM     20  CD1 TYR A 338     -39.444 126.610   5.042  1.00 39.27    -0.002 A 
BRANCH  18  21
ATOM     21  OH  TYR A 338     -37.140 129.369   4.406  1.00 43.36    -0.359 OA
ATOM     22  HH  TYR A 338     -36.278 128.969   4.379  1.00  0.00     0.217 HD
ENDBRANCH  18  21
ENDBRANCH  14  15
ENDBRANCH  13  14
END_RES TYR A 338
ENDMDL
