MODEL 1
REMARK VINA RESULT:    -9.180      0.000      0.000
REMARK INTER + INTRA:         -11.945
REMARK INTER:                  -9.180
REMARK INTRA:                  -2.765
REMARK UNBOUND:                -2.765
REMARK  0 active torsions:
REMARK  status: ('A' for Active; 'I' for Inactive)
REMARK       I    between atoms: C3_3  and  O3_21 
REMARK       I    between atoms: C6_6  and  C7_7 
REMARK       I    between atoms: C8_8  and  C9_9 
REMARK       I    between atoms: C10_10  and  C11_11 
REMARK       I    between atoms: C12_12  and  C13_13 
REMARK       I    between atoms: C14_14  and  C15_15 
REMARK       I    between atoms: C23_25  and  O23_43 
REMARK       I    between atoms: C26_28  and  C27_29 
REMARK       I    between atoms: C28_30  and  C29_31 
REMARK       I    between atoms: C30_32  and  C31_33 
REMARK       I    between atoms: C32_34  and  C33_35 
REMARK       I    between atoms: C34_36  and  C35_37 
ROOT
HETATM    1  C1  STQ 8 314     -34.379 126.783   6.349  1.00 73.63    -0.018 C 
HETATM    2  C2  STQ 8 314     -33.851 125.980   5.165  1.00 75.58     0.045 C 
HETATM    3  C3  STQ 8 314     -32.988 126.764   4.190  1.00 77.85     0.123 C 
HETATM    4  C4  STQ 8 314     -31.872 127.467   4.944  1.00 76.46     0.066 C 
HETATM    5  C5  STQ 8 314     -32.439 128.340   6.037  1.00 74.82    -0.074 C 
HETATM    6  C6  STQ 8 314     -33.550 128.005   6.706  1.00 72.89    -0.048 C 
HETATM    7  C7  STQ 8 314     -34.018 128.834   7.843  1.00 69.76     0.009 C 
HETATM    8  C8  STQ 8 314     -34.689 129.968   7.628  1.00 67.74     0.007 C 
HETATM    9  C9  STQ 8 314     -35.196 130.819   8.724  1.00 67.19    -0.062 C 
HETATM   10  C10 STQ 8 314     -35.950 131.875   8.389  1.00 64.55     0.007 C 
HETATM   11  C11 STQ 8 314     -36.550 132.807   9.342  1.00 61.91     0.001 C 
HETATM   12  C12 STQ 8 314     -37.423 133.661   8.813  1.00 60.53     0.007 C 
HETATM   13  C13 STQ 8 314     -38.174 134.676   9.575  1.00 59.33    -0.062 C 
HETATM   14  C14 STQ 8 314     -39.124 135.362   8.919  1.00 60.00     0.007 C 
HETATM   15  C15 STQ 8 314     -39.964 136.376   9.550  1.00 60.35     0.001 C 
HETATM   16  C16 STQ 8 314     -34.449 125.850   7.552  1.00 75.09     0.020 C 
HETATM   17  C17 STQ 8 314     -35.784 127.267   6.014  1.00 73.62     0.020 C 
HETATM   18  C18 STQ 8 314     -31.587 129.491   6.485  1.00 74.16     0.044 C 
HETATM   19  C19 STQ 8 314     -34.892 130.504  10.160  1.00 68.15     0.048 C 
HETATM   20  C20 STQ 8 314     -37.894 134.918  11.030  1.00 57.80     0.048 C 
HETATM   21  O3  STQ 8 314     -32.419 125.853   3.242  1.00 79.25    -0.395 OA
ATOM     22  H3  STQ 8 314     -31.880 126.343   2.632  1.00  0.00     0.210 HD
HETATM   23  C21 STQ 8 314     -49.713 144.498  11.323  1.00 83.87    -0.035 C 
HETATM   24  C22 STQ 8 314     -50.460 145.445  12.256  1.00 82.82     0.045 C 
HETATM   25  C23 STQ 8 314     -50.244 146.912  11.908  1.00 81.80     0.142 C 
HETATM   26  C24 STQ 8 314     -48.787 147.201  11.635  1.00 82.59     0.007 C 
HETATM   27  C25 STQ 8 314     -47.949 146.277  11.144  1.00 82.34    -0.077 C 
HETATM   28  C26 STQ 8 314     -48.215 144.806  11.301  1.00 82.52     0.044 C 
HETATM   29  C27 STQ 8 314     -47.533 144.045  10.182  1.00 81.59    -0.016 C 
HETATM   30  C28 STQ 8 314     -46.591 143.149  10.476  1.00 79.39     0.003 C 
HETATM   31  C29 STQ 8 314     -45.890 142.374   9.430  1.00 75.56    -0.062 C 
HETATM   32  C30 STQ 8 314     -45.146 141.324   9.807  1.00 73.06     0.007 C 
HETATM   33  C31 STQ 8 314     -44.402 140.472   8.880  1.00 70.20     0.001 C 
HETATM   34  C32 STQ 8 314     -43.562 139.607   9.444  1.00 68.68     0.007 C 
HETATM   35  C33 STQ 8 314     -42.712 138.640   8.722  1.00 66.05    -0.062 C 
HETATM   36  C34 STQ 8 314     -41.803 137.949   9.430  1.00 63.06     0.007 C 
HETATM   37  C35 STQ 8 314     -40.925 136.953   8.826  1.00 60.73     0.001 C 
HETATM   38  C36 STQ 8 314     -50.300 144.585   9.919  1.00 84.49     0.016 C 
HETATM   39  C37 STQ 8 314     -49.909 143.076  11.834  1.00 84.41     0.016 C 
HETATM   40  C38 STQ 8 314     -46.716 146.727  10.422  1.00 81.79     0.044 C 
HETATM   41  C39 STQ 8 314     -46.000 142.760   7.983  1.00 73.18     0.048 C 
HETATM   42  C40 STQ 8 314     -42.863 138.432   7.244  1.00 66.25     0.048 C 
HETATM   43  O23 STQ 8 314     -50.669 147.724  13.009  1.00 80.62    -0.392 OA
ATOM     44  H23 STQ 8 314     -50.535 148.639  12.792  1.00  0.00     0.210 HD
ENDROOT
TORSDOF 12
BEGIN_RES PHE A  61
REMARK  2 active torsions:
REMARK  status: ('A' for Active; 'I' for Inactive)
REMARK    1  A    between atoms: CA   and  CB  
REMARK    2  A    between atoms: CB   and  CG  
ROOT
ATOM      1  CA  PHE A  61     -36.237 128.293  12.768  1.00 39.40     0.164 C 
ENDROOT
BRANCH   1   2
ATOM      2  CB  PHE A  61     -36.813 128.951  11.509  1.00 39.41     0.058 C 
BRANCH   2   3
ATOM      3  CG  PHE A  61     -37.064 127.997  10.366  1.00 39.01    -0.020 A 
ATOM      4  CD2 PHE A  61     -36.353 126.812  10.258  1.00 40.32    -0.004 A 
ATOM      5  CE2 PHE A  61     -36.583 125.937   9.204  1.00 40.20    -0.000 A 
ATOM      6  CZ  PHE A  61     -37.527 126.235   8.248  1.00 40.34    -0.000 A 
ATOM      7  CE1 PHE A  61     -38.243 127.408   8.341  1.00 41.51    -0.000 A 
ATOM      8  CD1 PHE A  61     -38.009 128.286   9.392  1.00 39.94    -0.004 A 
ENDBRANCH   2   3
ENDBRANCH   1   2
END_RES PHE A  61
BEGIN_RES VAL A 134
REMARK  1 active torsions:
REMARK  status: ('A' for Active; 'I' for Inactive)
REMARK    3  A    between atoms: CA   and  CB  
ROOT
ATOM      9  CA  VAL A 134     -29.766 132.051   9.815  1.00 40.75     0.159 C 
ENDROOT
BRANCH   9  10
ATOM     10  CB  VAL A 134     -30.864 132.765   9.009  1.00 40.76     0.029 C 
ATOM     11  CG1 VAL A 134     -31.172 132.004   7.728  1.00 41.76     0.002 C 
ATOM     12  CG2 VAL A 134     -32.126 132.966   9.835  1.00 40.56     0.002 C 
ENDBRANCH   9  10
END_RES VAL A 134
BEGIN_RES TYR A 338
REMARK  3 active torsions:
REMARK  status: ('A' for Active; 'I' for Inactive)
REMARK    4  A    between atoms: CA   and  CB  
REMARK    5  A    between atoms: CB   and  CG  
REMARK    6  A    between atoms: CZ   and  OH  
ROOT
ATOM     13  CA  TYR A 338     -41.631 124.950   6.058  1.00 38.23     0.164 C 
ENDROOT
BRANCH  13  14
ATOM     14  CB  TYR A 338     -41.621 126.456   6.339  1.00 39.15     0.058 C 
BRANCH  14  15
ATOM     15  CG  TYR A 338     -40.423 127.213   5.815  1.00 39.03    -0.020 A 
ATOM     16  CD2 TYR A 338     -40.246 128.550   6.129  1.00 40.65    -0.002 A 
ATOM     17  CE2 TYR A 338     -39.167 129.279   5.653  1.00 40.91     0.024 A 
ATOM     18  CZ  TYR A 338     -38.232 128.669   4.839  1.00 42.33     0.089 A 
ATOM     19  CE1 TYR A 338     -38.384 127.332   4.515  1.00 40.63     0.024 A 
ATOM     20  CD1 TYR A 338     -39.477 126.624   4.990  1.00 39.27    -0.002 A 
BRANCH  18  21
ATOM     21  OH  TYR A 338     -37.162 129.377   4.368  1.00 43.36    -0.359 OA
ATOM     22  HH  TYR A 338     -37.288 130.229   3.967  1.00  0.00     0.217 HD
ENDBRANCH  18  21
ENDBRANCH  14  15
ENDBRANCH  13  14
END_RES TYR A 338
ENDMDL
