MODEL 1
REMARK VINA RESULT:   -12.146      0.000      0.000
REMARK INTER + INTRA:         -14.471
REMARK INTER:                 -12.146
REMARK INTRA:                  -2.325
REMARK UNBOUND:                -2.325
REMARK  0 active torsions:
REMARK  status: ('A' for Active; 'I' for Inactive)
REMARK       I    between atoms: C3_3  and  O3_21 
REMARK       I    between atoms: C6_6  and  C7_7 
REMARK       I    between atoms: C8_8  and  C9_9 
REMARK       I    between atoms: C10_10  and  C11_11 
REMARK       I    between atoms: C12_12  and  C13_13 
REMARK       I    between atoms: C14_14  and  C15_15 
REMARK       I    between atoms: C23_25  and  O23_43 
REMARK       I    between atoms: C26_28  and  C27_29 
REMARK       I    between atoms: C28_30  and  C29_31 
REMARK       I    between atoms: C30_32  and  C31_33 
REMARK       I    between atoms: C32_34  and  C33_35 
REMARK       I    between atoms: C34_36  and  C35_37 
ROOT
HETATM    1  C1  STQ 4 619     -34.238 127.126   6.700  1.00 50.20    -0.018 C 
HETATM    2  C2  STQ 4 619     -33.806 126.615   5.331  1.00 50.20     0.045 C 
HETATM    3  C3  STQ 4 619     -32.725 127.415   4.622  1.00 50.20     0.123 C 
HETATM    4  C4  STQ 4 619     -31.651 127.871   5.587  1.00 50.20     0.066 C 
HETATM    5  C5  STQ 4 619     -32.312 128.717   6.634  1.00 50.20    -0.074 C 
HETATM    6  C6  STQ 4 619     -33.471 128.345   7.178  1.00 50.20    -0.048 C 
HETATM    7  C7  STQ 4 619     -34.047 129.135   8.286  1.00 50.20     0.009 C 
HETATM    8  C8  STQ 4 619     -34.861 130.152   8.017  1.00 50.20     0.007 C 
HETATM    9  C9  STQ 4 619     -35.475 130.965   9.077  1.00 50.20    -0.062 C 
HETATM   10  C10 STQ 4 619     -36.195 132.026   8.699  1.00 50.20     0.007 C 
HETATM   11  C11 STQ 4 619     -36.882 132.921   9.620  1.00 50.20     0.001 C 
HETATM   12  C12 STQ 4 619     -37.550 133.909   9.041  1.00 50.20     0.007 C 
HETATM   13  C13 STQ 4 619     -38.346 134.903   9.771  1.00 50.20    -0.062 C 
HETATM   14  C14 STQ 4 619     -39.093 135.730   9.035  1.00 50.20     0.007 C 
HETATM   15  C15 STQ 4 619     -39.975 136.737   9.599  1.00 50.20     0.001 C 
HETATM   16  C16 STQ 4 619     -34.081 125.981   7.694  1.00 50.20     0.020 C 
HETATM   17  C17 STQ 4 619     -35.709 127.511   6.629  1.00 50.20     0.020 C 
HETATM   18  C18 STQ 4 619     -31.503 129.843   7.200  1.00 50.20     0.044 C 
HETATM   19  C19 STQ 4 619     -35.292 130.603  10.520  1.00 50.20     0.048 C 
HETATM   20  C20 STQ 4 619     -38.345 134.974  11.265  1.00 50.20     0.048 C 
HETATM   21  O3  STQ 4 619     -32.132 126.603   3.605  1.00 50.20    -0.395 OA
ATOM     22  H3  STQ 4 619     -32.806 126.316   3.000  1.00  0.00     0.210 HD
HETATM   23  C21 STQ 4 619     -49.893 144.409   9.647  1.00 50.20    -0.035 C 
HETATM   24  C22 STQ 4 619     -50.891 145.184  10.489  1.00 50.20     0.045 C 
HETATM   25  C23 STQ 4 619     -50.697 146.686  10.383  1.00 50.20     0.142 C 
HETATM   26  C24 STQ 4 619     -49.250 147.051  10.600  1.00 50.20     0.007 C 
HETATM   27  C25 STQ 4 619     -48.254 146.246  10.211  1.00 50.20    -0.077 C 
HETATM   28  C26 STQ 4 619     -48.460 144.765  10.039  1.00 50.20     0.044 C 
HETATM   29  C27 STQ 4 619     -47.536 144.207   8.982  1.00 50.20    -0.016 C 
HETATM   30  C28 STQ 4 619     -46.588 143.362   9.369  1.00 50.20     0.003 C 
HETATM   31  C29 STQ 4 619     -45.656 142.743   8.418  1.00 50.20    -0.062 C 
HETATM   32  C30 STQ 4 619     -45.099 141.599   8.813  1.00 50.20     0.007 C 
HETATM   33  C31 STQ 4 619     -44.160 140.805   8.039  1.00 50.20     0.001 C 
HETATM   34  C32 STQ 4 619     -43.477 139.943   8.776  1.00 50.20     0.007 C 
HETATM   35  C33 STQ 4 619     -42.483 138.999   8.255  1.00 50.20    -0.062 C 
HETATM   36  C34 STQ 4 619     -41.773 138.307   9.151  1.00 50.20     0.007 C 
HETATM   37  C35 STQ 4 619     -40.798 137.316   8.732  1.00 50.20     0.001 C 
HETATM   38  C36 STQ 4 619     -50.130 144.678   8.165  1.00 50.20     0.016 C 
HETATM   39  C37 STQ 4 619     -50.131 142.928   9.909  1.00 50.20     0.016 C 
HETATM   40  C38 STQ 4 619     -46.901 146.842   9.966  1.00 50.20     0.044 C 
HETATM   41  C39 STQ 4 619     -45.363 143.351   7.081  1.00 50.20     0.048 C 
HETATM   42  C40 STQ 4 619     -42.296 138.800   6.781  1.00 50.20     0.048 C 
HETATM   43  O23 STQ 4 619     -51.480 147.313  11.401  1.00 50.20    -0.392 OA
ATOM     44  H23 STQ 4 619     -52.391 147.083  11.264  1.00  0.00     0.210 HD
ENDROOT
TORSDOF 12
BEGIN_RES PHE A  61
REMARK  2 active torsions:
REMARK  status: ('A' for Active; 'I' for Inactive)
REMARK    1  A    between atoms: CA   and  CB  
REMARK    2  A    between atoms: CB   and  CG  
ROOT
ATOM      1  CA  PHE A  61     -36.237 128.293  12.768  1.00 39.40     0.164 C 
ENDROOT
BRANCH   1   2
ATOM      2  CB  PHE A  61     -36.813 128.951  11.509  1.00 39.41     0.058 C 
BRANCH   2   3
ATOM      3  CG  PHE A  61     -37.088 127.993  10.374  1.00 39.01    -0.020 A 
ATOM      4  CD2 PHE A  61     -36.376 126.810  10.254  1.00 40.32    -0.004 A 
ATOM      5  CE2 PHE A  61     -36.628 125.931   9.208  1.00 40.20    -0.000 A 
ATOM      6  CZ  PHE A  61     -37.595 126.224   8.273  1.00 40.34    -0.000 A 
ATOM      7  CE1 PHE A  61     -38.312 127.395   8.380  1.00 41.51    -0.000 A 
ATOM      8  CD1 PHE A  61     -38.056 128.276   9.422  1.00 39.94    -0.004 A 
ENDBRANCH   2   3
ENDBRANCH   1   2
END_RES PHE A  61
BEGIN_RES VAL A 134
REMARK  1 active torsions:
REMARK  status: ('A' for Active; 'I' for Inactive)
REMARK    3  A    between atoms: CA   and  CB  
ROOT
ATOM      9  CA  VAL A 134     -29.766 132.051   9.815  1.00 40.75     0.159 C 
ENDROOT
BRANCH   9  10
ATOM     10  CB  VAL A 134     -30.864 132.765   9.009  1.00 40.76     0.029 C 
ATOM     11  CG1 VAL A 134     -30.850 132.308   7.558  1.00 41.76     0.002 C 
ATOM     12  CG2 VAL A 134     -32.238 132.558   9.627  1.00 40.56     0.002 C 
ENDBRANCH   9  10
END_RES VAL A 134
BEGIN_RES TYR A 338
REMARK  3 active torsions:
REMARK  status: ('A' for Active; 'I' for Inactive)
REMARK    4  A    between atoms: CA   and  CB  
REMARK    5  A    between atoms: CB   and  CG  
REMARK    6  A    between atoms: CZ   and  OH  
ROOT
ATOM     13  CA  TYR A 338     -41.631 124.950   6.058  1.00 38.23     0.164 C 
ENDROOT
BRANCH  13  14
ATOM     14  CB  TYR A 338     -41.621 126.456   6.339  1.00 39.15     0.058 C 
BRANCH  14  15
ATOM     15  CG  TYR A 338     -40.412 127.209   5.835  1.00 39.03    -0.020 A 
ATOM     16  CD2 TYR A 338     -40.246 128.551   6.136  1.00 40.65    -0.002 A 
ATOM     17  CE2 TYR A 338     -39.157 129.276   5.677  1.00 40.91     0.024 A 
ATOM     18  CZ  TYR A 338     -38.201 128.658   4.895  1.00 42.33     0.089 A 
ATOM     19  CE1 TYR A 338     -38.342 127.317   4.584  1.00 40.63     0.024 A 
ATOM     20  CD1 TYR A 338     -39.444 126.612   5.042  1.00 39.27    -0.002 A 
BRANCH  18  21
ATOM     21  OH  TYR A 338     -37.121 129.363   4.441  1.00 43.36    -0.359 OA
ATOM     22  HH  TYR A 338     -36.371 129.510   5.005  1.00  0.00     0.217 HD
ENDBRANCH  18  21
ENDBRANCH  14  15
ENDBRANCH  13  14
END_RES TYR A 338
ENDMDL
