MODEL 1
REMARK VINA RESULT:    -9.151      0.000      0.000
REMARK INTER + INTRA:         -11.516
REMARK INTER:                  -9.151
REMARK INTRA:                  -2.364
REMARK UNBOUND:                -2.364
REMARK  0 active torsions:
REMARK  status: ('A' for Active; 'I' for Inactive)
REMARK       I    between atoms: C3_3  and  O3_21 
REMARK       I    between atoms: C6_6  and  C7_7 
REMARK       I    between atoms: C8_8  and  C9_9 
REMARK       I    between atoms: C10_10  and  C11_11 
REMARK       I    between atoms: C12_12  and  C13_13 
REMARK       I    between atoms: C14_14  and  C15_15 
REMARK       I    between atoms: C23_25  and  O23_43 
REMARK       I    between atoms: C26_28  and  C27_29 
REMARK       I    between atoms: C28_30  and  C29_31 
REMARK       I    between atoms: C30_32  and  C31_33 
REMARK       I    between atoms: C32_34  and  C33_35 
REMARK       I    between atoms: C34_36  and  C35_37 
ROOT
HETATM    1  C1  STQ V1620     -34.286 127.209   6.667  1.00 15.23    -0.018 C 
HETATM    2  C2  STQ V1620     -34.091 127.280   5.165  1.00 15.23     0.045 C 
HETATM    3  C3  STQ V1620     -33.197 128.398   4.699  1.00 15.23     0.123 C 
HETATM    4  C4  STQ V1620     -31.969 128.391   5.560  1.00 15.23     0.066 C 
HETATM    5  C5  STQ V1620     -32.330 128.663   6.987  1.00 15.23    -0.074 C 
HETATM    6  C6  STQ V1620     -33.483 128.196   7.474  1.00 15.23    -0.048 C 
HETATM    7  C7  STQ V1620     -34.149 128.826   8.618  1.00 15.23     0.009 C 
HETATM    8  C8  STQ V1620     -34.348 130.132   8.422  1.00 15.23     0.007 C 
HETATM    9  C9  STQ V1620     -35.180 130.934   9.339  1.00 15.23    -0.062 C 
HETATM   10  C10 STQ V1620     -35.593 132.129   8.894  1.00 15.23     0.007 C 
HETATM   11  C11 STQ V1620     -36.525 132.980   9.621  1.00 15.23     0.001 C 
HETATM   12  C12 STQ V1620     -37.075 134.013   9.002  1.00 15.23     0.007 C 
HETATM   13  C13 STQ V1620     -38.099 134.842   9.653  1.00 15.23    -0.062 C 
HETATM   14  C14 STQ V1620     -38.754 135.720   8.887  1.00 15.23     0.007 C 
HETATM   15  C15 STQ V1620     -39.832 136.580   9.363  1.00 15.23     0.001 C 
HETATM   16  C16 STQ V1620     -33.770 125.850   7.100  1.00 15.23     0.020 C 
HETATM   17  C17 STQ V1620     -35.769 127.347   6.958  1.00 15.23     0.020 C 
HETATM   18  C18 STQ V1620     -31.502 129.728   7.642  1.00 15.23     0.044 C 
HETATM   19  C19 STQ V1620     -35.564 130.384  10.683  1.00 15.23     0.048 C 
HETATM   20  C20 STQ V1620     -38.389 134.636  11.102  1.00 15.23     0.048 C 
HETATM   21  O3  STQ V1620     -32.771 128.135   3.367  1.00 15.23    -0.395 OA
ATOM     22  H3  STQ V1620     -33.549 128.140   2.821  1.00  0.00     0.210 HD
HETATM   23  C21 STQ V1620     -49.685 144.299   9.820  1.00 15.23    -0.035 C 
HETATM   24  C22 STQ V1620     -50.648 145.027  10.723  1.00 15.23     0.045 C 
HETATM   25  C23 STQ V1620     -50.620 146.514  10.472  1.00 15.23     0.142 C 
HETATM   26  C24 STQ V1620     -49.216 147.029  10.330  1.00 15.23     0.007 C 
HETATM   27  C25 STQ V1620     -48.156 146.244  10.152  1.00 15.23    -0.077 C 
HETATM   28  C26 STQ V1620     -48.255 144.757  10.082  1.00 15.23     0.044 C 
HETATM   29  C27 STQ V1620     -47.326 144.233   9.019  1.00 15.23    -0.016 C 
HETATM   30  C28 STQ V1620     -46.479 143.275   9.360  1.00 15.23     0.003 C 
HETATM   31  C29 STQ V1620     -45.545 142.667   8.408  1.00 15.23    -0.062 C 
HETATM   32  C30 STQ V1620     -44.850 141.631   8.882  1.00 15.23     0.007 C 
HETATM   33  C31 STQ V1620     -43.868 140.860   8.140  1.00 15.23     0.001 C 
HETATM   34  C32 STQ V1620     -43.223 139.906   8.799  1.00 15.23     0.007 C 
HETATM   35  C33 STQ V1620     -42.181 139.092   8.169  1.00 15.23    -0.062 C 
HETATM   36  C34 STQ V1620     -41.521 138.231   8.956  1.00 15.23     0.007 C 
HETATM   37  C35 STQ V1620     -40.441 137.370   8.497  1.00 15.23     0.001 C 
HETATM   38  C36 STQ V1620     -50.079 144.506   8.370  1.00 15.23     0.016 C 
HETATM   39  C37 STQ V1620     -49.827 142.825  10.128  1.00 15.23     0.016 C 
HETATM   40  C38 STQ V1620     -46.821 146.902  10.053  1.00 15.23     0.044 C 
HETATM   41  C39 STQ V1620     -45.461 143.182   7.006  1.00 15.23     0.048 C 
HETATM   42  C40 STQ V1620     -41.908 139.291   6.715  1.00 15.23     0.048 C 
HETATM   43  O23 STQ V1620     -51.219 147.134  11.602  1.00 15.23    -0.392 OA
ATOM     44  H23 STQ V1620     -52.107 146.809  11.692  1.00  0.00     0.210 HD
ENDROOT
TORSDOF 12
BEGIN_RES PHE A  61
REMARK  2 active torsions:
REMARK  status: ('A' for Active; 'I' for Inactive)
REMARK    1  A    between atoms: CA   and  CB  
REMARK    2  A    between atoms: CB   and  CG  
ROOT
ATOM      1  CA  PHE A  61     -36.237 128.293  12.768  1.00 39.40     0.164 C 
ENDROOT
BRANCH   1   2
ATOM      2  CB  PHE A  61     -36.813 128.951  11.509  1.00 39.41     0.058 C 
BRANCH   2   3
ATOM      3  CG  PHE A  61     -37.105 127.991  10.381  1.00 39.01    -0.020 A 
ATOM      4  CD2 PHE A  61     -36.393 126.809  10.250  1.00 40.32    -0.004 A 
ATOM      5  CE2 PHE A  61     -36.660 125.928   9.209  1.00 40.20    -0.000 A 
ATOM      6  CZ  PHE A  61     -37.645 126.216   8.292  1.00 40.34    -0.000 A 
ATOM      7  CE1 PHE A  61     -38.364 127.385   8.410  1.00 41.51    -0.000 A 
ATOM      8  CD1 PHE A  61     -38.092 128.269   9.446  1.00 39.94    -0.004 A 
ENDBRANCH   2   3
ENDBRANCH   1   2
END_RES PHE A  61
BEGIN_RES VAL A 134
REMARK  1 active torsions:
REMARK  status: ('A' for Active; 'I' for Inactive)
REMARK    3  A    between atoms: CA   and  CB  
ROOT
ATOM      9  CA  VAL A 134     -29.766 132.051   9.815  1.00 40.75     0.159 C 
ENDROOT
BRANCH   9  10
ATOM     10  CB  VAL A 134     -30.864 132.765   9.009  1.00 40.76     0.029 C 
ATOM     11  CG1 VAL A 134     -30.968 132.182   7.608  1.00 41.76     0.002 C 
ATOM     12  CG2 VAL A 134     -32.208 132.709   9.719  1.00 40.56     0.002 C 
ENDBRANCH   9  10
END_RES VAL A 134
BEGIN_RES TYR A 338
REMARK  3 active torsions:
REMARK  status: ('A' for Active; 'I' for Inactive)
REMARK    4  A    between atoms: CA   and  CB  
REMARK    5  A    between atoms: CB   and  CG  
REMARK    6  A    between atoms: CZ   and  OH  
ROOT
ATOM     13  CA  TYR A 338     -41.631 124.950   6.058  1.00 38.23     0.164 C 
ENDROOT
BRANCH  13  14
ATOM     14  CB  TYR A 338     -41.621 126.456   6.339  1.00 39.15     0.058 C 
BRANCH  14  15
ATOM     15  CG  TYR A 338     -40.403 127.206   5.851  1.00 39.03    -0.020 A 
ATOM     16  CD2 TYR A 338     -40.235 128.545   6.160  1.00 40.65    -0.002 A 
ATOM     17  CE2 TYR A 338     -39.138 129.268   5.716  1.00 40.91     0.024 A 
ATOM     18  CZ  TYR A 338     -38.177 128.649   4.940  1.00 42.33     0.089 A 
ATOM     19  CE1 TYR A 338     -38.320 127.311   4.622  1.00 40.63     0.024 A 
ATOM     20  CD1 TYR A 338     -39.431 126.608   5.065  1.00 39.27    -0.002 A 
BRANCH  18  21
ATOM     21  OH  TYR A 338     -37.089 129.352   4.501  1.00 43.36    -0.359 OA
ATOM     22  HH  TYR A 338     -36.910 130.222   4.838  1.00  0.00     0.217 HD
ENDBRANCH  18  21
ENDBRANCH  14  15
ENDBRANCH  13  14
END_RES TYR A 338
ENDMDL
MODEL 2
REMARK VINA RESULT:    -8.578      1.350      1.886
REMARK INTER + INTRA:         -10.942
REMARK INTER:                  -8.436
REMARK INTRA:                  -2.506
REMARK UNBOUND:                -2.364
REMARK  0 active torsions:
REMARK  status: ('A' for Active; 'I' for Inactive)
REMARK       I    between atoms: C3_3  and  O3_21 
REMARK       I    between atoms: C6_6  and  C7_7 
REMARK       I    between atoms: C8_8  and  C9_9 
REMARK       I    between atoms: C10_10  and  C11_11 
REMARK       I    between atoms: C12_12  and  C13_13 
REMARK       I    between atoms: C14_14  and  C15_15 
REMARK       I    between atoms: C23_25  and  O23_43 
REMARK       I    between atoms: C26_28  and  C27_29 
REMARK       I    between atoms: C28_30  and  C29_31 
REMARK       I    between atoms: C30_32  and  C31_33 
REMARK       I    between atoms: C32_34  and  C33_35 
REMARK       I    between atoms: C34_36  and  C35_37 
ROOT
HETATM    1  C1  STQ V1620     -33.726 129.221   7.097  1.00 15.23    -0.018 C 
HETATM    2  C2  STQ V1620     -32.872 129.782   5.978  1.00 15.23     0.045 C 
HETATM    3  C3  STQ V1620     -31.957 130.907   6.387  1.00 15.23     0.123 C 
HETATM    4  C4  STQ V1620     -31.263 130.495   7.651  1.00 15.23     0.066 C 
HETATM    5  C5  STQ V1620     -32.258 130.295   8.751  1.00 15.23    -0.074 C 
HETATM    6  C6  STQ V1620     -33.464 129.797   8.465  1.00 15.23    -0.048 C 
HETATM    7  C7  STQ V1620     -34.629 130.055   9.317  1.00 15.23     0.009 C 
HETATM    8  C8  STQ V1620     -34.822 131.362   9.514  1.00 15.23     0.007 C 
HETATM    9  C9  STQ V1620     -36.043 131.875  10.164  1.00 15.23    -0.062 C 
HETATM   10  C10 STQ V1620     -36.303 133.182  10.020  1.00 15.23     0.007 C 
HETATM   11  C11 STQ V1620     -37.530 133.814  10.485  1.00 15.23     0.001 C 
HETATM   12  C12 STQ V1620     -37.817 135.042  10.081  1.00 15.23     0.007 C 
HETATM   13  C13 STQ V1620     -39.090 135.687  10.433  1.00 15.23    -0.062 C 
HETATM   14  C14 STQ V1620     -39.391 136.829   9.808  1.00 15.23     0.007 C 
HETATM   15  C15 STQ V1620     -40.633 137.569  10.003  1.00 15.23     0.001 C 
HETATM   16  C16 STQ V1620     -33.356 127.755   7.221  1.00 15.23     0.020 C 
HETATM   17  C17 STQ V1620     -35.184 129.385   6.708  1.00 15.23     0.020 C 
HETATM   18  C18 STQ V1620     -31.912 130.993  10.033  1.00 15.23     0.044 C 
HETATM   19  C19 STQ V1620     -36.953 130.936  10.903  1.00 15.23     0.048 C 
HETATM   20  C20 STQ V1620     -39.992 135.026  11.420  1.00 15.23     0.048 C 
HETATM   21  O3  STQ V1620     -30.949 131.076   5.397  1.00 15.23    -0.395 OA
ATOM     22  H3  STQ V1620     -31.389 131.338   4.596  1.00  0.00     0.210 HD
HETATM   23  C21 STQ V1620     -50.194 145.525   8.539  1.00 15.23    -0.035 C 
HETATM   24  C22 STQ V1620     -51.519 145.985   9.092  1.00 15.23     0.045 C 
HETATM   25  C23 STQ V1620     -51.501 147.460   9.409  1.00 15.23     0.142 C 
HETATM   26  C24 STQ V1620     -50.234 147.863  10.110  1.00 15.23     0.007 C 
HETATM   27  C25 STQ V1620     -49.150 147.094  10.177  1.00 15.23    -0.077 C 
HETATM   28  C26 STQ V1620     -49.085 145.735   9.563  1.00 15.23     0.044 C 
HETATM   29  C27 STQ V1620     -47.733 145.524   8.934  1.00 15.23    -0.016 C 
HETATM   30  C28 STQ V1620     -47.061 144.435   9.271  1.00 15.23     0.003 C 
HETATM   31  C29 STQ V1620     -45.749 144.106   8.706  1.00 15.23    -0.062 C 
HETATM   32  C30 STQ V1620     -45.266 142.912   9.057  1.00 15.23     0.007 C 
HETATM   33  C31 STQ V1620     -43.995 142.356   8.630  1.00 15.23     0.001 C 
HETATM   34  C32 STQ V1620     -43.648 141.180   9.137  1.00 15.23     0.007 C 
HETATM   35  C33 STQ V1620     -42.370 140.539   8.815  1.00 15.23    -0.062 C 
HETATM   36  C34 STQ V1620     -42.076 139.405   9.466  1.00 15.23     0.007 C 
HETATM   37  C35 STQ V1620     -40.840 138.659   9.286  1.00 15.23     0.001 C 
HETATM   38  C36 STQ V1620     -49.896 146.250   7.240  1.00 15.23     0.016 C 
HETATM   39  C37 STQ V1620     -50.340 144.055   8.220  1.00 15.23     0.016 C 
HETATM   40  C38 STQ V1620     -47.976 147.622  10.931  1.00 15.23     0.044 C 
HETATM   41  C39 STQ V1620     -45.075 145.059   7.770  1.00 15.23     0.048 C 
HETATM   42  C40 STQ V1620     -41.480 141.198   7.814  1.00 15.23     0.048 C 
HETATM   43  O23 STQ V1620     -52.598 147.709  10.277  1.00 15.23    -0.392 OA
ATOM     44  H23 STQ V1620     -53.399 147.454   9.834  1.00  0.00     0.210 HD
ENDROOT
TORSDOF 12
BEGIN_RES PHE A  61
REMARK  2 active torsions:
REMARK  status: ('A' for Active; 'I' for Inactive)
REMARK    1  A    between atoms: CA   and  CB  
REMARK    2  A    between atoms: CB   and  CG  
ROOT
ATOM      1  CA  PHE A  61     -36.237 128.293  12.768  1.00 39.40     0.164 C 
ENDROOT
BRANCH   1   2
ATOM      2  CB  PHE A  61     -36.813 128.951  11.509  1.00 39.41     0.058 C 
BRANCH   2   3
ATOM      3  CG  PHE A  61     -36.777 128.079  10.277  1.00 39.01    -0.020 A 
ATOM      4  CD2 PHE A  61     -37.810 128.109   9.353  1.00 40.32    -0.004 A 
ATOM      5  CE2 PHE A  61     -37.777 127.304   8.222  1.00 40.20    -0.000 A 
ATOM      6  CZ  PHE A  61     -36.710 126.463   7.999  1.00 40.34    -0.000 A 
ATOM      7  CE1 PHE A  61     -35.675 126.422   8.907  1.00 41.51    -0.000 A 
ATOM      8  CD1 PHE A  61     -35.711 127.222  10.041  1.00 39.94    -0.004 A 
ENDBRANCH   2   3
ENDBRANCH   1   2
END_RES PHE A  61
BEGIN_RES VAL A 134
REMARK  1 active torsions:
REMARK  status: ('A' for Active; 'I' for Inactive)
REMARK    3  A    between atoms: CA   and  CB  
ROOT
ATOM      9  CA  VAL A 134     -29.766 132.051   9.815  1.00 40.75     0.159 C 
ENDROOT
BRANCH   9  10
ATOM     10  CB  VAL A 134     -30.864 132.765   9.009  1.00 40.76     0.029 C 
ATOM     11  CG1 VAL A 134     -31.917 133.353   9.937  1.00 41.76     0.002 C 
ATOM     12  CG2 VAL A 134     -30.285 133.838   8.100  1.00 40.56     0.002 C 
ENDBRANCH   9  10
END_RES VAL A 134
BEGIN_RES TYR A 338
REMARK  3 active torsions:
REMARK  status: ('A' for Active; 'I' for Inactive)
REMARK    4  A    between atoms: CA   and  CB  
REMARK    5  A    between atoms: CB   and  CG  
REMARK    6  A    between atoms: CZ   and  OH  
ROOT
ATOM     13  CA  TYR A 338     -41.631 124.950   6.058  1.00 38.23     0.164 C 
ENDROOT
BRANCH  13  14
ATOM     14  CB  TYR A 338     -41.621 126.456   6.339  1.00 39.15     0.058 C 
BRANCH  14  15
ATOM     15  CG  TYR A 338     -40.402 127.206   5.853  1.00 39.03    -0.020 A 
ATOM     16  CD2 TYR A 338     -40.225 128.541   6.176  1.00 40.65    -0.002 A 
ATOM     17  CE2 TYR A 338     -39.128 129.263   5.735  1.00 40.91     0.024 A 
ATOM     18  CZ  TYR A 338     -38.173 128.649   4.947  1.00 42.33     0.089 A 
ATOM     19  CE1 TYR A 338     -38.325 127.314   4.614  1.00 40.63     0.024 A 
ATOM     20  CD1 TYR A 338     -39.437 126.612   5.055  1.00 39.27    -0.002 A 
BRANCH  18  21
ATOM     21  OH  TYR A 338     -37.085 129.350   4.510  1.00 43.36    -0.359 OA
ATOM     22  HH  TYR A 338     -36.218 128.963   4.544  1.00  0.00     0.217 HD
ENDBRANCH  18  21
ENDBRANCH  14  15
ENDBRANCH  13  14
END_RES TYR A 338
ENDMDL
