MODEL 1
REMARK VINA RESULT:    -9.765      0.000      0.000
REMARK INTER + INTRA:         -12.988
REMARK INTER:                  -9.765
REMARK INTRA:                  -3.222
REMARK UNBOUND:                -3.222
REMARK  0 active torsions:
REMARK  status: ('A' for Active; 'I' for Inactive)
REMARK       I    between atoms: C3_3  and  O3_21 
REMARK       I    between atoms: C6_6  and  C7_7 
REMARK       I    between atoms: C8_8  and  C9_9 
REMARK       I    between atoms: C10_10  and  C11_11 
REMARK       I    between atoms: C12_12  and  C13_13 
REMARK       I    between atoms: C14_14  and  C15_15 
REMARK       I    between atoms: C23_25  and  O23_43 
REMARK       I    between atoms: C26_28  and  C27_29 
REMARK       I    between atoms: C28_30  and  C29_31 
REMARK       I    between atoms: C30_32  and  C31_33 
REMARK       I    between atoms: C32_34  and  C33_35 
REMARK       I    between atoms: C34_36  and  C35_37 
ROOT
HETATM    1  C1  STQ X1620     -33.696 129.327   6.898  1.00 33.88    -0.022 C 
HETATM    2  C2  STQ X1620     -32.895 130.115   5.872  1.00 33.88     0.045 C 
HETATM    3  C3  STQ X1620     -32.047 131.226   6.454  1.00 33.88     0.119 C 
HETATM    4  C4  STQ X1620     -31.148 130.599   7.498  1.00 33.88     0.040 C 
HETATM    5  C5  STQ X1620     -31.993 129.986   8.584  1.00 33.88     0.013 C 
HETATM    6  C6  STQ X1620     -33.265 129.660   8.326  1.00 33.88    -0.068 C 
HETATM    7  C7  STQ X1620     -34.319 129.927   9.312  1.00 33.88     0.004 C 
HETATM    8  C8  STQ X1620     -34.855 131.121   9.024  1.00 33.88     0.007 C 
HETATM    9  C9  STQ X1620     -35.915 131.763   9.845  1.00 33.88    -0.062 C 
HETATM   10  C10 STQ X1620     -36.349 132.974   9.422  1.00 33.88     0.007 C 
HETATM   11  C11 STQ X1620     -37.405 133.734  10.080  1.00 33.88     0.001 C 
HETATM   12  C12 STQ X1620     -37.815 134.889   9.577  1.00 33.88     0.007 C 
HETATM   13  C13 STQ X1620     -38.933 135.627  10.192  1.00 33.88    -0.062 C 
HETATM   14  C14 STQ X1620     -39.368 136.700   9.511  1.00 33.88     0.007 C 
HETATM   15  C15 STQ X1620     -40.504 137.538   9.895  1.00 33.88     0.001 C 
HETATM   16  C16 STQ X1620     -33.560 127.867   6.472  1.00 33.88     0.019 C 
HETATM   17  C17 STQ X1620     -35.153 129.756   6.737  1.00 33.88     0.019 C 
HETATM   18  C18 STQ X1620     -31.587 130.876   9.731  1.00 33.88     0.015 C 
HETATM   19  C19 STQ X1620     -36.471 131.067  11.069  1.00 33.88     0.048 C 
HETATM   20  C20 STQ X1620     -39.569 135.109  11.455  1.00 33.88     0.048 C 
HETATM   21  O3  STQ X1620     -31.266 131.762   5.382  1.00 33.88    -0.396 OA
ATOM     22  H3  STQ X1620     -30.733 132.459   5.747  1.00  0.00     0.210 HD
HETATM   23  C21 STQ X1620     -50.168 145.567   8.835  1.00 33.88    -0.035 C 
HETATM   24  C22 STQ X1620     -51.510 145.794   9.508  1.00 33.88     0.045 C 
HETATM   25  C23 STQ X1620     -51.671 147.222  10.005  1.00 33.88     0.142 C 
HETATM   26  C24 STQ X1620     -50.364 147.831  10.470  1.00 33.88     0.007 C 
HETATM   27  C25 STQ X1620     -49.167 147.214  10.413  1.00 33.88    -0.077 C 
HETATM   28  C26 STQ X1620     -49.021 145.839   9.813  1.00 33.88     0.044 C 
HETATM   29  C27 STQ X1620     -47.741 145.553   9.041  1.00 33.88    -0.016 C 
HETATM   30  C28 STQ X1620     -46.982 144.521   9.412  1.00 33.88     0.003 C 
HETATM   31  C29 STQ X1620     -45.764 144.089   8.690  1.00 33.88    -0.062 C 
HETATM   32  C30 STQ X1620     -45.189 142.960   9.157  1.00 33.88     0.007 C 
HETATM   33  C31 STQ X1620     -44.003 142.309   8.596  1.00 33.88     0.001 C 
HETATM   34  C32 STQ X1620     -43.559 141.191   9.181  1.00 33.88     0.007 C 
HETATM   35  C33 STQ X1620     -42.374 140.452   8.690  1.00 33.88    -0.062 C 
HETATM   36  C34 STQ X1620     -41.976 139.387   9.415  1.00 33.88     0.007 C 
HETATM   37  C35 STQ X1620     -40.832 138.538   9.081  1.00 33.88     0.001 C 
HETATM   38  C36 STQ X1620     -50.074 146.450   7.590  1.00 33.88     0.016 C 
HETATM   39  C37 STQ X1620     -50.124 144.107   8.397  1.00 33.88     0.016 C 
HETATM   40  C38 STQ X1620     -47.998 147.915  11.042  1.00 33.88     0.044 C 
HETATM   41  C39 STQ X1620     -45.269 144.851   7.483  1.00 33.88     0.048 C 
HETATM   42  C40 STQ X1620     -41.714 140.891   7.410  1.00 33.88     0.048 C 
HETATM   43  O23 STQ X1620     -52.600 147.218  11.095  1.00 33.88    -0.392 OA
ATOM     44  H23 STQ X1620     -52.701 148.110  11.405  1.00  0.00     0.210 HD
ENDROOT
TORSDOF 12
BEGIN_RES PHE A  61
REMARK  2 active torsions:
REMARK  status: ('A' for Active; 'I' for Inactive)
REMARK    1  A    between atoms: CA   and  CB  
REMARK    2  A    between atoms: CB   and  CG  
ROOT
ATOM      1  CA  PHE A  61     -36.237 128.293  12.768  1.00 39.40     0.164 C 
ENDROOT
BRANCH   1   2
ATOM      2  CB  PHE A  61     -36.813 128.951  11.509  1.00 39.41     0.058 C 
BRANCH   2   3
ATOM      3  CG  PHE A  61     -36.703 128.110  10.260  1.00 39.01    -0.020 A 
ATOM      4  CD2 PHE A  61     -37.713 128.111   9.310  1.00 40.32    -0.004 A 
ATOM      5  CE2 PHE A  61     -37.612 127.335   8.163  1.00 40.20    -0.000 A 
ATOM      6  CZ  PHE A  61     -36.501 126.552   7.950  1.00 40.34    -0.000 A 
ATOM      7  CE1 PHE A  61     -35.487 126.541   8.883  1.00 41.51    -0.000 A 
ATOM      8  CD1 PHE A  61     -35.591 127.312  10.033  1.00 39.94    -0.004 A 
ENDBRANCH   2   3
ENDBRANCH   1   2
END_RES PHE A  61
BEGIN_RES VAL A 134
REMARK  1 active torsions:
REMARK  status: ('A' for Active; 'I' for Inactive)
REMARK    3  A    between atoms: CA   and  CB  
ROOT
ATOM      9  CA  VAL A 134     -29.766 132.051   9.815  1.00 40.75     0.159 C 
ENDROOT
BRANCH   9  10
ATOM     10  CB  VAL A 134     -30.864 132.765   9.009  1.00 40.76     0.029 C 
ATOM     11  CG1 VAL A 134     -31.975 133.252   9.927  1.00 41.76     0.002 C 
ATOM     12  CG2 VAL A 134     -30.300 133.914   8.188  1.00 40.56     0.002 C 
ENDBRANCH   9  10
END_RES VAL A 134
BEGIN_RES TYR A 338
REMARK  3 active torsions:
REMARK  status: ('A' for Active; 'I' for Inactive)
REMARK    4  A    between atoms: CA   and  CB  
REMARK    5  A    between atoms: CB   and  CG  
REMARK    6  A    between atoms: CZ   and  OH  
ROOT
ATOM     13  CA  TYR A 338     -41.631 124.950   6.058  1.00 38.23     0.164 C 
ENDROOT
BRANCH  13  14
ATOM     14  CB  TYR A 338     -41.621 126.456   6.339  1.00 39.15     0.058 C 
BRANCH  14  15
ATOM     15  CG  TYR A 338     -40.400 127.205   5.857  1.00 39.03    -0.020 A 
ATOM     16  CD2 TYR A 338     -40.223 128.539   6.183  1.00 40.65    -0.002 A 
ATOM     17  CE2 TYR A 338     -39.123 129.261   5.744  1.00 40.91     0.024 A 
ATOM     18  CZ  TYR A 338     -38.168 128.647   4.957  1.00 42.33     0.089 A 
ATOM     19  CE1 TYR A 338     -38.321 127.313   4.622  1.00 40.63     0.024 A 
ATOM     20  CD1 TYR A 338     -39.434 126.612   5.059  1.00 39.27    -0.002 A 
BRANCH  18  21
ATOM     21  OH  TYR A 338     -37.078 129.348   4.523  1.00 43.36    -0.359 OA
ATOM     22  HH  TYR A 338     -36.409 128.921   3.999  1.00  0.00     0.217 HD
ENDBRANCH  18  21
ENDBRANCH  14  15
ENDBRANCH  13  14
END_RES TYR A 338
ENDMDL
MODEL 2
REMARK VINA RESULT:    -7.146      1.521     16.456
REMARK INTER + INTRA:         -10.368
REMARK INTER:                  -9.226
REMARK INTRA:                  -1.142
REMARK UNBOUND:                -3.222
REMARK  0 active torsions:
REMARK  status: ('A' for Active; 'I' for Inactive)
REMARK       I    between atoms: C3_3  and  O3_21 
REMARK       I    between atoms: C6_6  and  C7_7 
REMARK       I    between atoms: C8_8  and  C9_9 
REMARK       I    between atoms: C10_10  and  C11_11 
REMARK       I    between atoms: C12_12  and  C13_13 
REMARK       I    between atoms: C14_14  and  C15_15 
REMARK       I    between atoms: C23_25  and  O23_43 
REMARK       I    between atoms: C26_28  and  C27_29 
REMARK       I    between atoms: C28_30  and  C29_31 
REMARK       I    between atoms: C30_32  and  C31_33 
REMARK       I    between atoms: C32_34  and  C33_35 
REMARK       I    between atoms: C34_36  and  C35_37 
ROOT
HETATM    1  C1  STQ X1620     -50.791 144.338  11.102  1.00 33.88    -0.022 C 
HETATM    2  C2  STQ X1620     -50.748 144.137  12.610  1.00 33.88     0.045 C 
HETATM    3  C3  STQ X1620     -49.599 144.838  13.305  1.00 33.88     0.119 C 
HETATM    4  C4  STQ X1620     -49.687 146.304  12.942  1.00 33.88     0.040 C 
HETATM    5  C5  STQ X1620     -49.546 146.461  11.450  1.00 33.88     0.013 C 
HETATM    6  C6  STQ X1620     -49.814 145.422  10.650  1.00 33.88    -0.068 C 
HETATM    7  C7  STQ X1620     -48.957 145.129   9.494  1.00 33.88     0.004 C 
HETATM    8  C8  STQ X1620     -48.036 144.237   9.884  1.00 33.88     0.007 C 
HETATM    9  C9  STQ X1620     -46.948 143.744   9.002  1.00 33.88    -0.062 C 
HETATM   10  C10 STQ X1620     -46.093 142.846   9.548  1.00 33.88     0.007 C 
HETATM   11  C11 STQ X1620     -44.990 142.228   8.822  1.00 33.88     0.001 C 
HETATM   12  C12 STQ X1620     -44.228 141.316   9.407  1.00 33.88     0.007 C 
HETATM   13  C13 STQ X1620     -43.158 140.632   8.659  1.00 33.88    -0.062 C 
HETATM   14  C14 STQ X1620     -42.556 139.617   9.300  1.00 33.88     0.007 C 
HETATM   15  C15 STQ X1620     -41.520 138.757   8.728  1.00 33.88     0.001 C 
HETATM   16  C16 STQ X1620     -52.264 144.573  10.775  1.00 33.88     0.019 C 
HETATM   17  C17 STQ X1620     -50.350 143.018  10.474  1.00 33.88     0.019 C 
HETATM   18  C18 STQ X1620     -48.241 147.214  11.413  1.00 33.88     0.015 C 
HETATM   19  C19 STQ X1620     -46.838 144.224   7.570  1.00 33.88     0.048 C 
HETATM   20  C20 STQ X1620     -42.869 141.027   7.235  1.00 33.88     0.048 C 
HETATM   21  O3  STQ X1620     -49.791 144.661  14.712  1.00 33.88    -0.396 OA
ATOM     22  H3  STQ X1620     -49.070 145.101  15.148  1.00  0.00     0.210 HD
HETATM   23  C21 STQ X1620     -34.195 128.648   6.957  1.00 33.88    -0.035 C 
HETATM   24  C22 STQ X1620     -33.502 127.961   5.794  1.00 33.88     0.045 C 
HETATM   25  C23 STQ X1620     -32.017 127.757   6.047  1.00 33.88     0.142 C 
HETATM   26  C24 STQ X1620     -31.405 128.869   6.873  1.00 33.88     0.007 C 
HETATM   27  C25 STQ X1620     -32.091 129.912   7.384  1.00 33.88    -0.077 C 
HETATM   28  C26 STQ X1620     -33.584 130.029   7.210  1.00 33.88     0.044 C 
HETATM   29  C27 STQ X1620     -34.370 130.626   8.367  1.00 33.88    -0.016 C 
HETATM   30  C28 STQ X1620     -35.136 131.695   8.142  1.00 33.88     0.003 C 
HETATM   31  C29 STQ X1620     -36.013 132.313   9.163  1.00 33.88    -0.062 C 
HETATM   32  C30 STQ X1620     -36.790 133.323   8.716  1.00 33.88     0.007 C 
HETATM   33  C31 STQ X1620     -37.766 134.068   9.516  1.00 33.88     0.001 C 
HETATM   34  C32 STQ X1620     -38.458 135.045   8.919  1.00 33.88     0.007 C 
HETATM   35  C33 STQ X1620     -39.471 135.854   9.633  1.00 33.88    -0.062 C 
HETATM   36  C34 STQ X1620     -40.040 136.865   8.945  1.00 33.88     0.007 C 
HETATM   37  C35 STQ X1620     -41.060 137.764   9.486  1.00 33.88     0.001 C 
HETATM   38  C36 STQ X1620     -34.106 127.753   8.195  1.00 33.88     0.016 C 
HETATM   39  C37 STQ X1620     -35.663 128.806   6.579  1.00 33.88     0.016 C 
HETATM   40  C38 STQ X1620     -31.301 130.992   8.064  1.00 33.88     0.044 C 
HETATM   41  C39 STQ X1620     -36.051 131.778  10.575  1.00 33.88     0.048 C 
HETATM   42  C40 STQ X1620     -39.840 135.487  11.047  1.00 33.88     0.048 C 
HETATM   43  O23 STQ X1620     -31.349 127.692   4.781  1.00 33.88    -0.392 OA
ATOM     44  H23 STQ X1620     -30.421 127.564   4.939  1.00  0.00     0.210 HD
ENDROOT
TORSDOF 12
BEGIN_RES PHE A  61
REMARK  2 active torsions:
REMARK  status: ('A' for Active; 'I' for Inactive)
REMARK    1  A    between atoms: CA   and  CB  
REMARK    2  A    between atoms: CB   and  CG  
ROOT
ATOM      1  CA  PHE A  61     -36.237 128.293  12.768  1.00 39.40     0.164 C 
ENDROOT
BRANCH   1   2
ATOM      2  CB  PHE A  61     -36.813 128.951  11.509  1.00 39.41     0.058 C 
BRANCH   2   3
ATOM      3  CG  PHE A  61     -36.966 128.018  10.332  1.00 39.01    -0.020 A 
ATOM      4  CD2 PHE A  61     -36.116 126.936  10.166  1.00 40.32    -0.004 A 
ATOM      5  CE2 PHE A  61     -36.256 126.080   9.080  1.00 40.20    -0.000 A 
ATOM      6  CZ  PHE A  61     -37.249 126.294   8.152  1.00 40.34    -0.000 A 
ATOM      7  CE1 PHE A  61     -38.104 127.363   8.304  1.00 41.51    -0.000 A 
ATOM      8  CD1 PHE A  61     -37.960 128.223   9.385  1.00 39.94    -0.004 A 
ENDBRANCH   2   3
ENDBRANCH   1   2
END_RES PHE A  61
BEGIN_RES VAL A 134
REMARK  1 active torsions:
REMARK  status: ('A' for Active; 'I' for Inactive)
REMARK    3  A    between atoms: CA   and  CB  
ROOT
ATOM      9  CA  VAL A 134     -29.766 132.051   9.815  1.00 40.75     0.159 C 
ENDROOT
BRANCH   9  10
ATOM     10  CB  VAL A 134     -30.864 132.765   9.009  1.00 40.76     0.029 C 
ATOM     11  CG1 VAL A 134     -32.102 132.988   9.866  1.00 41.76     0.002 C 
ATOM     12  CG2 VAL A 134     -30.367 134.079   8.425  1.00 40.56     0.002 C 
ENDBRANCH   9  10
END_RES VAL A 134
BEGIN_RES TYR A 338
REMARK  3 active torsions:
REMARK  status: ('A' for Active; 'I' for Inactive)
REMARK    4  A    between atoms: CA   and  CB  
REMARK    5  A    between atoms: CB   and  CG  
REMARK    6  A    between atoms: CZ   and  OH  
ROOT
ATOM     13  CA  TYR A 338     -41.631 124.950   6.058  1.00 38.23     0.164 C 
ENDROOT
BRANCH  13  14
ATOM     14  CB  TYR A 338     -41.621 126.456   6.339  1.00 39.15     0.058 C 
BRANCH  14  15
ATOM     15  CG  TYR A 338     -40.420 127.212   5.819  1.00 39.03    -0.020 A 
ATOM     16  CD2 TYR A 338     -40.271 128.562   6.090  1.00 40.65    -0.002 A 
ATOM     17  CE2 TYR A 338     -39.191 129.290   5.616  1.00 40.91     0.024 A 
ATOM     18  CZ  TYR A 338     -38.226 128.666   4.848  1.00 42.33     0.089 A 
ATOM     19  CE1 TYR A 338     -38.350 127.317   4.568  1.00 40.63     0.024 A 
ATOM     20  CD1 TYR A 338     -39.445 126.609   5.040  1.00 39.27    -0.002 A 
BRANCH  18  21
ATOM     21  OH  TYR A 338     -37.154 129.373   4.380  1.00 43.36    -0.359 OA
ATOM     22  HH  TYR A 338     -36.269 129.095   4.583  1.00  0.00     0.217 HD
ENDBRANCH  18  21
ENDBRANCH  14  15
ENDBRANCH  13  14
END_RES TYR A 338
ENDMDL
