MODEL 1
REMARK VINA RESULT:    -7.879      0.000      0.000
REMARK INTER + INTRA:         -10.678
REMARK INTER:                  -7.879
REMARK INTRA:                  -2.799
REMARK UNBOUND:                -2.799
REMARK  0 active torsions:
REMARK  status: ('A' for Active; 'I' for Inactive)
REMARK       I    between atoms: C3_3  and  O3_21 
REMARK       I    between atoms: C6_6  and  C7_7 
REMARK       I    between atoms: C8_8  and  C9_9 
REMARK       I    between atoms: C10_10  and  C11_11 
REMARK       I    between atoms: C12_12  and  C13_13 
REMARK       I    between atoms: C14_14  and  C15_15 
REMARK       I    between atoms: C23_25  and  O23_43 
REMARK       I    between atoms: C26_28  and  C27_29 
REMARK       I    between atoms: C28_30  and  C29_31 
REMARK       I    between atoms: C30_32  and  C31_33 
REMARK       I    between atoms: C32_34  and  C33_35 
REMARK       I    between atoms: C34_36  and  C35_37 
ROOT
HETATM    1  C1  STQ N1620     -34.508 126.811   6.144  1.00 57.79    -0.018 C 
HETATM    2  C2  STQ N1620     -33.796 125.957   5.109  1.00 59.26     0.045 C 
HETATM    3  C3  STQ N1620     -32.930 126.758   4.163  1.00 62.25     0.123 C 
HETATM    4  C4  STQ N1620     -31.871 127.477   4.958  1.00 57.83     0.066 C 
HETATM    5  C5  STQ N1620     -32.475 128.288   6.071  1.00 54.66    -0.074 C 
HETATM    6  C6  STQ N1620     -33.671 127.993   6.627  1.00 55.29    -0.048 C 
HETATM    7  C7  STQ N1620     -34.180 128.791   7.773  1.00 55.61     0.009 C 
HETATM    8  C8  STQ N1620     -34.857 129.930   7.617  1.00 56.19     0.007 C 
HETATM    9  C9  STQ N1620     -35.364 130.716   8.740  1.00 61.49    -0.062 C 
HETATM   10  C10 STQ N1620     -36.083 131.782   8.404  1.00 57.47     0.007 C 
HETATM   11  C11 STQ N1620     -36.693 132.695   9.346  1.00 53.29     0.001 C 
HETATM   12  C12 STQ N1620     -37.454 133.606   8.769  1.00 52.45     0.007 C 
HETATM   13  C13 STQ N1620     -38.190 134.602   9.542  1.00 52.04    -0.062 C 
HETATM   14  C14 STQ N1620     -39.115 135.298   8.884  1.00 54.29     0.007 C 
HETATM   15  C15 STQ N1620     -39.952 136.293   9.522  1.00 53.12     0.001 C 
HETATM   16  C16 STQ N1620     -34.918 125.850   7.255  1.00 58.39     0.020 C 
HETATM   17  C17 STQ N1620     -35.773 127.379   5.521  1.00 64.45     0.020 C 
HETATM   18  C18 STQ N1620     -31.602 129.426   6.514  1.00 58.11     0.044 C 
HETATM   19  C19 STQ N1620     -35.063 130.344  10.162  1.00 70.55     0.048 C 
HETATM   20  C20 STQ N1620     -37.919 134.796  10.999  1.00 53.04     0.048 C 
HETATM   21  O3  STQ N1620     -32.278 125.879   3.244  1.00 65.91    -0.395 OA
ATOM     22  H3  STQ N1620     -31.735 126.382   2.649  1.00  0.00     0.210 HD
HETATM   23  C21 STQ N1620     -49.918 143.944  10.804  1.00 70.84    -0.035 C 
HETATM   24  C22 STQ N1620     -50.767 144.803  11.727  1.00 74.16     0.045 C 
HETATM   25  C23 STQ N1620     -50.486 146.296  11.656  1.00 78.08     0.142 C 
HETATM   26  C24 STQ N1620     -49.017 146.601  11.545  1.00 81.23     0.007 C 
HETATM   27  C25 STQ N1620     -48.107 145.695  11.183  1.00 73.41    -0.077 C 
HETATM   28  C26 STQ N1620     -48.425 144.238  10.982  1.00 72.81     0.044 C 
HETATM   29  C27 STQ N1620     -47.630 143.675   9.821  1.00 72.75    -0.016 C 
HETATM   30  C28 STQ N1620     -46.724 142.747  10.093  1.00 71.34     0.003 C 
HETATM   31  C29 STQ N1620     -45.906 142.113   9.057  1.00 71.47    -0.062 C 
HETATM   32  C30 STQ N1620     -45.186 141.068   9.454  1.00 69.97     0.007 C 
HETATM   33  C31 STQ N1620     -44.329 140.271   8.598  1.00 65.68     0.001 C 
HETATM   34  C32 STQ N1620     -43.591 139.394   9.252  1.00 62.75     0.007 C 
HETATM   35  C33 STQ N1620     -42.680 138.466   8.577  1.00 61.08    -0.062 C 
HETATM   36  C34 STQ N1620     -41.839 137.769   9.343  1.00 59.90     0.007 C 
HETATM   37  C35 STQ N1620     -40.926 136.793   8.778  1.00 55.64     0.001 C 
HETATM   38  C36 STQ N1620     -50.380 144.122   9.359  1.00 73.25     0.016 C 
HETATM   39  C37 STQ N1620     -50.178 142.499  11.199  1.00 71.17     0.016 C 
HETATM   40  C38 STQ N1620     -46.707 146.172  11.005  1.00 74.91     0.044 C 
HETATM   41  C39 STQ N1620     -45.894 142.608   7.645  1.00 74.91     0.048 C 
HETATM   42  C40 STQ N1620     -42.729 138.301   7.090  1.00 55.73     0.048 C 
HETATM   43  O23 STQ N1620     -50.979 146.924  12.843  1.00 76.53    -0.392 OA
ATOM     44  H23 STQ N1620     -51.907 146.731  12.913  1.00  0.00     0.210 HD
ENDROOT
TORSDOF 12
BEGIN_RES PHE A  61
REMARK  2 active torsions:
REMARK  status: ('A' for Active; 'I' for Inactive)
REMARK    1  A    between atoms: CA   and  CB  
REMARK    2  A    between atoms: CB   and  CG  
ROOT
ATOM      1  CA  PHE A  61     -36.237 128.293  12.768  1.00 39.40     0.164 C 
ENDROOT
BRANCH   1   2
ATOM      2  CB  PHE A  61     -36.813 128.951  11.509  1.00 39.41     0.058 C 
BRANCH   2   3
ATOM      3  CG  PHE A  61     -37.044 128.001  10.358  1.00 39.01    -0.020 A 
ATOM      4  CD2 PHE A  61     -36.321 126.824  10.251  1.00 40.32    -0.004 A 
ATOM      5  CE2 PHE A  61     -36.532 125.952   9.190  1.00 40.20    -0.000 A 
ATOM      6  CZ  PHE A  61     -37.471 126.245   8.228  1.00 40.34    -0.000 A 
ATOM      7  CE1 PHE A  61     -38.200 127.410   8.321  1.00 41.51    -0.000 A 
ATOM      8  CD1 PHE A  61     -37.984 128.285   9.378  1.00 39.94    -0.004 A 
ENDBRANCH   2   3
ENDBRANCH   1   2
END_RES PHE A  61
BEGIN_RES VAL A 134
REMARK  1 active torsions:
REMARK  status: ('A' for Active; 'I' for Inactive)
REMARK    3  A    between atoms: CA   and  CB  
ROOT
ATOM      9  CA  VAL A 134     -29.766 132.051   9.815  1.00 40.75     0.159 C 
ENDROOT
BRANCH   9  10
ATOM     10  CB  VAL A 134     -30.864 132.765   9.009  1.00 40.76     0.029 C 
ATOM     11  CG1 VAL A 134     -30.930 132.220   7.590  1.00 41.76     0.002 C 
ATOM     12  CG2 VAL A 134     -32.219 132.660   9.692  1.00 40.56     0.002 C 
ENDBRANCH   9  10
END_RES VAL A 134
BEGIN_RES TYR A 338
REMARK  3 active torsions:
REMARK  status: ('A' for Active; 'I' for Inactive)
REMARK    4  A    between atoms: CA   and  CB  
REMARK    5  A    between atoms: CB   and  CG  
REMARK    6  A    between atoms: CZ   and  OH  
ROOT
ATOM     13  CA  TYR A 338     -41.631 124.950   6.058  1.00 38.23     0.164 C 
ENDROOT
BRANCH  13  14
ATOM     14  CB  TYR A 338     -41.621 126.456   6.339  1.00 39.15     0.058 C 
BRANCH  14  15
ATOM     15  CG  TYR A 338     -40.425 127.214   5.810  1.00 39.03    -0.020 A 
ATOM     16  CD2 TYR A 338     -40.247 128.550   6.126  1.00 40.65    -0.002 A 
ATOM     17  CE2 TYR A 338     -39.171 129.280   5.646  1.00 40.91     0.024 A 
ATOM     18  CZ  TYR A 338     -38.239 128.671   4.826  1.00 42.33     0.089 A 
ATOM     19  CE1 TYR A 338     -38.393 127.335   4.500  1.00 40.63     0.024 A 
ATOM     20  CD1 TYR A 338     -39.484 126.626   4.980  1.00 39.27    -0.002 A 
BRANCH  18  21
ATOM     21  OH  TYR A 338     -37.172 129.380   4.351  1.00 43.36    -0.359 OA
ATOM     22  HH  TYR A 338     -36.898 129.288   3.446  1.00  0.00     0.217 HD
ENDBRANCH  18  21
ENDBRANCH  14  15
ENDBRANCH  13  14
END_RES TYR A 338
ENDMDL
MODEL 2
REMARK VINA RESULT:    -6.833      1.397     16.740
REMARK INTER + INTRA:          -9.632
REMARK INTER:                  -9.286
REMARK INTRA:                  -0.346
REMARK UNBOUND:                -2.799
REMARK  0 active torsions:
REMARK  status: ('A' for Active; 'I' for Inactive)
REMARK       I    between atoms: C3_3  and  O3_21 
REMARK       I    between atoms: C6_6  and  C7_7 
REMARK       I    between atoms: C8_8  and  C9_9 
REMARK       I    between atoms: C10_10  and  C11_11 
REMARK       I    between atoms: C12_12  and  C13_13 
REMARK       I    between atoms: C14_14  and  C15_15 
REMARK       I    between atoms: C23_25  and  O23_43 
REMARK       I    between atoms: C26_28  and  C27_29 
REMARK       I    between atoms: C28_30  and  C29_31 
REMARK       I    between atoms: C30_32  and  C31_33 
REMARK       I    between atoms: C32_34  and  C33_35 
REMARK       I    between atoms: C34_36  and  C35_37 
ROOT
HETATM    1  C1  STQ N1620     -50.315 144.466  12.866  1.00 57.79    -0.018 C 
HETATM    2  C2  STQ N1620     -51.167 145.108  13.947  1.00 59.26     0.045 C 
HETATM    3  C3  STQ N1620     -50.354 145.772  15.036  1.00 62.25     0.123 C 
HETATM    4  C4  STQ N1620     -49.511 146.860  14.423  1.00 57.83     0.066 C 
HETATM    5  C5  STQ N1620     -48.689 146.339  13.278  1.00 54.66    -0.074 C 
HETATM    6  C6  STQ N1620     -49.046 145.255  12.553  1.00 55.29    -0.048 C 
HETATM    7  C7  STQ N1620     -48.226 144.833  11.387  1.00 55.61     0.009 C 
HETATM    8  C8  STQ N1620     -47.154 144.047  11.501  1.00 56.19     0.007 C 
HETATM    9  C9  STQ N1620     -46.349 143.625  10.357  1.00 61.49    -0.062 C 
HETATM   10  C10 STQ N1620     -45.363 142.780  10.641  1.00 57.47     0.007 C 
HETATM   11  C11 STQ N1620     -44.450 142.222   9.668  1.00 53.29     0.001 C 
HETATM   12  C12 STQ N1620     -43.635 141.318  10.178  1.00 52.45     0.007 C 
HETATM   13  C13 STQ N1620     -42.658 140.607   9.360  1.00 52.04    -0.062 C 
HETATM   14  C14 STQ N1620     -42.074 139.548   9.919  1.00 54.29     0.007 C 
HETATM   15  C15 STQ N1620     -41.114 138.720   9.219  1.00 53.12     0.001 C 
HETATM   16  C16 STQ N1620     -51.241 144.286  11.668  1.00 58.39     0.020 C 
HETATM   17  C17 STQ N1620     -49.883 143.087  13.338  1.00 64.45     0.020 C 
HETATM   18  C18 STQ N1620     -47.463 147.162  13.007  1.00 58.11     0.044 C 
HETATM   19  C19 STQ N1620     -46.617 144.139   8.973  1.00 70.55     0.048 C 
HETATM   20  C20 STQ N1620     -42.362 141.047   7.962  1.00 53.04     0.048 C 
HETATM   21  O3  STQ N1620     -51.229 146.371  15.994  1.00 65.91    -0.395 OA
ATOM     22  H3  STQ N1620     -50.719 146.788  16.678  1.00  0.00     0.210 HD
HETATM   23  C21 STQ N1620     -34.208 128.390   6.960  1.00 70.84    -0.035 C 
HETATM   24  C22 STQ N1620     -33.368 127.598   5.971  1.00 74.16     0.045 C 
HETATM   25  C23 STQ N1620     -31.864 127.740   6.146  1.00 78.08     0.142 C 
HETATM   26  C24 STQ N1620     -31.452 129.150   6.466  1.00 81.23     0.007 C 
HETATM   27  C25 STQ N1620     -32.302 130.079   6.906  1.00 73.41    -0.077 C 
HETATM   28  C26 STQ N1620     -33.789 129.863   6.997  1.00 72.81     0.044 C 
HETATM   29  C27 STQ N1620     -34.351 130.545   8.227  1.00 72.75    -0.016 C 
HETATM   30  C28 STQ N1620     -35.189 131.555   8.038  1.00 71.34     0.003 C 
HETATM   31  C29 STQ N1620     -35.814 132.282   9.144  1.00 71.47    -0.062 C 
HETATM   32  C30 STQ N1620     -36.776 133.134   8.800  1.00 69.97     0.007 C 
HETATM   33  C31 STQ N1620     -37.549 133.937   9.726  1.00 65.68     0.001 C 
HETATM   34  C32 STQ N1620     -38.328 134.826   9.139  1.00 62.75     0.007 C 
HETATM   35  C33 STQ N1620     -39.218 135.717   9.887  1.00 61.08    -0.062 C 
HETATM   36  C34 STQ N1620     -39.803 136.706   9.211  1.00 59.90     0.007 C 
HETATM   37  C35 STQ N1620     -40.734 137.618   9.848  1.00 55.64     0.001 C 
HETATM   38  C36 STQ N1620     -34.148 127.730   8.336  1.00 73.25     0.016 C 
HETATM   39  C37 STQ N1620     -35.645 128.307   6.469  1.00 71.17     0.016 C 
HETATM   40  C38 STQ N1620     -31.728 131.398   7.291  1.00 74.91     0.044 C 
HETATM   41  C39 STQ N1620     -35.399 132.068  10.566  1.00 74.91     0.048 C 
HETATM   42  C40 STQ N1620     -39.469 135.490  11.345  1.00 55.73     0.048 C 
HETATM   43  O23 STQ N1620     -31.211 127.353   4.933  1.00 76.53    -0.392 OA
ATOM     44  H23 STQ N1620     -31.472 126.462   4.731  1.00  0.00     0.210 HD
ENDROOT
TORSDOF 12
BEGIN_RES PHE A  61
REMARK  2 active torsions:
REMARK  status: ('A' for Active; 'I' for Inactive)
REMARK    1  A    between atoms: CA   and  CB  
REMARK    2  A    between atoms: CB   and  CG  
ROOT
ATOM      1  CA  PHE A  61     -36.237 128.293  12.768  1.00 39.40     0.164 C 
ENDROOT
BRANCH   1   2
ATOM      2  CB  PHE A  61     -36.813 128.951  11.509  1.00 39.41     0.058 C 
BRANCH   2   3
ATOM      3  CG  PHE A  61     -37.024 128.005  10.351  1.00 39.01    -0.020 A 
ATOM      4  CD2 PHE A  61     -36.279 126.841  10.238  1.00 40.32    -0.004 A 
ATOM      5  CE2 PHE A  61     -36.472 125.973   9.171  1.00 40.20    -0.000 A 
ATOM      6  CZ  PHE A  61     -37.413 126.257   8.207  1.00 40.34    -0.000 A 
ATOM      7  CE1 PHE A  61     -38.163 127.408   8.306  1.00 41.51    -0.000 A 
ATOM      8  CD1 PHE A  61     -37.966 128.279   9.370  1.00 39.94    -0.004 A 
ENDBRANCH   2   3
ENDBRANCH   1   2
END_RES PHE A  61
BEGIN_RES VAL A 134
REMARK  1 active torsions:
REMARK  status: ('A' for Active; 'I' for Inactive)
REMARK    3  A    between atoms: CA   and  CB  
ROOT
ATOM      9  CA  VAL A 134     -29.766 132.051   9.815  1.00 40.75     0.159 C 
ENDROOT
BRANCH   9  10
ATOM     10  CB  VAL A 134     -30.864 132.765   9.009  1.00 40.76     0.029 C 
ATOM     11  CG1 VAL A 134     -32.108 132.972   9.860  1.00 41.76     0.002 C 
ATOM     12  CG2 VAL A 134     -30.373 134.087   8.440  1.00 40.56     0.002 C 
ENDBRANCH   9  10
END_RES VAL A 134
BEGIN_RES TYR A 338
REMARK  3 active torsions:
REMARK  status: ('A' for Active; 'I' for Inactive)
REMARK    4  A    between atoms: CA   and  CB  
REMARK    5  A    between atoms: CB   and  CG  
REMARK    6  A    between atoms: CZ   and  OH  
ROOT
ATOM     13  CA  TYR A 338     -41.631 124.950   6.058  1.00 38.23     0.164 C 
ENDROOT
BRANCH  13  14
ATOM     14  CB  TYR A 338     -41.621 126.456   6.339  1.00 39.15     0.058 C 
BRANCH  14  15
ATOM     15  CG  TYR A 338     -40.423 127.214   5.814  1.00 39.03    -0.020 A 
ATOM     16  CD2 TYR A 338     -40.258 128.556   6.110  1.00 40.65    -0.002 A 
ATOM     17  CE2 TYR A 338     -39.180 129.285   5.632  1.00 40.91     0.024 A 
ATOM     18  CZ  TYR A 338     -38.235 128.670   4.834  1.00 42.33     0.089 A 
ATOM     19  CE1 TYR A 338     -38.376 127.328   4.527  1.00 40.63     0.024 A 
ATOM     20  CD1 TYR A 338     -39.468 126.619   5.004  1.00 39.27    -0.002 A 
BRANCH  18  21
ATOM     21  OH  TYR A 338     -37.166 129.378   4.361  1.00 43.36    -0.359 OA
ATOM     22  HH  TYR A 338     -36.441 128.930   3.940  1.00  0.00     0.217 HD
ENDBRANCH  18  21
ENDBRANCH  14  15
ENDBRANCH  13  14
END_RES TYR A 338
ENDMDL
