MODEL 1
REMARK VINA RESULT:    -9.830      0.000      0.000
REMARK INTER + INTRA:         -10.323
REMARK INTER:                  -9.830
REMARK INTRA:                  -0.494
REMARK UNBOUND:                -0.494
REMARK  0 active torsions:
REMARK  status: ('A' for Active; 'I' for Inactive)
REMARK       I    between atoms: C3_3  and  O3_21 
REMARK       I    between atoms: C6_6  and  C7_7 
REMARK       I    between atoms: C8_8  and  C9_9 
REMARK       I    between atoms: C10_10  and  C11_11 
REMARK       I    between atoms: C12_12  and  C13_13 
REMARK       I    between atoms: C14_14  and  C15_15 
REMARK       I    between atoms: C23_25  and  O23_43 
REMARK       I    between atoms: C26_28  and  C27_29 
REMARK       I    between atoms: C28_30  and  C29_31 
REMARK       I    between atoms: C30_32  and  C31_33 
REMARK       I    between atoms: C32_34  and  C33_35 
REMARK       I    between atoms: C34_36  and  C35_37 
ROOT
HETATM    1  C1  STQ J9621     -34.117 128.337   7.152  1.00 21.11    -0.018 C 
HETATM    2  C2  STQ J9621     -33.414 127.711   5.935  1.00 20.11     0.045 C 
HETATM    3  C3  STQ J9621     -31.974 128.100   5.604  1.00 19.41     0.123 C 
HETATM    4  C4  STQ J9621     -31.355 129.200   6.478  1.00 18.39     0.066 C 
HETATM    5  C5  STQ J9621     -32.160 129.962   7.477  1.00 18.34    -0.074 C 
HETATM    6  C6  STQ J9621     -33.437 129.587   7.828  1.00 19.81    -0.048 C 
HETATM    7  C7  STQ J9621     -34.276 130.262   8.843  1.00 19.02     0.009 C 
HETATM    8  C8  STQ J9621     -34.994 131.382   8.630  1.00 17.97     0.007 C 
HETATM    9  C9  STQ J9621     -35.844 132.100   9.585  1.00 18.85    -0.062 C 
HETATM   10  C10 STQ J9621     -36.575 133.136   9.110  1.00 18.38     0.007 C 
HETATM   11  C11 STQ J9621     -37.540 133.931   9.833  1.00 18.57     0.001 C 
HETATM   12  C12 STQ J9621     -38.273 134.892   9.228  1.00 17.11     0.007 C 
HETATM   13  C13 STQ J9621     -39.340 135.713   9.819  1.00 20.42    -0.062 C 
HETATM   14  C14 STQ J9621     -39.977 136.598   9.018  1.00 20.50     0.007 C 
HETATM   15  C15 STQ J9621     -41.076 137.459   9.384  1.00 20.22     0.001 C 
HETATM   16  C16 STQ J9621     -34.227 127.162   8.156  1.00 19.56     0.020 C 
HETATM   17  C17 STQ J9621     -35.541 128.686   6.670  1.00 18.49     0.020 C 
HETATM   18  C18 STQ J9621     -31.324 131.057   8.028  1.00 16.89     0.044 C 
HETATM   19  C19 STQ J9621     -35.898 131.587  10.996  1.00 14.61     0.048 C 
HETATM   20  C20 STQ J9621     -39.686 135.492  11.273  1.00 17.59     0.048 C 
HETATM   21  O3  STQ J9621     -31.145 126.951   5.601  1.00 18.27    -0.395 OA
ATOM     22  H3  STQ J9621     -30.249 127.193   5.395  1.00  0.00     0.210 HD
HETATM   23  C21 STQ J9621     -50.915 145.909   9.772  1.00 22.52    -0.035 C 
HETATM   24  C22 STQ J9621     -52.043 146.704  10.458  1.00 21.99     0.045 C 
HETATM   25  C23 STQ J9621     -51.670 148.134  10.852  1.00 21.90     0.142 C 
HETATM   26  C24 STQ J9621     -50.233 148.290  11.362  1.00 21.56     0.007 C 
HETATM   27  C25 STQ J9621     -49.295 147.324  11.200  1.00 22.48    -0.077 C 
HETATM   28  C26 STQ J9621     -49.537 145.980  10.516  1.00 21.56     0.044 C 
HETATM   29  C27 STQ J9621     -48.355 145.564   9.667  1.00 20.56    -0.016 C 
HETATM   30  C28 STQ J9621     -47.680 144.391   9.798  1.00 20.46     0.003 C 
HETATM   31  C29 STQ J9621     -46.672 143.848   8.863  1.00 19.55    -0.062 C 
HETATM   32  C30 STQ J9621     -46.065 142.682   9.176  1.00 17.66     0.007 C 
HETATM   33  C31 STQ J9621     -45.056 142.005   8.398  1.00 19.12     0.001 C 
HETATM   34  C32 STQ J9621     -44.380 140.929   8.864  1.00 19.40     0.007 C 
HETATM   35  C33 STQ J9621     -43.306 140.148   8.223  1.00 19.31    -0.062 C 
HETATM   36  C34 STQ J9621     -42.721 139.171   8.948  1.00 17.72     0.007 C 
HETATM   37  C35 STQ J9621     -41.628 138.331   8.541  1.00 19.92     0.001 C 
HETATM   38  C36 STQ J9621     -50.792 146.447   8.315  1.00 21.96     0.016 C 
HETATM   39  C37 STQ J9621     -51.381 144.451   9.692  1.00 20.23     0.016 C 
HETATM   40  C38 STQ J9621     -47.960 147.664  11.767  1.00 21.00     0.044 C 
HETATM   41  C39 STQ J9621     -46.331 144.669   7.648  1.00 18.53     0.048 C 
HETATM   42  C40 STQ J9621     -42.888 140.536   6.831  1.00 15.86     0.048 C 
HETATM   43  O23 STQ J9621     -52.600 148.627  11.803  1.00 24.65    -0.392 OA
ATOM     44  H23 STQ J9621     -52.368 149.515  12.047  1.00  0.00     0.210 HD
ENDROOT
TORSDOF 12
BEGIN_RES PHE A  61
REMARK  2 active torsions:
REMARK  status: ('A' for Active; 'I' for Inactive)
REMARK    1  A    between atoms: CA   and  CB  
REMARK    2  A    between atoms: CB   and  CG  
ROOT
ATOM      1  CA  PHE A  61     -36.237 128.293  12.768  1.00 39.40     0.164 C 
ENDROOT
BRANCH   1   2
ATOM      2  CB  PHE A  61     -36.813 128.951  11.509  1.00 39.41     0.058 C 
BRANCH   2   3
ATOM      3  CG  PHE A  61     -37.028 128.004  10.353  1.00 39.01    -0.020 A 
ATOM      4  CD2 PHE A  61     -36.281 126.842  10.236  1.00 40.32    -0.004 A 
ATOM      5  CE2 PHE A  61     -36.477 125.974   9.170  1.00 40.20    -0.000 A 
ATOM      6  CZ  PHE A  61     -37.425 126.254   8.211  1.00 40.34    -0.000 A 
ATOM      7  CE1 PHE A  61     -38.176 127.404   8.314  1.00 41.51    -0.000 A 
ATOM      8  CD1 PHE A  61     -37.976 128.276   9.376  1.00 39.94    -0.004 A 
ENDBRANCH   2   3
ENDBRANCH   1   2
END_RES PHE A  61
BEGIN_RES VAL A 134
REMARK  1 active torsions:
REMARK  status: ('A' for Active; 'I' for Inactive)
REMARK    3  A    between atoms: CA   and  CB  
ROOT
ATOM      9  CA  VAL A 134     -29.766 132.051   9.815  1.00 40.75     0.159 C 
ENDROOT
BRANCH   9  10
ATOM     10  CB  VAL A 134     -30.864 132.765   9.009  1.00 40.76     0.029 C 
ATOM     11  CG1 VAL A 134     -32.103 132.984   9.865  1.00 41.76     0.002 C 
ATOM     12  CG2 VAL A 134     -30.368 134.081   8.428  1.00 40.56     0.002 C 
ENDBRANCH   9  10
END_RES VAL A 134
BEGIN_RES TYR A 338
REMARK  3 active torsions:
REMARK  status: ('A' for Active; 'I' for Inactive)
REMARK    4  A    between atoms: CA   and  CB  
REMARK    5  A    between atoms: CB   and  CG  
REMARK    6  A    between atoms: CZ   and  OH  
ROOT
ATOM     13  CA  TYR A 338     -41.631 124.950   6.058  1.00 38.23     0.164 C 
ENDROOT
BRANCH  13  14
ATOM     14  CB  TYR A 338     -41.621 126.456   6.339  1.00 39.15     0.058 C 
BRANCH  14  15
ATOM     15  CG  TYR A 338     -40.408 127.208   5.842  1.00 39.03    -0.020 A 
ATOM     16  CD2 TYR A 338     -40.254 128.555   6.124  1.00 40.65    -0.002 A 
ATOM     17  CE2 TYR A 338     -39.162 129.279   5.671  1.00 40.91     0.024 A 
ATOM     18  CZ  TYR A 338     -38.190 128.654   4.914  1.00 42.33     0.089 A 
ATOM     19  CE1 TYR A 338     -38.318 127.307   4.624  1.00 40.63     0.024 A 
ATOM     20  CD1 TYR A 338     -39.425 126.603   5.075  1.00 39.27    -0.002 A 
BRANCH  18  21
ATOM     21  OH  TYR A 338     -37.107 129.357   4.466  1.00 43.36    -0.359 OA
ATOM     22  HH  TYR A 338     -36.228 129.021   4.598  1.00  0.00     0.217 HD
ENDBRANCH  18  21
ENDBRANCH  14  15
ENDBRANCH  13  14
END_RES TYR A 338
ENDMDL
MODEL 2
REMARK VINA RESULT:    -9.473      1.991      2.543
REMARK INTER + INTRA:          -9.966
REMARK INTER:                  -7.421
REMARK INTRA:                  -2.546
REMARK UNBOUND:                -0.494
REMARK  0 active torsions:
REMARK  status: ('A' for Active; 'I' for Inactive)
REMARK       I    between atoms: C3_3  and  O3_21 
REMARK       I    between atoms: C6_6  and  C7_7 
REMARK       I    between atoms: C8_8  and  C9_9 
REMARK       I    between atoms: C10_10  and  C11_11 
REMARK       I    between atoms: C12_12  and  C13_13 
REMARK       I    between atoms: C14_14  and  C15_15 
REMARK       I    between atoms: C23_25  and  O23_43 
REMARK       I    between atoms: C26_28  and  C27_29 
REMARK       I    between atoms: C28_30  and  C29_31 
REMARK       I    between atoms: C30_32  and  C31_33 
REMARK       I    between atoms: C32_34  and  C33_35 
REMARK       I    between atoms: C34_36  and  C35_37 
ROOT
HETATM    1  C1  STQ J9621     -34.641 127.438   6.168  1.00 21.11    -0.018 C 
HETATM    2  C2  STQ J9621     -34.274 126.841   4.798  1.00 20.11     0.045 C 
HETATM    3  C3  STQ J9621     -32.886 127.084   4.208  1.00 19.41     0.123 C 
HETATM    4  C4  STQ J9621     -31.969 128.024   5.005  1.00 18.39     0.066 C 
HETATM    5  C5  STQ J9621     -32.459 128.787   6.190  1.00 18.34    -0.074 C 
HETATM    6  C6  STQ J9621     -33.683 128.536   6.767  1.00 19.81    -0.048 C 
HETATM    7  C7  STQ J9621     -34.214 129.216   7.970  1.00 19.02     0.009 C 
HETATM    8  C8  STQ J9621     -34.804 130.427   7.975  1.00 17.97     0.007 C 
HETATM    9  C9  STQ J9621     -35.351 131.156   9.124  1.00 18.85    -0.062 C 
HETATM   10  C10 STQ J9621     -36.016 132.308   8.870  1.00 18.38     0.007 C 
HETATM   11  C11 STQ J9621     -36.709 133.147   9.820  1.00 18.57     0.001 C 
HETATM   12  C12 STQ J9621     -37.411 134.235   9.435  1.00 17.11     0.007 C 
HETATM   13  C13 STQ J9621     -38.226 135.123  10.278  1.00 20.42    -0.062 C 
HETATM   14  C14 STQ J9621     -38.881 136.143   9.677  1.00 20.50     0.007 C 
HETATM   15  C15 STQ J9621     -39.765 137.093  10.309  1.00 20.22     0.001 C 
HETATM   16  C16 STQ J9621     -34.710 126.203   7.100  1.00 19.56     0.020 C 
HETATM   17  C17 STQ J9621     -36.071 127.994   6.006  1.00 18.49     0.020 C 
HETATM   18  C18 STQ J9621     -31.394 129.724   6.626  1.00 16.89     0.044 C 
HETATM   19  C19 STQ J9621     -35.201 130.534  10.483  1.00 14.61     0.048 C 
HETATM   20  C20 STQ J9621     -38.312 134.820  11.756  1.00 17.59     0.048 C 
HETATM   21  O3  STQ J9621     -32.233 125.850   3.968  1.00 18.27    -0.395 OA
ATOM     22  H3  STQ J9621     -31.370 126.001   3.600  1.00  0.00     0.210 HD
HETATM   23  C21 STQ J9621     -48.135 146.580  13.187  1.00 22.52    -0.035 C 
HETATM   24  C22 STQ J9621     -48.994 147.441  14.135  1.00 21.99     0.045 C 
HETATM   25  C23 STQ J9621     -48.365 148.778  14.531  1.00 21.90     0.142 C 
HETATM   26  C24 STQ J9621     -46.849 148.719  14.749  1.00 21.56     0.007 C 
HETATM   27  C25 STQ J9621     -46.097 147.667  14.342  1.00 22.48    -0.077 C 
HETATM   28  C26 STQ J9621     -46.642 146.425  13.641  1.00 21.56     0.044 C 
HETATM   29  C27 STQ J9621     -45.711 145.946  12.548  1.00 20.56    -0.016 C 
HETATM   30  C28 STQ J9621     -45.186 144.694  12.468  1.00 20.46     0.003 C 
HETATM   31  C29 STQ J9621     -44.458 144.119  11.318  1.00 19.55    -0.062 C 
HETATM   32  C30 STQ J9621     -43.962 142.866  11.430  1.00 17.66     0.007 C 
HETATM   33  C31 STQ J9621     -43.221 142.145  10.425  1.00 19.12     0.001 C 
HETATM   34  C32 STQ J9621     -42.617 140.960  10.679  1.00 19.40     0.007 C 
HETATM   35  C33 STQ J9621     -41.800 140.116   9.788  1.00 19.31    -0.062 C 
HETATM   36  C34 STQ J9621     -41.221 139.018  10.319  1.00 17.72     0.007 C 
HETATM   37  C35 STQ J9621     -40.349 138.093   9.650  1.00 19.92     0.001 C 
HETATM   38  C36 STQ J9621     -48.224 147.224  11.771  1.00 21.96     0.016 C 
HETATM   39  C37 STQ J9621     -48.797 145.201  13.115  1.00 20.23     0.016 C 
HETATM   40  C38 STQ J9621     -44.645 147.797  14.649  1.00 21.00     0.044 C 
HETATM   41  C39 STQ J9621     -44.252 144.996  10.111  1.00 18.53     0.048 C 
HETATM   42  C40 STQ J9621     -41.610 140.571   8.366  1.00 15.86     0.048 C 
HETATM   43  O23 STQ J9621     -49.021 149.294  15.678  1.00 24.65    -0.392 OA
ATOM     44  H23 STQ J9621     -48.631 150.124  15.925  1.00  0.00     0.210 HD
ENDROOT
TORSDOF 12
BEGIN_RES PHE A  61
REMARK  2 active torsions:
REMARK  status: ('A' for Active; 'I' for Inactive)
REMARK    1  A    between atoms: CA   and  CB  
REMARK    2  A    between atoms: CB   and  CG  
ROOT
ATOM      1  CA  PHE A  61     -36.237 128.293  12.768  1.00 39.40     0.164 C 
ENDROOT
BRANCH   1   2
ATOM      2  CB  PHE A  61     -36.813 128.951  11.509  1.00 39.41     0.058 C 
BRANCH   2   3
ATOM      3  CG  PHE A  61     -37.038 128.002  10.356  1.00 39.01    -0.020 A 
ATOM      4  CD2 PHE A  61     -36.272 126.855  10.219  1.00 40.32    -0.004 A 
ATOM      5  CE2 PHE A  61     -36.477 125.985   9.156  1.00 40.20    -0.000 A 
ATOM      6  CZ  PHE A  61     -37.452 126.249   8.221  1.00 40.34    -0.000 A 
ATOM      7  CE1 PHE A  61     -38.223 127.383   8.345  1.00 41.51    -0.000 A 
ATOM      8  CD1 PHE A  61     -38.014 128.257   9.404  1.00 39.94    -0.004 A 
ENDBRANCH   2   3
ENDBRANCH   1   2
END_RES PHE A  61
BEGIN_RES VAL A 134
REMARK  1 active torsions:
REMARK  status: ('A' for Active; 'I' for Inactive)
REMARK    3  A    between atoms: CA   and  CB  
ROOT
ATOM      9  CA  VAL A 134     -29.766 132.051   9.815  1.00 40.75     0.159 C 
ENDROOT
BRANCH   9  10
ATOM     10  CB  VAL A 134     -30.864 132.765   9.009  1.00 40.76     0.029 C 
ATOM     11  CG1 VAL A 134     -30.916 132.235   7.583  1.00 41.76     0.002 C 
ATOM     12  CG2 VAL A 134     -32.223 132.642   9.681  1.00 40.56     0.002 C 
ENDBRANCH   9  10
END_RES VAL A 134
BEGIN_RES TYR A 338
REMARK  3 active torsions:
REMARK  status: ('A' for Active; 'I' for Inactive)
REMARK    4  A    between atoms: CA   and  CB  
REMARK    5  A    between atoms: CB   and  CG  
REMARK    6  A    between atoms: CZ   and  OH  
ROOT
ATOM     13  CA  TYR A 338     -41.631 124.950   6.058  1.00 38.23     0.164 C 
ENDROOT
BRANCH  13  14
ATOM     14  CB  TYR A 338     -41.621 126.456   6.339  1.00 39.15     0.058 C 
BRANCH  14  15
ATOM     15  CG  TYR A 338     -40.441 127.219   5.783  1.00 39.03    -0.020 A 
ATOM     16  CD2 TYR A 338     -40.266 128.558   6.088  1.00 40.65    -0.002 A 
ATOM     17  CE2 TYR A 338     -39.204 129.293   5.583  1.00 40.91     0.024 A 
ATOM     18  CZ  TYR A 338     -38.286 128.686   4.747  1.00 42.33     0.089 A 
ATOM     19  CE1 TYR A 338     -38.437 127.348   4.431  1.00 40.63     0.024 A 
ATOM     20  CD1 TYR A 338     -39.513 126.634   4.936  1.00 39.27    -0.002 A 
BRANCH  18  21
ATOM     21  OH  TYR A 338     -37.233 129.400   4.247  1.00 43.36    -0.359 OA
ATOM     22  HH  TYR A 338     -37.286 130.346   4.171  1.00  0.00     0.217 HD
ENDBRANCH  18  21
ENDBRANCH  14  15
ENDBRANCH  13  14
END_RES TYR A 338
ENDMDL
MODEL 3
REMARK VINA RESULT:    -7.669      1.298     17.294
REMARK INTER + INTRA:          -8.163
REMARK INTER:                  -7.693
REMARK INTRA:                  -0.470
REMARK UNBOUND:                -0.494
REMARK  0 active torsions:
REMARK  status: ('A' for Active; 'I' for Inactive)
REMARK       I    between atoms: C3_3  and  O3_21 
REMARK       I    between atoms: C6_6  and  C7_7 
REMARK       I    between atoms: C8_8  and  C9_9 
REMARK       I    between atoms: C10_10  and  C11_11 
REMARK       I    between atoms: C12_12  and  C13_13 
REMARK       I    between atoms: C14_14  and  C15_15 
REMARK       I    between atoms: C23_25  and  O23_43 
REMARK       I    between atoms: C26_28  and  C27_29 
REMARK       I    between atoms: C28_30  and  C29_31 
REMARK       I    between atoms: C30_32  and  C31_33 
REMARK       I    between atoms: C32_34  and  C33_35 
REMARK       I    between atoms: C34_36  and  C35_37 
ROOT
HETATM    1  C1  STQ J9621     -49.761 146.625  12.198  1.00 21.11    -0.018 C 
HETATM    2  C2  STQ J9621     -50.661 146.944  13.405  1.00 20.11     0.045 C 
HETATM    3  C3  STQ J9621     -50.243 148.022  14.404  1.00 19.41     0.123 C 
HETATM    4  C4  STQ J9621     -48.861 148.652  14.176  1.00 18.39     0.066 C 
HETATM    5  C5  STQ J9621     -47.914 148.128  13.150  1.00 18.34    -0.074 C 
HETATM    6  C6  STQ J9621     -48.295 147.201  12.207  1.00 19.81    -0.048 C 
HETATM    7  C7  STQ J9621     -47.427 146.673  11.130  1.00 19.02     0.009 C 
HETATM    8  C8  STQ J9621     -46.519 145.691  11.282  1.00 17.97     0.007 C 
HETATM    9  C9  STQ J9621     -45.631 145.120  10.264  1.00 18.85    -0.062 C 
HETATM   10  C10 STQ J9621     -44.886 144.047  10.618  1.00 18.38     0.007 C 
HETATM   11  C11 STQ J9621     -44.013 143.268   9.771  1.00 18.57     0.001 C 
HETATM   12  C12 STQ J9621     -43.381 142.161  10.219  1.00 17.11     0.007 C 
HETATM   13  C13 STQ J9621     -42.536 141.235   9.450  1.00 20.42    -0.062 C 
HETATM   14  C14 STQ J9621     -42.027 140.159  10.092  1.00 20.50     0.007 C 
HETATM   15  C15 STQ J9621     -41.219 139.111   9.514  1.00 20.22     0.001 C 
HETATM   16  C16 STQ J9621     -50.560 147.175  10.990  1.00 19.56     0.020 C 
HETATM   17  C17 STQ J9621     -49.741 145.086  12.094  1.00 18.49     0.020 C 
HETATM   18  C18 STQ J9621     -46.616 148.833  13.295  1.00 16.89     0.044 C 
HETATM   19  C19 STQ J9621     -45.670 145.720   8.887  1.00 14.61     0.048 C 
HETATM   20  C20 STQ J9621     -42.319 141.523   7.982  1.00 17.59     0.048 C 
HETATM   21  O3  STQ J9621     -51.235 149.030  14.479  1.00 18.27    -0.395 OA
ATOM     22  H3  STQ J9621     -50.975 149.700  15.100  1.00  0.00     0.210 HD
HETATM   23  C21 STQ J9621     -34.213 128.475   7.040  1.00 22.52    -0.035 C 
HETATM   24  C22 STQ J9621     -33.369 127.537   6.154  1.00 21.99     0.045 C 
HETATM   25  C23 STQ J9621     -31.856 127.689   6.321  1.00 21.90     0.142 C 
HETATM   26  C24 STQ J9621     -31.390 129.134   6.530  1.00 21.56     0.007 C 
HETATM   27  C25 STQ J9621     -32.249 130.138   6.836  1.00 22.48    -0.077 C 
HETATM   28  C26 STQ J9621     -33.758 129.974   6.998  1.00 21.56     0.044 C 
HETATM   29  C27 STQ J9621     -34.291 130.813   8.141  1.00 20.56    -0.016 C 
HETATM   30  C28 STQ J9621     -35.281 131.738   8.028  1.00 20.46     0.003 C 
HETATM   31  C29 STQ J9621     -35.980 132.417   9.140  1.00 19.55    -0.062 C 
HETATM   32  C30 STQ J9621     -36.912 133.349   8.841  1.00 17.66     0.007 C 
HETATM   33  C31 STQ J9621     -37.687 134.119   9.783  1.00 19.12     0.001 C 
HETATM   34  C32 STQ J9621     -38.478 135.149   9.404  1.00 19.40     0.007 C 
HETATM   35  C33 STQ J9621     -39.301 136.052  10.229  1.00 19.31    -0.062 C 
HETATM   36  C34 STQ J9621     -39.926 137.076   9.609  1.00 17.72     0.007 C 
HETATM   37  C35 STQ J9621     -40.727 138.097  10.225  1.00 19.92     0.001 C 
HETATM   38  C36 STQ J9621     -34.157 127.913   8.492  1.00 21.96     0.016 C 
HETATM   39  C37 STQ J9621     -35.661 128.363   6.553  1.00 20.23     0.016 C 
HETATM   40  C38 STQ J9621     -31.602 131.470   6.996  1.00 21.00     0.044 C 
HETATM   41  C39 STQ J9621     -35.556 132.076  10.544  1.00 18.53     0.048 C 
HETATM   42  C40 STQ J9621     -39.333 135.814  11.715  1.00 15.86     0.048 C 
HETATM   43  O23 STQ J9621     -31.191 127.097   5.217  1.00 24.65    -0.392 OA
ATOM     44  H23 STQ J9621     -30.252 127.192   5.320  1.00  0.00     0.210 HD
ENDROOT
TORSDOF 12
BEGIN_RES PHE A  61
REMARK  2 active torsions:
REMARK  status: ('A' for Active; 'I' for Inactive)
REMARK    1  A    between atoms: CA   and  CB  
REMARK    2  A    between atoms: CB   and  CG  
ROOT
ATOM      1  CA  PHE A  61     -36.237 128.293  12.768  1.00 39.40     0.164 C 
ENDROOT
BRANCH   1   2
ATOM      2  CB  PHE A  61     -36.813 128.951  11.509  1.00 39.41     0.058 C 
BRANCH   2   3
ATOM      3  CG  PHE A  61     -37.024 128.005  10.351  1.00 39.01    -0.020 A 
ATOM      4  CD2 PHE A  61     -36.274 126.845  10.234  1.00 40.32    -0.004 A 
ATOM      5  CE2 PHE A  61     -36.467 125.977   9.166  1.00 40.20    -0.000 A 
ATOM      6  CZ  PHE A  61     -37.414 126.256   8.208  1.00 40.34    -0.000 A 
ATOM      7  CE1 PHE A  61     -38.169 127.403   8.311  1.00 41.51    -0.000 A 
ATOM      8  CD1 PHE A  61     -37.972 128.275   9.375  1.00 39.94    -0.004 A 
ENDBRANCH   2   3
ENDBRANCH   1   2
END_RES PHE A  61
BEGIN_RES VAL A 134
REMARK  1 active torsions:
REMARK  status: ('A' for Active; 'I' for Inactive)
REMARK    3  A    between atoms: CA   and  CB  
ROOT
ATOM      9  CA  VAL A 134     -29.766 132.051   9.815  1.00 40.75     0.159 C 
ENDROOT
BRANCH   9  10
ATOM     10  CB  VAL A 134     -30.864 132.765   9.009  1.00 40.76     0.029 C 
ATOM     11  CG1 VAL A 134     -32.118 132.946   9.851  1.00 41.76     0.002 C 
ATOM     12  CG2 VAL A 134     -30.382 134.101   8.465  1.00 40.56     0.002 C 
ENDBRANCH   9  10
END_RES VAL A 134
BEGIN_RES TYR A 338
REMARK  3 active torsions:
REMARK  status: ('A' for Active; 'I' for Inactive)
REMARK    4  A    between atoms: CA   and  CB  
REMARK    5  A    between atoms: CB   and  CG  
REMARK    6  A    between atoms: CZ   and  OH  
ROOT
ATOM     13  CA  TYR A 338     -41.631 124.950   6.058  1.00 38.23     0.164 C 
ENDROOT
BRANCH  13  14
ATOM     14  CB  TYR A 338     -41.621 126.456   6.339  1.00 39.15     0.058 C 
BRANCH  14  15
ATOM     15  CG  TYR A 338     -40.417 127.211   5.825  1.00 39.03    -0.020 A 
ATOM     16  CD2 TYR A 338     -40.255 128.555   6.117  1.00 40.65    -0.002 A 
ATOM     17  CE2 TYR A 338     -39.172 129.282   5.650  1.00 40.91     0.024 A 
ATOM     18  CZ  TYR A 338     -38.216 128.663   4.867  1.00 42.33     0.089 A 
ATOM     19  CE1 TYR A 338     -38.352 127.320   4.566  1.00 40.63     0.024 A 
ATOM     20  CD1 TYR A 338     -39.450 126.613   5.032  1.00 39.27    -0.002 A 
BRANCH  18  21
ATOM     21  OH  TYR A 338     -37.141 129.369   4.405  1.00 43.36    -0.359 OA
ATOM     22  HH  TYR A 338     -36.329 128.924   4.192  1.00  0.00     0.217 HD
ENDBRANCH  18  21
ENDBRANCH  14  15
ENDBRANCH  13  14
END_RES TYR A 338
ENDMDL
