MODEL 1
REMARK VINA RESULT:    -9.796      0.000      0.000
REMARK INTER + INTRA:         -12.157
REMARK INTER:                  -9.796
REMARK INTRA:                  -2.362
REMARK UNBOUND:                -2.362
REMARK  0 active torsions:
REMARK  status: ('A' for Active; 'I' for Inactive)
REMARK       I    between atoms: C3_3  and  O3_21 
REMARK       I    between atoms: C6_6  and  C7_7 
REMARK       I    between atoms: C8_8  and  C9_9 
REMARK       I    between atoms: C10_10  and  C11_11 
REMARK       I    between atoms: C12_12  and  C13_13 
REMARK       I    between atoms: C14_14  and  C15_15 
REMARK       I    between atoms: C23_25  and  O23_43 
REMARK       I    between atoms: C26_28  and  C27_29 
REMARK       I    between atoms: C28_30  and  C29_31 
REMARK       I    between atoms: C30_32  and  C31_33 
REMARK       I    between atoms: C32_34  and  C33_35 
REMARK       I    between atoms: C34_36  and  C35_37 
ROOT
HETATM    1  C1  STQ 1 320     -34.306 126.868   6.554  1.00 79.00    -0.018 C 
HETATM    2  C2  STQ 1 320     -34.073 126.321   5.145  1.00 79.55     0.045 C 
HETATM    3  C3  STQ 1 320     -33.130 127.110   4.246  1.00 80.08     0.123 C 
HETATM    4  C4  STQ 1 320     -31.980 127.715   5.037  1.00 79.64     0.066 C 
HETATM    5  C5  STQ 1 320     -32.514 128.553   6.169  1.00 79.19    -0.074 C 
HETATM    6  C6  STQ 1 320     -33.621 128.189   6.819  1.00 79.31    -0.048 C 
HETATM    7  C7  STQ 1 320     -34.230 129.099   7.813  1.00 78.64     0.009 C 
HETATM    8  C8  STQ 1 320     -35.165 129.965   7.431  1.00 77.62     0.007 C 
HETATM    9  C9  STQ 1 320     -35.813 130.888   8.382  1.00 76.30    -0.062 C 
HETATM   10  C10 STQ 1 320     -36.663 131.802   7.896  1.00 74.97     0.007 C 
HETATM   11  C11 STQ 1 320     -37.361 132.757   8.748  1.00 73.76     0.001 C 
HETATM   12  C12 STQ 1 320     -38.290 133.518   8.179  1.00 72.98     0.007 C 
HETATM   13  C13 STQ 1 320     -39.057 134.509   8.955  1.00 72.79    -0.062 C 
HETATM   14  C14 STQ 1 320     -39.985 135.253   8.333  1.00 72.37     0.007 C 
HETATM   15  C15 STQ 1 320     -40.768 136.243   9.065  1.00 71.72     0.001 C 
HETATM   16  C16 STQ 1 320     -33.801 125.850   7.571  1.00 78.31     0.020 C 
HETATM   17  C17 STQ 1 320     -35.804 127.079   6.739  1.00 77.27     0.020 C 
HETATM   18  C18 STQ 1 320     -31.934 129.925   6.349  1.00 78.52     0.044 C 
HETATM   19  C19 STQ 1 320     -35.532 130.799   9.854  1.00 75.52     0.048 C 
HETATM   20  C20 STQ 1 320     -38.801 134.667  10.425  1.00 72.36     0.048 C 
HETATM   21  O3  STQ 1 320     -32.590 126.216   3.264  1.00 80.30    -0.395 OA
ATOM     22  H3  STQ 1 320     -33.309 125.838   2.770  1.00  0.00     0.210 HD
HETATM   23  C21 STQ 1 320     -49.980 143.988  13.279  1.00 90.94    -0.035 C 
HETATM   24  C22 STQ 1 320     -50.319 144.961  14.402  1.00 90.49     0.045 C 
HETATM   25  C23 STQ 1 320     -50.210 146.421  13.979  1.00 90.33     0.142 C 
HETATM   26  C24 STQ 1 320     -48.951 146.670  13.185  1.00 90.54     0.007 C 
HETATM   27  C25 STQ 1 320     -48.366 145.721  12.443  1.00 89.72    -0.077 C 
HETATM   28  C26 STQ 1 320     -48.587 144.259  12.718  1.00 89.61     0.044 C 
HETATM   29  C27 STQ 1 320     -48.365 143.452  11.456  1.00 88.07    -0.016 C 
HETATM   30  C28 STQ 1 320     -47.311 142.642  11.426  1.00 86.99     0.003 C 
HETATM   31  C29 STQ 1 320     -46.959 141.791  10.273  1.00 84.95    -0.062 C 
HETATM   32  C30 STQ 1 320     -45.777 141.161  10.321  1.00 81.64     0.007 C 
HETATM   33  C31 STQ 1 320     -45.264 140.276   9.280  1.00 78.38     0.001 C 
HETATM   34  C32 STQ 1 320     -44.177 139.585   9.613  1.00 76.42     0.007 C 
HETATM   35  C33 STQ 1 320     -43.496 138.631   8.720  1.00 74.01    -0.062 C 
HETATM   36  C34 STQ 1 320     -42.494 137.902   9.235  1.00 73.35     0.007 C 
HETATM   37  C35 STQ 1 320     -41.741 136.921   8.459  1.00 72.23     0.001 C 
HETATM   38  C36 STQ 1 320     -51.028 144.077  12.177  1.00 91.00     0.016 C 
HETATM   39  C37 STQ 1 320     -50.001 142.572  13.845  1.00 91.82     0.016 C 
HETATM   40  C38 STQ 1 320     -47.467 146.135  11.317  1.00 88.96     0.044 C 
HETATM   41  C39 STQ 1 320     -47.888 141.635   9.105  1.00 85.50     0.048 C 
HETATM   42  C40 STQ 1 320     -43.914 138.486   7.288  1.00 73.58     0.048 C 
HETATM   43  O23 STQ 1 320     -50.172 147.246  15.148  1.00 91.01    -0.392 OA
ATOM     44  H23 STQ 1 320     -50.104 148.156  14.885  1.00  0.00     0.210 HD
ENDROOT
TORSDOF 12
BEGIN_RES PHE A  61
REMARK  2 active torsions:
REMARK  status: ('A' for Active; 'I' for Inactive)
REMARK    1  A    between atoms: CA   and  CB  
REMARK    2  A    between atoms: CB   and  CG  
ROOT
ATOM      1  CA  PHE A  61     -36.237 128.293  12.768  1.00 39.40     0.164 C 
ENDROOT
BRANCH   1   2
ATOM      2  CB  PHE A  61     -36.813 128.951  11.509  1.00 39.41     0.058 C 
BRANCH   2   3
ATOM      3  CG  PHE A  61     -37.092 127.993  10.376  1.00 39.01    -0.020 A 
ATOM      4  CD2 PHE A  61     -36.364 126.821  10.239  1.00 40.32    -0.004 A 
ATOM      5  CE2 PHE A  61     -36.620 125.942   9.195  1.00 40.20    -0.000 A 
ATOM      6  CZ  PHE A  61     -37.608 126.222   8.278  1.00 40.34    -0.000 A 
ATOM      7  CE1 PHE A  61     -38.341 127.381   8.401  1.00 41.51    -0.000 A 
ATOM      8  CD1 PHE A  61     -38.082 128.263   9.442  1.00 39.94    -0.004 A 
ENDBRANCH   2   3
ENDBRANCH   1   2
END_RES PHE A  61
BEGIN_RES VAL A 134
REMARK  1 active torsions:
REMARK  status: ('A' for Active; 'I' for Inactive)
REMARK    3  A    between atoms: CA   and  CB  
ROOT
ATOM      9  CA  VAL A 134     -29.766 132.051   9.815  1.00 40.75     0.159 C 
ENDROOT
BRANCH   9  10
ATOM     10  CB  VAL A 134     -30.864 132.765   9.009  1.00 40.76     0.029 C 
ATOM     11  CG1 VAL A 134     -30.851 132.307   7.558  1.00 41.76     0.002 C 
ATOM     12  CG2 VAL A 134     -32.238 132.559   9.628  1.00 40.56     0.002 C 
ENDBRANCH   9  10
END_RES VAL A 134
BEGIN_RES TYR A 338
REMARK  3 active torsions:
REMARK  status: ('A' for Active; 'I' for Inactive)
REMARK    4  A    between atoms: CA   and  CB  
REMARK    5  A    between atoms: CB   and  CG  
REMARK    6  A    between atoms: CZ   and  OH  
ROOT
ATOM     13  CA  TYR A 338     -41.631 124.950   6.058  1.00 38.23     0.164 C 
ENDROOT
BRANCH  13  14
ATOM     14  CB  TYR A 338     -41.621 126.456   6.339  1.00 39.15     0.058 C 
BRANCH  14  15
ATOM     15  CG  TYR A 338     -40.403 127.207   5.850  1.00 39.03    -0.020 A 
ATOM     16  CD2 TYR A 338     -40.225 128.540   6.176  1.00 40.65    -0.002 A 
ATOM     17  CE2 TYR A 338     -39.129 129.263   5.732  1.00 40.91     0.024 A 
ATOM     18  CZ  TYR A 338     -38.177 128.650   4.939  1.00 42.33     0.089 A 
ATOM     19  CE1 TYR A 338     -38.331 127.316   4.604  1.00 40.63     0.024 A 
ATOM     20  CD1 TYR A 338     -39.441 126.614   5.047  1.00 39.27    -0.002 A 
BRANCH  18  21
ATOM     21  OH  TYR A 338     -37.090 129.352   4.500  1.00 43.36    -0.359 OA
ATOM     22  HH  TYR A 338     -36.977 129.533   3.574  1.00  0.00     0.217 HD
ENDBRANCH  18  21
ENDBRANCH  14  15
ENDBRANCH  13  14
END_RES TYR A 338
ENDMDL
MODEL 2
REMARK VINA RESULT:    -7.244      1.802     16.952
REMARK INTER + INTRA:          -9.605
REMARK INTER:                  -9.196
REMARK INTRA:                  -0.410
REMARK UNBOUND:                -2.362
REMARK  0 active torsions:
REMARK  status: ('A' for Active; 'I' for Inactive)
REMARK       I    between atoms: C3_3  and  O3_21 
REMARK       I    between atoms: C6_6  and  C7_7 
REMARK       I    between atoms: C8_8  and  C9_9 
REMARK       I    between atoms: C10_10  and  C11_11 
REMARK       I    between atoms: C12_12  and  C13_13 
REMARK       I    between atoms: C14_14  and  C15_15 
REMARK       I    between atoms: C23_25  and  O23_43 
REMARK       I    between atoms: C26_28  and  C27_29 
REMARK       I    between atoms: C28_30  and  C29_31 
REMARK       I    between atoms: C30_32  and  C31_33 
REMARK       I    between atoms: C32_34  and  C33_35 
REMARK       I    between atoms: C34_36  and  C35_37 
ROOT
HETATM    1  C1  STQ 1 320     -50.064 146.235  10.123  1.00 79.00    -0.018 C 
HETATM    2  C2  STQ 1 320     -50.592 146.781  11.450  1.00 79.55     0.045 C 
HETATM    3  C3  STQ 1 320     -49.735 147.822  12.158  1.00 80.08     0.123 C 
HETATM    4  C4  STQ 1 320     -49.046 148.747  11.165  1.00 79.64     0.066 C 
HETATM    5  C5  STQ 1 320     -48.251 147.941  10.172  1.00 79.19    -0.074 C 
HETATM    6  C6  STQ 1 320     -48.695 146.757   9.747  1.00 79.31    -0.048 C 
HETATM    7  C7  STQ 1 320     -47.834 145.899   8.905  1.00 78.64     0.009 C 
HETATM    8  C8  STQ 1 320     -47.040 144.997   9.477  1.00 77.62     0.007 C 
HETATM    9  C9  STQ 1 320     -46.167 144.109   8.685  1.00 76.30    -0.062 C 
HETATM   10  C10 STQ 1 320     -45.319 143.307   9.342  1.00 74.97     0.007 C 
HETATM   11  C11 STQ 1 320     -44.419 142.386   8.657  1.00 73.76     0.001 C 
HETATM   12  C12 STQ 1 320     -43.728 141.535   9.409  1.00 72.98     0.007 C 
HETATM   13  C13 STQ 1 320     -42.798 140.560   8.814  1.00 72.79    -0.062 C 
HETATM   14  C14 STQ 1 320     -42.124 139.721   9.617  1.00 72.37     0.007 C 
HETATM   15  C15 STQ 1 320     -41.195 138.739   9.067  1.00 71.72     0.001 C 
HETATM   16  C16 STQ 1 320     -51.042 146.602   9.011  1.00 78.31     0.020 C 
HETATM   17  C17 STQ 1 320     -49.965 144.719  10.239  1.00 77.27     0.020 C 
HETATM   18  C18 STQ 1 320     -46.839 148.371   9.901  1.00 78.52     0.044 C 
HETATM   19  C19 STQ 1 320     -46.236 144.099   7.186  1.00 75.52     0.048 C 
HETATM   20  C20 STQ 1 320     -42.621 140.509   7.325  1.00 72.36     0.048 C 
HETATM   21  O3  STQ 1 320     -50.586 148.609  13.001  1.00 80.30    -0.395 OA
ATOM     22  H3  STQ 1 320     -51.016 148.031  13.621  1.00  0.00     0.210 HD
HETATM   23  C21 STQ 1 320     -34.157 128.338   6.860  1.00 90.94    -0.035 C 
HETATM   24  C22 STQ 1 320     -33.212 127.714   5.840  1.00 90.49     0.045 C 
HETATM   25  C23 STQ 1 320     -31.748 127.797   6.254  1.00 90.33     0.142 C 
HETATM   26  C24 STQ 1 320     -31.405 129.167   6.789  1.00 90.54     0.007 C 
HETATM   27  C25 STQ 1 320     -32.308 129.954   7.387  1.00 89.72    -0.077 C 
HETATM   28  C26 STQ 1 320     -33.782 129.791   7.140  1.00 89.61     0.044 C 
HETATM   29  C27 STQ 1 320     -34.571 130.315   8.322  1.00 88.07    -0.016 C 
HETATM   30  C28 STQ 1 320     -35.300 131.410   8.132  1.00 86.99     0.003 C 
HETATM   31  C29 STQ 1 320     -36.123 132.044   9.181  1.00 84.95    -0.062 C 
HETATM   32  C30 STQ 1 320     -36.663 133.236   8.892  1.00 81.64     0.007 C 
HETATM   33  C31 STQ 1 320     -37.508 134.008   9.799  1.00 78.38     0.001 C 
HETATM   34  C32 STQ 1 320     -38.116 135.055   9.249  1.00 76.42     0.007 C 
HETATM   35  C33 STQ 1 320     -39.016 135.966   9.976  1.00 74.01    -0.062 C 
HETATM   36  C34 STQ 1 320     -39.669 136.897   9.264  1.00 73.35     0.007 C 
HETATM   37  C35 STQ 1 320     -40.591 137.858   9.862  1.00 72.23     0.001 C 
HETATM   38  C36 STQ 1 320     -34.146 127.524   8.148  1.00 91.00     0.016 C 
HETATM   39  C37 STQ 1 320     -35.571 128.309   6.289  1.00 91.82     0.016 C 
HETATM   40  C38 STQ 1 320     -31.828 131.025   8.320  1.00 88.96     0.044 C 
HETATM   41  C39 STQ 1 320     -36.347 131.377  10.506  1.00 85.50     0.048 C 
HETATM   42  C40 STQ 1 320     -39.192 135.851  11.461  1.00 73.58     0.048 C 
HETATM   43  O23 STQ 1 320     -30.923 127.544   5.112  1.00 91.01    -0.392 OA
ATOM     44  H23 STQ 1 320     -30.010 127.596   5.370  1.00  0.00     0.210 HD
ENDROOT
TORSDOF 12
BEGIN_RES PHE A  61
REMARK  2 active torsions:
REMARK  status: ('A' for Active; 'I' for Inactive)
REMARK    1  A    between atoms: CA   and  CB  
REMARK    2  A    between atoms: CB   and  CG  
ROOT
ATOM      1  CA  PHE A  61     -36.237 128.293  12.768  1.00 39.40     0.164 C 
ENDROOT
BRANCH   1   2
ATOM      2  CB  PHE A  61     -36.813 128.951  11.509  1.00 39.41     0.058 C 
BRANCH   2   3
ATOM      3  CG  PHE A  61     -37.009 128.008  10.346  1.00 39.01    -0.020 A 
ATOM      4  CD2 PHE A  61     -36.272 126.839  10.246  1.00 40.32    -0.004 A 
ATOM      5  CE2 PHE A  61     -36.451 125.974   9.174  1.00 40.20    -0.000 A 
ATOM      6  CZ  PHE A  61     -37.372 126.265   8.193  1.00 40.34    -0.000 A 
ATOM      7  CE1 PHE A  61     -38.114 127.422   8.280  1.00 41.51    -0.000 A 
ATOM      8  CD1 PHE A  61     -37.931 128.291   9.348  1.00 39.94    -0.004 A 
ENDBRANCH   2   3
ENDBRANCH   1   2
END_RES PHE A  61
BEGIN_RES VAL A 134
REMARK  1 active torsions:
REMARK  status: ('A' for Active; 'I' for Inactive)
REMARK    3  A    between atoms: CA   and  CB  
ROOT
ATOM      9  CA  VAL A 134     -29.766 132.051   9.815  1.00 40.75     0.159 C 
ENDROOT
BRANCH   9  10
ATOM     10  CB  VAL A 134     -30.864 132.765   9.009  1.00 40.76     0.029 C 
ATOM     11  CG1 VAL A 134     -32.100 132.993   9.867  1.00 41.76     0.002 C 
ATOM     12  CG2 VAL A 134     -30.366 134.076   8.421  1.00 40.56     0.002 C 
ENDBRANCH   9  10
END_RES VAL A 134
BEGIN_RES TYR A 338
REMARK  3 active torsions:
REMARK  status: ('A' for Active; 'I' for Inactive)
REMARK    4  A    between atoms: CA   and  CB  
REMARK    5  A    between atoms: CB   and  CG  
REMARK    6  A    between atoms: CZ   and  OH  
ROOT
ATOM     13  CA  TYR A 338     -41.631 124.950   6.058  1.00 38.23     0.164 C 
ENDROOT
BRANCH  13  14
ATOM     14  CB  TYR A 338     -41.621 126.456   6.339  1.00 39.15     0.058 C 
BRANCH  14  15
ATOM     15  CG  TYR A 338     -40.424 127.214   5.812  1.00 39.03    -0.020 A 
ATOM     16  CD2 TYR A 338     -40.259 128.556   6.108  1.00 40.65    -0.002 A 
ATOM     17  CE2 TYR A 338     -39.182 129.286   5.629  1.00 40.91     0.024 A 
ATOM     18  CZ  TYR A 338     -38.237 128.670   4.830  1.00 42.33     0.089 A 
ATOM     19  CE1 TYR A 338     -38.377 127.328   4.525  1.00 40.63     0.024 A 
ATOM     20  CD1 TYR A 338     -39.469 126.619   5.003  1.00 39.27    -0.002 A 
BRANCH  18  21
ATOM     21  OH  TYR A 338     -37.168 129.379   4.356  1.00 43.36    -0.359 OA
ATOM     22  HH  TYR A 338     -37.127 129.630   3.441  1.00  0.00     0.217 HD
ENDBRANCH  18  21
ENDBRANCH  14  15
ENDBRANCH  13  14
END_RES TYR A 338
ENDMDL
