MODEL 1
REMARK VINA RESULT:    -7.279      0.000      0.000
REMARK INTER + INTRA:         -10.346
REMARK INTER:                  -7.279
REMARK INTRA:                  -3.067
REMARK UNBOUND:                -3.067
REMARK  0 active torsions:
REMARK  status: ('A' for Active; 'I' for Inactive)
REMARK       I    between atoms: C3_3  and  O3_21 
REMARK       I    between atoms: C6_6  and  C7_7 
REMARK       I    between atoms: C8_8  and  C9_9 
REMARK       I    between atoms: C10_10  and  C11_11 
REMARK       I    between atoms: C12_12  and  C13_13 
REMARK       I    between atoms: C14_14  and  C15_15 
REMARK       I    between atoms: C23_25  and  O23_43 
REMARK       I    between atoms: C26_28  and  C27_29 
REMARK       I    between atoms: C28_30  and  C29_31 
REMARK       I    between atoms: C30_32  and  C31_33 
REMARK       I    between atoms: C32_34  and  C33_35 
REMARK       I    between atoms: C34_36  and  C35_37 
ROOT
HETATM    1  C1  STQ E4620     -34.526 126.899   6.075  1.00 19.12    -0.018 C 
HETATM    2  C2  STQ E4620     -33.925 126.096   4.902  1.00 18.29     0.045 C 
HETATM    3  C3  STQ E4620     -32.895 126.802   4.019  1.00 18.54     0.123 C 
HETATM    4  C4  STQ E4620     -31.942 127.702   4.805  1.00 18.55     0.066 C 
HETATM    5  C5  STQ E4620     -32.500 128.484   5.949  1.00 18.97    -0.074 C 
HETATM    6  C6  STQ E4620     -33.697 128.134   6.558  1.00 18.68    -0.048 C 
HETATM    7  C7  STQ E4620     -34.245 128.884   7.697  1.00 18.46     0.009 C 
HETATM    8  C8  STQ E4620     -34.880 130.062   7.681  1.00 18.89     0.007 C 
HETATM    9  C9  STQ E4620     -35.306 130.865   8.829  1.00 19.10    -0.062 C 
HETATM   10  C10 STQ E4620     -36.030 131.977   8.578  1.00 18.99     0.007 C 
HETATM   11  C11 STQ E4620     -36.567 132.896   9.536  1.00 18.78     0.001 C 
HETATM   12  C12 STQ E4620     -37.421 133.831   9.115  1.00 19.28     0.007 C 
HETATM   13  C13 STQ E4620     -38.140 134.826   9.910  1.00 21.25    -0.062 C 
HETATM   14  C14 STQ E4620     -39.042 135.598   9.263  1.00 20.64     0.007 C 
HETATM   15  C15 STQ E4620     -39.924 136.573   9.833  1.00 21.49     0.001 C 
HETATM   16  C16 STQ E4620     -34.664 125.863   7.202  1.00 19.29     0.020 C 
HETATM   17  C17 STQ E4620     -35.947 127.337   5.675  1.00 16.00     0.020 C 
HETATM   18  C18 STQ E4620     -31.533 129.584   6.238  1.00 17.87     0.044 C 
HETATM   19  C19 STQ E4620     -34.958 130.368  10.207  1.00 17.60     0.048 C 
HETATM   20  C20 STQ E4620     -37.882 134.868  11.391  1.00 16.75     0.048 C 
HETATM   21  O3  STQ E4620     -32.156 125.851   3.264  1.00 19.42    -0.395 OA
ATOM     22  H3  STQ E4620     -31.516 126.289   2.715  1.00  0.00     0.210 HD
HETATM   23  C21 STQ E4620     -49.907 144.306  12.350  1.00 27.80    -0.035 C 
HETATM   24  C22 STQ E4620     -50.758 145.164  13.318  1.00 28.12     0.045 C 
HETATM   25  C23 STQ E4620     -50.573 146.678  13.166  1.00 29.31     0.142 C 
HETATM   26  C24 STQ E4620     -49.115 147.077  12.875  1.00 30.79     0.007 C 
HETATM   27  C25 STQ E4620     -48.157 146.198  12.482  1.00 30.18    -0.077 C 
HETATM   28  C26 STQ E4620     -48.390 144.701  12.291  1.00 27.90     0.044 C 
HETATM   29  C27 STQ E4620     -47.592 144.187  11.096  1.00 27.26    -0.016 C 
HETATM   30  C28 STQ E4620     -46.653 143.198  11.155  1.00 26.15     0.003 C 
HETATM   31  C29 STQ E4620     -46.004 142.498  10.023  1.00 25.99    -0.062 C 
HETATM   32  C30 STQ E4620     -45.092 141.543  10.299  1.00 24.86     0.007 C 
HETATM   33  C31 STQ E4620     -44.379 140.731   9.349  1.00 24.61     0.001 C 
HETATM   34  C32 STQ E4620     -43.448 139.844   9.757  1.00 23.19     0.007 C 
HETATM   35  C33 STQ E4620     -42.600 138.951   8.957  1.00 22.76    -0.062 C 
HETATM   36  C34 STQ E4620     -41.709 138.179   9.617  1.00 21.16     0.007 C 
HETATM   37  C35 STQ E4620     -40.780 137.241   9.059  1.00 21.72     0.001 C 
HETATM   38  C36 STQ E4620     -50.551 144.386  10.936  1.00 25.17     0.016 C 
HETATM   39  C37 STQ E4620     -50.036 142.859  12.826  1.00 27.28     0.016 C 
HETATM   40  C38 STQ E4620     -46.808 146.807  12.267  1.00 30.64     0.044 C 
HETATM   41  C39 STQ E4620     -46.387 142.897   8.625  1.00 26.11     0.048 C 
HETATM   42  C40 STQ E4620     -42.761 138.978   7.459  1.00 21.07     0.048 C 
HETATM   43  O23 STQ E4620     -51.060 147.352  14.318  1.00 27.58    -0.392 OA
ATOM     44  H23 STQ E4620     -50.945 148.290  14.223  1.00  0.00     0.210 HD
ENDROOT
TORSDOF 12
BEGIN_RES PHE A  61
REMARK  2 active torsions:
REMARK  status: ('A' for Active; 'I' for Inactive)
REMARK    1  A    between atoms: CA   and  CB  
REMARK    2  A    between atoms: CB   and  CG  
ROOT
ATOM      1  CA  PHE A  61     -36.237 128.293  12.768  1.00 39.40     0.164 C 
ENDROOT
BRANCH   1   2
ATOM      2  CB  PHE A  61     -36.813 128.951  11.509  1.00 39.41     0.058 C 
BRANCH   2   3
ATOM      3  CG  PHE A  61     -37.027 128.004  10.352  1.00 39.01    -0.020 A 
ATOM      4  CD2 PHE A  61     -36.278 126.844  10.234  1.00 40.32    -0.004 A 
ATOM      5  CE2 PHE A  61     -36.473 125.976   9.168  1.00 40.20    -0.000 A 
ATOM      6  CZ  PHE A  61     -37.422 126.255   8.210  1.00 40.34    -0.000 A 
ATOM      7  CE1 PHE A  61     -38.176 127.403   8.314  1.00 41.51    -0.000 A 
ATOM      8  CD1 PHE A  61     -37.976 128.274   9.377  1.00 39.94    -0.004 A 
ENDBRANCH   2   3
ENDBRANCH   1   2
END_RES PHE A  61
BEGIN_RES VAL A 134
REMARK  1 active torsions:
REMARK  status: ('A' for Active; 'I' for Inactive)
REMARK    3  A    between atoms: CA   and  CB  
ROOT
ATOM      9  CA  VAL A 134     -29.766 132.051   9.815  1.00 40.75     0.159 C 
ENDROOT
BRANCH   9  10
ATOM     10  CB  VAL A 134     -30.864 132.765   9.009  1.00 40.76     0.029 C 
ATOM     11  CG1 VAL A 134     -31.176 132.001   7.730  1.00 41.76     0.002 C 
ATOM     12  CG2 VAL A 134     -32.124 132.971   9.836  1.00 40.56     0.002 C 
ENDBRANCH   9  10
END_RES VAL A 134
BEGIN_RES TYR A 338
REMARK  3 active torsions:
REMARK  status: ('A' for Active; 'I' for Inactive)
REMARK    4  A    between atoms: CA   and  CB  
REMARK    5  A    between atoms: CB   and  CG  
REMARK    6  A    between atoms: CZ   and  OH  
ROOT
ATOM     13  CA  TYR A 338     -41.631 124.950   6.058  1.00 38.23     0.164 C 
ENDROOT
BRANCH  13  14
ATOM     14  CB  TYR A 338     -41.621 126.456   6.339  1.00 39.15     0.058 C 
BRANCH  14  15
ATOM     15  CG  TYR A 338     -40.428 127.215   5.804  1.00 39.03    -0.020 A 
ATOM     16  CD2 TYR A 338     -40.226 128.539   6.155  1.00 40.65    -0.002 A 
ATOM     17  CE2 TYR A 338     -39.152 129.270   5.671  1.00 40.91     0.024 A 
ATOM     18  CZ  TYR A 338     -38.249 128.675   4.811  1.00 42.33     0.089 A 
ATOM     19  CE1 TYR A 338     -38.427 127.352   4.450  1.00 40.63     0.024 A 
ATOM     20  CD1 TYR A 338     -39.515 126.641   4.934  1.00 39.27    -0.002 A 
BRANCH  18  21
ATOM     21  OH  TYR A 338     -37.184 129.385   4.332  1.00 43.36    -0.359 OA
ATOM     22  HH  TYR A 338     -37.138 130.326   4.455  1.00  0.00     0.217 HD
ENDBRANCH  18  21
ENDBRANCH  14  15
ENDBRANCH  13  14
END_RES TYR A 338
ENDMDL
MODEL 2
REMARK VINA RESULT:    -6.475      1.522      1.861
REMARK INTER + INTRA:          -9.542
REMARK INTER:                  -9.228
REMARK INTRA:                  -0.314
REMARK UNBOUND:                -3.067
REMARK  0 active torsions:
REMARK  status: ('A' for Active; 'I' for Inactive)
REMARK       I    between atoms: C3_3  and  O3_21 
REMARK       I    between atoms: C6_6  and  C7_7 
REMARK       I    between atoms: C8_8  and  C9_9 
REMARK       I    between atoms: C10_10  and  C11_11 
REMARK       I    between atoms: C12_12  and  C13_13 
REMARK       I    between atoms: C14_14  and  C15_15 
REMARK       I    between atoms: C23_25  and  O23_43 
REMARK       I    between atoms: C26_28  and  C27_29 
REMARK       I    between atoms: C28_30  and  C29_31 
REMARK       I    between atoms: C30_32  and  C31_33 
REMARK       I    between atoms: C32_34  and  C33_35 
REMARK       I    between atoms: C34_36  and  C35_37 
ROOT
HETATM    1  C1  STQ E4620     -34.204 128.178   6.728  1.00 19.12    -0.018 C 
HETATM    2  C2  STQ E4620     -33.249 127.482   5.738  1.00 18.29     0.045 C 
HETATM    3  C3  STQ E4620     -31.982 128.236   5.330  1.00 18.54     0.123 C 
HETATM    4  C4  STQ E4620     -31.344 129.011   6.482  1.00 18.55     0.066 C 
HETATM    5  C5  STQ E4620     -32.250 129.689   7.458  1.00 18.97    -0.074 C 
HETATM    6  C6  STQ E4620     -33.581 129.322   7.594  1.00 18.68    -0.048 C 
HETATM    7  C7  STQ E4620     -34.477 129.970   8.565  1.00 18.46     0.009 C 
HETATM    8  C8  STQ E4620     -35.068 131.166   8.472  1.00 18.89     0.007 C 
HETATM    9  C9  STQ E4620     -35.851 131.859   9.497  1.00 19.10    -0.062 C 
HETATM   10  C10 STQ E4620     -36.449 133.018   9.148  1.00 18.99     0.007 C 
HETATM   11  C11 STQ E4620     -37.273 133.851   9.971  1.00 18.78     0.001 C 
HETATM   12  C12 STQ E4620     -37.937 134.858   9.400  1.00 19.28     0.007 C 
HETATM   13  C13 STQ E4620     -38.878 135.790  10.020  1.00 21.25    -0.062 C 
HETATM   14  C14 STQ E4620     -39.513 136.660   9.202  1.00 20.64     0.007 C 
HETATM   15  C15 STQ E4620     -40.533 137.603   9.554  1.00 21.49     0.001 C 
HETATM   16  C16 STQ E4620     -34.710 127.036   7.623  1.00 19.29     0.020 C 
HETATM   17  C17 STQ E4620     -35.411 128.711   5.934  1.00 16.00     0.020 C 
HETATM   18  C18 STQ E4620     -31.433 130.714   8.171  1.00 17.87     0.044 C 
HETATM   19  C19 STQ E4620     -35.981 131.207  10.848  1.00 17.60     0.048 C 
HETATM   20  C20 STQ E4620     -39.127 135.666  11.497  1.00 16.75     0.048 C 
HETATM   21  O3  STQ E4620     -31.036 127.342   4.759  1.00 19.42    -0.395 OA
ATOM     22  H3  STQ E4620     -30.249 127.811   4.506  1.00  0.00     0.210 HD
HETATM   23  C21 STQ E4620     -50.775 145.406   9.484  1.00 27.80    -0.035 C 
HETATM   24  C22 STQ E4620     -51.899 146.189  10.207  1.00 28.12     0.045 C 
HETATM   25  C23 STQ E4620     -51.672 147.702  10.295  1.00 29.31     0.142 C 
HETATM   26  C24 STQ E4620     -50.199 148.074  10.548  1.00 30.79     0.007 C 
HETATM   27  C25 STQ E4620     -49.166 147.204  10.399  1.00 30.18    -0.077 C 
HETATM   28  C26 STQ E4620     -49.325 145.747   9.974  1.00 27.90     0.044 C 
HETATM   29  C27 STQ E4620     -48.175 145.331   9.061  1.00 27.26    -0.016 C 
HETATM   30  C28 STQ E4620     -47.311 144.306   9.315  1.00 26.15     0.003 C 
HETATM   31  C29 STQ E4620     -46.322 143.704   8.389  1.00 25.99    -0.062 C 
HETATM   32  C30 STQ E4620     -45.555 142.691   8.842  1.00 24.86     0.007 C 
HETATM   33  C31 STQ E4620     -44.569 141.957   8.096  1.00 24.61     0.001 C 
HETATM   34  C32 STQ E4620     -43.827 140.997   8.687  1.00 23.19     0.007 C 
HETATM   35  C33 STQ E4620     -42.762 140.162   8.117  1.00 22.76    -0.062 C 
HETATM   36  C34 STQ E4620     -42.143 139.290   8.942  1.00 21.16     0.007 C 
HETATM   37  C35 STQ E4620     -41.082 138.381   8.621  1.00 21.72     0.001 C 
HETATM   38  C36 STQ E4620     -50.912 145.659   7.955  1.00 25.17     0.016 C 
HETATM   39  C37 STQ E4620     -51.057 143.923   9.725  1.00 27.28     0.016 C 
HETATM   40  C38 STQ E4620     -47.821 147.780  10.710  1.00 30.64     0.044 C 
HETATM   41  C39 STQ E4620     -46.219 144.263   6.998  1.00 26.11     0.048 C 
HETATM   42  C40 STQ E4620     -42.416 140.353   6.662  1.00 21.07     0.048 C 
HETATM   43  O23 STQ E4620     -52.513 148.269  11.290  1.00 27.58    -0.392 OA
ATOM     44  H23 STQ E4620     -52.372 149.207  11.344  1.00  0.00     0.210 HD
ENDROOT
TORSDOF 12
BEGIN_RES PHE A  61
REMARK  2 active torsions:
REMARK  status: ('A' for Active; 'I' for Inactive)
REMARK    1  A    between atoms: CA   and  CB  
REMARK    2  A    between atoms: CB   and  CG  
ROOT
ATOM      1  CA  PHE A  61     -36.237 128.293  12.768  1.00 39.40     0.164 C 
ENDROOT
BRANCH   1   2
ATOM      2  CB  PHE A  61     -36.813 128.951  11.509  1.00 39.41     0.058 C 
BRANCH   2   3
ATOM      3  CG  PHE A  61     -37.016 128.007  10.348  1.00 39.01    -0.020 A 
ATOM      4  CD2 PHE A  61     -36.284 126.834  10.249  1.00 40.32    -0.004 A 
ATOM      5  CE2 PHE A  61     -36.470 125.967   9.179  1.00 40.20    -0.000 A 
ATOM      6  CZ  PHE A  61     -37.390 126.261   8.199  1.00 40.34    -0.000 A 
ATOM      7  CE1 PHE A  61     -38.127 127.422   8.285  1.00 41.51    -0.000 A 
ATOM      8  CD1 PHE A  61     -37.937 128.292   9.351  1.00 39.94    -0.004 A 
ENDBRANCH   2   3
ENDBRANCH   1   2
END_RES PHE A  61
BEGIN_RES VAL A 134
REMARK  1 active torsions:
REMARK  status: ('A' for Active; 'I' for Inactive)
REMARK    3  A    between atoms: CA   and  CB  
ROOT
ATOM      9  CA  VAL A 134     -29.766 132.051   9.815  1.00 40.75     0.159 C 
ENDROOT
BRANCH   9  10
ATOM     10  CB  VAL A 134     -30.864 132.765   9.009  1.00 40.76     0.029 C 
ATOM     11  CG1 VAL A 134     -32.107 132.975   9.861  1.00 41.76     0.002 C 
ATOM     12  CG2 VAL A 134     -30.372 134.086   8.437  1.00 40.56     0.002 C 
ENDBRANCH   9  10
END_RES VAL A 134
BEGIN_RES TYR A 338
REMARK  3 active torsions:
REMARK  status: ('A' for Active; 'I' for Inactive)
REMARK    4  A    between atoms: CA   and  CB  
REMARK    5  A    between atoms: CB   and  CG  
REMARK    6  A    between atoms: CZ   and  OH  
ROOT
ATOM     13  CA  TYR A 338     -41.631 124.950   6.058  1.00 38.23     0.164 C 
ENDROOT
BRANCH  13  14
ATOM     14  CB  TYR A 338     -41.621 126.456   6.339  1.00 39.15     0.058 C 
BRANCH  14  15
ATOM     15  CG  TYR A 338     -40.426 127.215   5.808  1.00 39.03    -0.020 A 
ATOM     16  CD2 TYR A 338     -40.262 128.558   6.101  1.00 40.65    -0.002 A 
ATOM     17  CE2 TYR A 338     -39.187 129.288   5.619  1.00 40.91     0.024 A 
ATOM     18  CZ  TYR A 338     -38.243 128.672   4.819  1.00 42.33     0.089 A 
ATOM     19  CE1 TYR A 338     -38.383 127.329   4.516  1.00 40.63     0.024 A 
ATOM     20  CD1 TYR A 338     -39.472 126.620   4.998  1.00 39.27    -0.002 A 
BRANCH  18  21
ATOM     21  OH  TYR A 338     -37.177 129.382   4.341  1.00 43.36    -0.359 OA
ATOM     22  HH  TYR A 338     -36.699 129.974   4.911  1.00  0.00     0.217 HD
ENDBRANCH  18  21
ENDBRANCH  14  15
ENDBRANCH  13  14
END_RES TYR A 338
ENDMDL
MODEL 3
REMARK VINA RESULT:    -4.904      1.122     17.133
REMARK INTER + INTRA:          -7.970
REMARK INTER:                  -7.542
REMARK INTRA:                  -0.428
REMARK UNBOUND:                -3.067
REMARK  0 active torsions:
REMARK  status: ('A' for Active; 'I' for Inactive)
REMARK       I    between atoms: C3_3  and  O3_21 
REMARK       I    between atoms: C6_6  and  C7_7 
REMARK       I    between atoms: C8_8  and  C9_9 
REMARK       I    between atoms: C10_10  and  C11_11 
REMARK       I    between atoms: C12_12  and  C13_13 
REMARK       I    between atoms: C14_14  and  C15_15 
REMARK       I    between atoms: C23_25  and  O23_43 
REMARK       I    between atoms: C26_28  and  C27_29 
REMARK       I    between atoms: C28_30  and  C29_31 
REMARK       I    between atoms: C30_32  and  C31_33 
REMARK       I    between atoms: C32_34  and  C33_35 
REMARK       I    between atoms: C34_36  and  C35_37 
ROOT
HETATM    1  C1  STQ E4620     -51.285 144.562  12.436  1.00 19.12    -0.018 C 
HETATM    2  C2  STQ E4620     -52.104 145.211  13.571  1.00 18.29     0.045 C 
HETATM    3  C3  STQ E4620     -51.393 146.234  14.458  1.00 18.54     0.123 C 
HETATM    4  C4  STQ E4620     -50.437 147.142  13.684  1.00 18.55     0.066 C 
HETATM    5  C5  STQ E4620     -49.638 146.537  12.577  1.00 18.97    -0.074 C 
HETATM    6  C6  STQ E4620     -50.008 145.341  11.978  1.00 18.68    -0.048 C 
HETATM    7  C7  STQ E4620     -49.240 144.747  10.874  1.00 18.46     0.009 C 
HETATM    8  C8  STQ E4620     -48.086 144.075  10.941  1.00 18.89     0.007 C 
HETATM    9  C9  STQ E4620     -47.261 143.601   9.827  1.00 19.10    -0.062 C 
HETATM   10  C10 STQ E4620     -46.182 142.845  10.127  1.00 18.99     0.007 C 
HETATM   11  C11 STQ E4620     -45.252 142.260   9.210  1.00 18.78     0.001 C 
HETATM   12  C12 STQ E4620     -44.359 141.384   9.676  1.00 19.28     0.007 C 
HETATM   13  C13 STQ E4620     -43.364 140.618   8.927  1.00 21.25    -0.062 C 
HETATM   14  C14 STQ E4620     -42.643 139.704   9.615  1.00 20.64     0.007 C 
HETATM   15  C15 STQ E4620     -41.681 138.780   9.093  1.00 21.49     0.001 C 
HETATM   16  C16 STQ E4620     -52.288 144.437  11.278  1.00 19.29     0.020 C 
HETATM   17  C17 STQ E4620     -50.907 143.135  12.875  1.00 16.00     0.020 C 
HETATM   18  C18 STQ E4620     -48.498 147.462  12.307  1.00 17.87     0.044 C 
HETATM   19  C19 STQ E4620     -47.701 143.938   8.427  1.00 17.60     0.048 C 
HETATM   20  C20 STQ E4620     -43.266 140.846   7.444  1.00 16.75     0.048 C 
HETATM   21  O3  STQ E4620     -52.343 147.018  15.168  1.00 19.42    -0.395 OA
ATOM     22  H3  STQ E4620     -51.902 147.654  15.719  1.00  0.00     0.210 HD
HETATM   23  C21 STQ E4620     -34.208 128.503   7.009  1.00 27.80    -0.035 C 
HETATM   24  C22 STQ E4620     -33.348 127.606   6.085  1.00 28.12     0.045 C 
HETATM   25  C23 STQ E4620     -31.834 127.744   6.283  1.00 29.31     0.142 C 
HETATM   26  C24 STQ E4620     -31.396 129.194   6.562  1.00 30.79     0.007 C 
HETATM   27  C25 STQ E4620     -32.255 130.188   6.907  1.00 30.18    -0.077 C 
HETATM   28  C26 STQ E4620     -33.764 130.007   7.054  1.00 27.90     0.044 C 
HETATM   29  C27 STQ E4620     -34.290 130.845   8.217  1.00 27.26    -0.016 C 
HETATM   30  C28 STQ E4620     -35.244 131.813   8.109  1.00 26.15     0.003 C 
HETATM   31  C29 STQ E4620     -35.959 132.507   9.206  1.00 25.99    -0.062 C 
HETATM   32  C30 STQ E4620     -36.873 133.445   8.882  1.00 24.86     0.007 C 
HETATM   33  C31 STQ E4620     -37.691 134.201   9.792  1.00 24.61     0.001 C 
HETATM   34  C32 STQ E4620     -38.532 135.153   9.339  1.00 23.19     0.007 C 
HETATM   35  C33 STQ E4620     -39.422 136.045  10.094  1.00 22.76    -0.062 C 
HETATM   36  C34 STQ E4620     -40.143 136.947   9.394  1.00 21.16     0.007 C 
HETATM   37  C35 STQ E4620     -41.067 137.917   9.903  1.00 21.72     0.001 C 
HETATM   38  C36 STQ E4620     -34.195 127.884   8.437  1.00 25.17     0.016 C 
HETATM   39  C37 STQ E4620     -35.642 128.413   6.489  1.00 27.28     0.016 C 
HETATM   40  C38 STQ E4620     -31.609 131.520   7.119  1.00 30.64     0.044 C 
HETATM   41  C39 STQ E4620     -35.618 132.138  10.622  1.00 26.11     0.048 C 
HETATM   42  C40 STQ E4620     -39.448 135.912  11.595  1.00 21.07     0.048 C 
HETATM   43  O23 STQ E4620     -31.140 127.214   5.163  1.00 27.58    -0.392 OA
ATOM     44  H23 STQ E4620     -30.203 127.300   5.286  1.00  0.00     0.210 HD
ENDROOT
TORSDOF 12
BEGIN_RES PHE A  61
REMARK  2 active torsions:
REMARK  status: ('A' for Active; 'I' for Inactive)
REMARK    1  A    between atoms: CA   and  CB  
REMARK    2  A    between atoms: CB   and  CG  
ROOT
ATOM      1  CA  PHE A  61     -36.237 128.293  12.768  1.00 39.40     0.164 C 
ENDROOT
BRANCH   1   2
ATOM      2  CB  PHE A  61     -36.813 128.951  11.509  1.00 39.41     0.058 C 
BRANCH   2   3
ATOM      3  CG  PHE A  61     -37.015 128.007  10.348  1.00 39.01    -0.020 A 
ATOM      4  CD2 PHE A  61     -36.261 126.850  10.232  1.00 40.32    -0.004 A 
ATOM      5  CE2 PHE A  61     -36.445 125.984   9.162  1.00 40.20    -0.000 A 
ATOM      6  CZ  PHE A  61     -37.387 126.262   8.198  1.00 40.34    -0.000 A 
ATOM      7  CE1 PHE A  61     -38.146 127.407   8.300  1.00 41.51    -0.000 A 
ATOM      8  CD1 PHE A  61     -37.958 128.276   9.366  1.00 39.94    -0.004 A 
ENDBRANCH   2   3
ENDBRANCH   1   2
END_RES PHE A  61
BEGIN_RES VAL A 134
REMARK  1 active torsions:
REMARK  status: ('A' for Active; 'I' for Inactive)
REMARK    3  A    between atoms: CA   and  CB  
ROOT
ATOM      9  CA  VAL A 134     -29.766 132.051   9.815  1.00 40.75     0.159 C 
ENDROOT
BRANCH   9  10
ATOM     10  CB  VAL A 134     -30.864 132.765   9.009  1.00 40.76     0.029 C 
ATOM     11  CG1 VAL A 134     -32.118 132.947   9.852  1.00 41.76     0.002 C 
ATOM     12  CG2 VAL A 134     -30.381 134.100   8.463  1.00 40.56     0.002 C 
ENDBRANCH   9  10
END_RES VAL A 134
BEGIN_RES TYR A 338
REMARK  3 active torsions:
REMARK  status: ('A' for Active; 'I' for Inactive)
REMARK    4  A    between atoms: CA   and  CB  
REMARK    5  A    between atoms: CB   and  CG  
REMARK    6  A    between atoms: CZ   and  OH  
ROOT
ATOM     13  CA  TYR A 338     -41.631 124.950   6.058  1.00 38.23     0.164 C 
ENDROOT
BRANCH  13  14
ATOM     14  CB  TYR A 338     -41.621 126.456   6.339  1.00 39.15     0.058 C 
BRANCH  14  15
ATOM     15  CG  TYR A 338     -40.424 127.214   5.812  1.00 39.03    -0.020 A 
ATOM     16  CD2 TYR A 338     -40.259 128.556   6.108  1.00 40.65    -0.002 A 
ATOM     17  CE2 TYR A 338     -39.182 129.286   5.629  1.00 40.91     0.024 A 
ATOM     18  CZ  TYR A 338     -38.237 128.670   4.830  1.00 42.33     0.089 A 
ATOM     19  CE1 TYR A 338     -38.377 127.328   4.525  1.00 40.63     0.024 A 
ATOM     20  CD1 TYR A 338     -39.469 126.619   5.003  1.00 39.27    -0.002 A 
BRANCH  18  21
ATOM     21  OH  TYR A 338     -37.168 129.379   4.356  1.00 43.36    -0.359 OA
ATOM     22  HH  TYR A 338     -37.026 130.277   4.632  1.00  0.00     0.217 HD
ENDBRANCH  18  21
ENDBRANCH  14  15
ENDBRANCH  13  14
END_RES TYR A 338
ENDMDL
