MODEL 1
REMARK VINA RESULT:   -12.439      0.000      0.000
REMARK INTER + INTRA:         -14.893
REMARK INTER:                 -12.439
REMARK INTRA:                  -2.454
REMARK UNBOUND:                -2.454
REMARK  0 active torsions:
REMARK  status: ('A' for Active; 'I' for Inactive)
REMARK       I    between atoms: C3_3  and  O3_21 
REMARK       I    between atoms: C6_6  and  C7_7 
REMARK       I    between atoms: C8_8  and  C9_9 
REMARK       I    between atoms: C10_10  and  C11_11 
REMARK       I    between atoms: C12_12  and  C13_13 
REMARK       I    between atoms: C14_14  and  C15_15 
REMARK       I    between atoms: C23_25  and  O23_43 
REMARK       I    between atoms: C26_28  and  C27_29 
REMARK       I    between atoms: C28_30  and  C29_31 
REMARK       I    between atoms: C30_32  and  C31_33 
REMARK       I    between atoms: C32_34  and  C33_35 
REMARK       I    between atoms: C34_36  and  C35_37 
ROOT
HETATM    1  C1  STQ S1621     -34.214 127.196   6.683  1.00 56.99    -0.018 C 
HETATM    2  C2  STQ S1621     -33.810 126.754   5.279  1.00 56.99     0.045 C 
HETATM    3  C3  STQ S1621     -32.652 127.482   4.609  1.00 56.99     0.123 C 
HETATM    4  C4  STQ S1621     -31.644 127.987   5.621  1.00 56.99     0.066 C 
HETATM    5  C5  STQ S1621     -32.357 128.836   6.634  1.00 56.99    -0.074 C 
HETATM    6  C6  STQ S1621     -33.515 128.451   7.169  1.00 56.99    -0.048 C 
HETATM    7  C7  STQ S1621     -34.122 129.251   8.266  1.00 56.99     0.009 C 
HETATM    8  C8  STQ S1621     -35.029 130.198   8.019  1.00 56.99     0.007 C 
HETATM    9  C9  STQ S1621     -35.671 131.024   9.060  1.00 56.99    -0.062 C 
HETATM   10  C10 STQ S1621     -36.547 131.943   8.650  1.00 56.99     0.007 C 
HETATM   11  C11 STQ S1621     -37.272 132.844   9.534  1.00 56.99     0.001 C 
HETATM   12  C12 STQ S1621     -37.866 133.866   8.930  1.00 56.99     0.007 C 
HETATM   13  C13 STQ S1621     -38.677 134.871   9.633  1.00 56.99    -0.062 C 
HETATM   14  C14 STQ S1621     -39.350 135.745   8.879  1.00 56.99     0.007 C 
HETATM   15  C15 STQ S1621     -40.224 136.764   9.434  1.00 56.99     0.001 C 
HETATM   16  C16 STQ S1621     -33.991 126.020   7.633  1.00 56.99     0.020 C 
HETATM   17  C17 STQ S1621     -35.697 127.501   6.653  1.00 56.99     0.020 C 
HETATM   18  C18 STQ S1621     -31.579 129.988   7.186  1.00 56.99     0.044 C 
HETATM   19  C19 STQ S1621     -35.359 130.862  10.513  1.00 56.99     0.048 C 
HETATM   20  C20 STQ S1621     -38.753 134.903  11.128  1.00 56.99     0.048 C 
HETATM   21  O3  STQ S1621     -31.986 126.574   3.727  1.00 56.99    -0.395 OA
ATOM     22  H3  STQ S1621     -32.618 126.258   3.092  1.00  0.00     0.210 HD
HETATM   23  C21 STQ S1621     -49.724 145.387   8.948  1.00 56.99    -0.035 C 
HETATM   24  C22 STQ S1621     -50.703 146.158   9.821  1.00 56.99     0.045 C 
HETATM   25  C23 STQ S1621     -50.157 147.494  10.288  1.00 56.99     0.142 C 
HETATM   26  C24 STQ S1621     -48.764 147.348  10.839  1.00 56.99     0.007 C 
HETATM   27  C25 STQ S1621     -47.905 146.426  10.396  1.00 56.99    -0.077 C 
HETATM   28  C26 STQ S1621     -48.372 145.203   9.654  1.00 56.99     0.044 C 
HETATM   29  C27 STQ S1621     -47.336 144.711   8.669  1.00 56.99    -0.016 C 
HETATM   30  C28 STQ S1621     -46.805 143.526   8.930  1.00 56.99     0.003 C 
HETATM   31  C29 STQ S1621     -45.807 142.854   8.092  1.00 56.99    -0.062 C 
HETATM   32  C30 STQ S1621     -45.339 141.712   8.580  1.00 56.99     0.007 C 
HETATM   33  C31 STQ S1621     -44.375 140.841   7.932  1.00 56.99     0.001 C 
HETATM   34  C32 STQ S1621     -43.560 140.175   8.734  1.00 56.99     0.007 C 
HETATM   35  C33 STQ S1621     -42.584 139.221   8.207  1.00 56.99    -0.062 C 
HETATM   36  C34 STQ S1621     -41.810 138.546   9.066  1.00 56.99     0.007 C 
HETATM   37  C35 STQ S1621     -40.874 137.545   8.581  1.00 56.99     0.001 C 
HETATM   38  C36 STQ S1621     -49.583 146.082   7.598  1.00 56.99     0.016 C 
HETATM   39  C37 STQ S1621     -50.342 144.016   8.704  1.00 56.99     0.016 C 
HETATM   40  C38 STQ S1621     -46.451 146.625  10.688  1.00 56.99     0.044 C 
HETATM   41  C39 STQ S1621     -45.355 143.406   6.776  1.00 56.99     0.048 C 
HETATM   42  C40 STQ S1621     -42.506 138.989   6.731  1.00 56.99     0.048 C 
HETATM   43  O23 STQ S1621     -50.998 148.010  11.322  1.00 56.99    -0.392 OA
ATOM     44  H23 STQ S1621     -50.657 148.846  11.615  1.00  0.00     0.210 HD
ENDROOT
TORSDOF 12
BEGIN_RES PHE A  61
REMARK  2 active torsions:
REMARK  status: ('A' for Active; 'I' for Inactive)
REMARK    1  A    between atoms: CA   and  CB  
REMARK    2  A    between atoms: CB   and  CG  
ROOT
ATOM      1  CA  PHE A  61     -36.237 128.293  12.768  1.00 39.40     0.164 C 
ENDROOT
BRANCH   1   2
ATOM      2  CB  PHE A  61     -36.813 128.951  11.509  1.00 39.41     0.058 C 
BRANCH   2   3
ATOM      3  CG  PHE A  61     -37.077 127.995  10.371  1.00 39.01    -0.020 A 
ATOM      4  CD2 PHE A  61     -36.353 126.820  10.246  1.00 40.32    -0.004 A 
ATOM      5  CE2 PHE A  61     -36.595 125.942   9.196  1.00 40.20    -0.000 A 
ATOM      6  CZ  PHE A  61     -37.565 126.228   8.262  1.00 40.34    -0.000 A 
ATOM      7  CE1 PHE A  61     -38.295 127.391   8.373  1.00 41.51    -0.000 A 
ATOM      8  CD1 PHE A  61     -38.049 128.272   9.419  1.00 39.94    -0.004 A 
ENDBRANCH   2   3
ENDBRANCH   1   2
END_RES PHE A  61
BEGIN_RES VAL A 134
REMARK  1 active torsions:
REMARK  status: ('A' for Active; 'I' for Inactive)
REMARK    3  A    between atoms: CA   and  CB  
ROOT
ATOM      9  CA  VAL A 134     -29.766 132.051   9.815  1.00 40.75     0.159 C 
ENDROOT
BRANCH   9  10
ATOM     10  CB  VAL A 134     -30.864 132.765   9.009  1.00 40.76     0.029 C 
ATOM     11  CG1 VAL A 134     -30.848 132.310   7.557  1.00 41.76     0.002 C 
ATOM     12  CG2 VAL A 134     -32.239 132.556   9.626  1.00 40.56     0.002 C 
ENDBRANCH   9  10
END_RES VAL A 134
BEGIN_RES TYR A 338
REMARK  3 active torsions:
REMARK  status: ('A' for Active; 'I' for Inactive)
REMARK    4  A    between atoms: CA   and  CB  
REMARK    5  A    between atoms: CB   and  CG  
REMARK    6  A    between atoms: CZ   and  OH  
ROOT
ATOM     13  CA  TYR A 338     -41.631 124.950   6.058  1.00 38.23     0.164 C 
ENDROOT
BRANCH  13  14
ATOM     14  CB  TYR A 338     -41.621 126.456   6.339  1.00 39.15     0.058 C 
BRANCH  14  15
ATOM     15  CG  TYR A 338     -40.413 127.210   5.832  1.00 39.03    -0.020 A 
ATOM     16  CD2 TYR A 338     -40.244 128.550   6.137  1.00 40.65    -0.002 A 
ATOM     17  CE2 TYR A 338     -39.157 129.276   5.676  1.00 40.91     0.024 A 
ATOM     18  CZ  TYR A 338     -38.206 128.660   4.886  1.00 42.33     0.089 A 
ATOM     19  CE1 TYR A 338     -38.350 127.320   4.571  1.00 40.63     0.024 A 
ATOM     20  CD1 TYR A 338     -39.451 126.615   5.031  1.00 39.27    -0.002 A 
BRANCH  18  21
ATOM     21  OH  TYR A 338     -37.127 129.365   4.429  1.00 43.36    -0.359 OA
ATOM     22  HH  TYR A 338     -37.186 129.864   3.623  1.00  0.00     0.217 HD
ENDBRANCH  18  21
ENDBRANCH  14  15
ENDBRANCH  13  14
END_RES TYR A 338
ENDMDL
