MODEL 1
REMARK VINA RESULT:   -10.594      0.000      0.000
REMARK INTER + INTRA:         -11.031
REMARK INTER:                 -10.594
REMARK INTRA:                  -0.437
REMARK UNBOUND:                -0.437
REMARK  0 active torsions:
REMARK  status: ('A' for Active; 'I' for Inactive)
REMARK       I    between atoms: C3_3  and  O3_21 
REMARK       I    between atoms: C6_6  and  C7_7 
REMARK       I    between atoms: C8_8  and  C9_9 
REMARK       I    between atoms: C10_10  and  C11_11 
REMARK       I    between atoms: C12_12  and  C13_13 
REMARK       I    between atoms: C14_14  and  C15_15 
REMARK       I    between atoms: C23_25  and  O23_43 
REMARK       I    between atoms: C26_28  and  C27_29 
REMARK       I    between atoms: C28_30  and  C29_31 
REMARK       I    between atoms: C30_32  and  C31_33 
REMARK       I    between atoms: C32_34  and  C33_35 
REMARK       I    between atoms: C34_36  and  C35_37 
ROOT
HETATM    1  C1  STQ G1620     -49.969 144.830  12.870  1.00 59.27    -0.018 C 
HETATM    2  C2  STQ G1620     -50.764 145.347  14.058  1.00 64.60     0.045 C 
HETATM    3  C3  STQ G1620     -49.950 146.095  15.092  1.00 63.28     0.123 C 
HETATM    4  C4  STQ G1620     -49.189 147.216  14.435  1.00 61.00     0.066 C 
HETATM    5  C5  STQ G1620     -48.329 146.677  13.327  1.00 64.87    -0.074 C 
HETATM    6  C6  STQ G1620     -48.694 145.611  12.585  1.00 63.96    -0.048 C 
HETATM    7  C7  STQ G1620     -47.877 145.182  11.418  1.00 64.82     0.009 C 
HETATM    8  C8  STQ G1620     -46.817 144.376  11.534  1.00 58.91     0.007 C 
HETATM    9  C9  STQ G1620     -46.022 143.945  10.384  1.00 59.76    -0.062 C 
HETATM   10  C10 STQ G1620     -45.047 143.072  10.652  1.00 59.44     0.007 C 
HETATM   11  C11 STQ G1620     -44.136 142.490   9.684  1.00 53.66     0.001 C 
HETATM   12  C12 STQ G1620     -43.396 141.518  10.192  1.00 59.47     0.007 C 
HETATM   13  C13 STQ G1620     -42.419 140.753   9.412  1.00 64.69    -0.062 C 
HETATM   14  C14 STQ G1620     -41.863 139.692  10.001  1.00 66.67     0.007 C 
HETATM   15  C15 STQ G1620     -40.908 138.835   9.315  1.00 73.65     0.001 C 
HETATM   16  C16 STQ G1620     -50.943 144.834  11.696  1.00 56.55     0.020 C 
HETATM   17  C17 STQ G1620     -49.548 143.396  13.157  1.00 59.14     0.020 C 
HETATM   18  C18 STQ G1620     -47.122 147.519  13.022  1.00 61.00     0.044 C 
HETATM   19  C19 STQ G1620     -46.297 144.483   9.013  1.00 55.95     0.048 C 
HETATM   20  C20 STQ G1620     -42.081 141.149   8.008  1.00 67.83     0.048 C 
HETATM   21  O3  STQ G1620     -50.834 146.645  16.072  1.00 73.40    -0.395 OA
ATOM     22  H3  STQ G1620     -50.324 147.115  16.722  1.00  0.00     0.210 HD
HETATM   23  C21 STQ G1620     -34.189 128.268   7.043  1.00 98.57    -0.035 C 
HETATM   24  C22 STQ G1620     -33.423 127.549   5.946  1.00 99.41     0.045 C 
HETATM   25  C23 STQ G1620     -31.920 127.757   5.978  1.00 97.16     0.142 C 
HETATM   26  C24 STQ G1620     -31.546 129.188   6.257  1.00 98.31     0.007 C 
HETATM   27  C25 STQ G1620     -32.368 130.037   6.882  1.00 99.68    -0.077 C 
HETATM   28  C26 STQ G1620     -33.839 129.762   7.056  1.00 95.76     0.044 C 
HETATM   29  C27 STQ G1620     -34.377 130.411   8.313  1.00 93.26    -0.016 C 
HETATM   30  C28 STQ G1620     -35.249 131.394   8.141  1.00 94.82     0.003 C 
HETATM   31  C29 STQ G1620     -35.891 132.124   9.235  1.00 93.82    -0.062 C 
HETATM   32  C30 STQ G1620     -36.764 133.056   8.857  1.00 83.29     0.007 C 
HETATM   33  C31 STQ G1620     -37.540 133.877   9.764  1.00 75.18     0.001 C 
HETATM   34  C32 STQ G1620     -38.217 134.847   9.175  1.00 71.38     0.007 C 
HETATM   35  C33 STQ G1620     -39.091 135.754   9.924  1.00 70.67    -0.062 C 
HETATM   36  C34 STQ G1620     -39.656 136.769   9.261  1.00 74.09     0.007 C 
HETATM   37  C35 STQ G1620     -40.572 137.695   9.908  1.00 74.87     0.001 C 
HETATM   38  C36 STQ G1620     -33.930 127.603   8.392  1.00 91.33     0.016 C 
HETATM   39  C37 STQ G1620     -35.667 128.102   6.712  1.00 94.51     0.016 C 
HETATM   40  C38 STQ G1620     -31.779 131.312   7.393  1.00 94.89     0.044 C 
HETATM   41  C39 STQ G1620     -35.595 131.833  10.675  1.00 99.93     0.048 C 
HETATM   42  C40 STQ G1620     -39.353 135.514  11.375  1.00 65.73     0.048 C 
HETATM   43  O23 STQ G1620     -31.413 127.404   4.690  1.00 98.59    -0.392 OA
ATOM     44  H23 STQ G1620     -30.472 127.534   4.710  1.00  0.00     0.210 HD
ENDROOT
TORSDOF 12
BEGIN_RES PHE A  61
REMARK  2 active torsions:
REMARK  status: ('A' for Active; 'I' for Inactive)
REMARK    1  A    between atoms: CA   and  CB  
REMARK    2  A    between atoms: CB   and  CG  
ROOT
ATOM      1  CA  PHE A  61     -36.237 128.293  12.768  1.00 39.40     0.164 C 
ENDROOT
BRANCH   1   2
ATOM      2  CB  PHE A  61     -36.813 128.951  11.509  1.00 39.41     0.058 C 
BRANCH   2   3
ATOM      3  CG  PHE A  61     -37.028 128.004  10.353  1.00 39.01    -0.020 A 
ATOM      4  CD2 PHE A  61     -36.279 126.844  10.234  1.00 40.32    -0.004 A 
ATOM      5  CE2 PHE A  61     -36.476 125.975   9.168  1.00 40.20    -0.000 A 
ATOM      6  CZ  PHE A  61     -37.426 126.254   8.212  1.00 40.34    -0.000 A 
ATOM      7  CE1 PHE A  61     -38.180 127.402   8.317  1.00 41.51    -0.000 A 
ATOM      8  CD1 PHE A  61     -37.979 128.274   9.379  1.00 39.94    -0.004 A 
ENDBRANCH   2   3
ENDBRANCH   1   2
END_RES PHE A  61
BEGIN_RES VAL A 134
REMARK  1 active torsions:
REMARK  status: ('A' for Active; 'I' for Inactive)
REMARK    3  A    between atoms: CA   and  CB  
ROOT
ATOM      9  CA  VAL A 134     -29.766 132.051   9.815  1.00 40.75     0.159 C 
ENDROOT
BRANCH   9  10
ATOM     10  CB  VAL A 134     -30.864 132.765   9.009  1.00 40.76     0.029 C 
ATOM     11  CG1 VAL A 134     -32.120 132.943   9.850  1.00 41.76     0.002 C 
ATOM     12  CG2 VAL A 134     -30.383 134.102   8.467  1.00 40.56     0.002 C 
ENDBRANCH   9  10
END_RES VAL A 134
BEGIN_RES TYR A 338
REMARK  3 active torsions:
REMARK  status: ('A' for Active; 'I' for Inactive)
REMARK    4  A    between atoms: CA   and  CB  
REMARK    5  A    between atoms: CB   and  CG  
REMARK    6  A    between atoms: CZ   and  OH  
ROOT
ATOM     13  CA  TYR A 338     -41.631 124.950   6.058  1.00 38.23     0.164 C 
ENDROOT
BRANCH  13  14
ATOM     14  CB  TYR A 338     -41.621 126.456   6.339  1.00 39.15     0.058 C 
BRANCH  14  15
ATOM     15  CG  TYR A 338     -40.416 127.211   5.826  1.00 39.03    -0.020 A 
ATOM     16  CD2 TYR A 338     -40.260 128.557   6.109  1.00 40.65    -0.002 A 
ATOM     17  CE2 TYR A 338     -39.177 129.285   5.642  1.00 40.91     0.024 A 
ATOM     18  CZ  TYR A 338     -38.215 128.662   4.869  1.00 42.33     0.089 A 
ATOM     19  CE1 TYR A 338     -38.346 127.316   4.576  1.00 40.63     0.024 A 
ATOM     20  CD1 TYR A 338     -39.444 126.610   5.042  1.00 39.27    -0.002 A 
BRANCH  18  21
ATOM     21  OH  TYR A 338     -37.139 129.369   4.407  1.00 43.36    -0.359 OA
ATOM     22  HH  TYR A 338     -37.252 130.249   4.067  1.00  0.00     0.217 HD
ENDBRANCH  18  21
ENDBRANCH  14  15
ENDBRANCH  13  14
END_RES TYR A 338
ENDMDL
MODEL 2
REMARK VINA RESULT:   -10.545      1.296     16.764
REMARK INTER + INTRA:         -10.982
REMARK INTER:                  -7.948
REMARK INTRA:                  -3.034
REMARK UNBOUND:                -0.437
REMARK  0 active torsions:
REMARK  status: ('A' for Active; 'I' for Inactive)
REMARK       I    between atoms: C3_3  and  O3_21 
REMARK       I    between atoms: C6_6  and  C7_7 
REMARK       I    between atoms: C8_8  and  C9_9 
REMARK       I    between atoms: C10_10  and  C11_11 
REMARK       I    between atoms: C12_12  and  C13_13 
REMARK       I    between atoms: C14_14  and  C15_15 
REMARK       I    between atoms: C23_25  and  O23_43 
REMARK       I    between atoms: C26_28  and  C27_29 
REMARK       I    between atoms: C28_30  and  C29_31 
REMARK       I    between atoms: C30_32  and  C31_33 
REMARK       I    between atoms: C32_34  and  C33_35 
REMARK       I    between atoms: C34_36  and  C35_37 
ROOT
HETATM    1  C1  STQ G1620     -34.429 126.866   6.249  1.00 59.27    -0.018 C 
HETATM    2  C2  STQ G1620     -33.869 126.064   5.084  1.00 64.60     0.045 C 
HETATM    3  C3  STQ G1620     -32.914 126.823   4.189  1.00 63.28     0.123 C 
HETATM    4  C4  STQ G1620     -31.799 127.414   5.011  1.00 61.00     0.066 C 
HETATM    5  C5  STQ G1620     -32.363 128.286   6.097  1.00 64.87    -0.074 C 
HETATM    6  C6  STQ G1620     -33.544 128.023   6.691  1.00 63.96    -0.048 C 
HETATM    7  C7  STQ G1620     -34.012 128.836   7.846  1.00 64.82     0.009 C 
HETATM    8  C8  STQ G1620     -34.670 129.990   7.698  1.00 58.91     0.007 C 
HETATM    9  C9  STQ G1620     -35.140 130.783   8.835  1.00 59.76    -0.062 C 
HETATM   10  C10 STQ G1620     -35.856 131.868   8.525  1.00 59.44     0.007 C 
HETATM   11  C11 STQ G1620     -36.439 132.801   9.469  1.00 53.66     0.001 C 
HETATM   12  C12 STQ G1620     -37.251 133.675   8.897  1.00 59.47     0.007 C 
HETATM   13  C13 STQ G1620     -37.985 134.704   9.639  1.00 64.69    -0.062 C 
HETATM   14  C14 STQ G1620     -38.897 135.410   8.964  1.00 66.67     0.007 C 
HETATM   15  C15 STQ G1620     -39.713 136.432   9.601  1.00 73.65     0.001 C 
HETATM   16  C16 STQ G1620     -34.678 125.850   7.359  1.00 56.55     0.020 C 
HETATM   17  C17 STQ G1620     -35.759 127.470   5.825  1.00 59.14     0.020 C 
HETATM   18  C18 STQ G1620     -31.428 129.367   6.562  1.00 61.00     0.044 C 
HETATM   19  C19 STQ G1620     -34.805 130.387  10.241  1.00 55.95     0.048 C 
HETATM   20  C20 STQ G1620     -37.723 134.932  11.095  1.00 67.83     0.048 C 
HETATM   21  O3  STQ G1620     -32.357 125.921   3.230  1.00 73.40    -0.395 OA
ATOM     22  H3  STQ G1620     -31.757 126.397   2.667  1.00  0.00     0.210 HD
HETATM   23  C21 STQ G1620     -49.624 144.286  11.031  1.00 98.57    -0.035 C 
HETATM   24  C22 STQ G1620     -50.375 145.088  12.081  1.00 99.41     0.045 C 
HETATM   25  C23 STQ G1620     -49.992 146.554  12.156  1.00 97.16     0.142 C 
HETATM   26  C24 STQ G1620     -48.504 146.762  12.063  1.00 98.31     0.007 C 
HETATM   27  C25 STQ G1620     -47.687 145.870  11.494  1.00 99.68    -0.077 C 
HETATM   28  C26 STQ G1620     -48.109 144.452  11.207  1.00 95.76     0.044 C 
HETATM   29  C27 STQ G1620     -47.381 143.892  10.004  1.00 93.26    -0.016 C 
HETATM   30  C28 STQ G1620     -46.534 142.901  10.237  1.00 94.82     0.003 C 
HETATM   31  C29 STQ G1620     -45.757 142.221   9.199  1.00 93.82    -0.062 C 
HETATM   32  C30 STQ G1620     -44.985 141.226   9.631  1.00 83.29     0.007 C 
HETATM   33  C31 STQ G1620     -44.157 140.395   8.781  1.00 75.18     0.001 C 
HETATM   34  C32 STQ G1620     -43.350 139.581   9.438  1.00 71.38     0.007 C 
HETATM   35  C33 STQ G1620     -42.467 138.634   8.749  1.00 70.67    -0.062 C 
HETATM   36  C34 STQ G1620     -41.611 137.923   9.491  1.00 74.09     0.007 C 
HETATM   37  C35 STQ G1620     -40.727 136.929   8.902  1.00 74.87     0.001 C 
HETATM   38  C36 STQ G1620     -50.089 144.681   9.632  1.00 91.33     0.016 C 
HETATM   39  C37 STQ G1620     -49.999 142.827  11.258  1.00 94.51     0.016 C 
HETATM   40  C38 STQ G1620     -46.300 146.320  11.164  1.00 94.89     0.044 C 
HETATM   41  C39 STQ G1620     -45.838 142.611   7.755  1.00 99.93     0.048 C 
HETATM   42  C40 STQ G1620     -42.561 138.465   7.267  1.00 65.73     0.048 C 
HETATM   43  O23 STQ G1620     -50.434 147.046  13.422  1.00 98.59    -0.392 OA
ATOM     44  H23 STQ G1620     -50.194 147.964  13.469  1.00  0.00     0.210 HD
ENDROOT
TORSDOF 12
BEGIN_RES PHE A  61
REMARK  2 active torsions:
REMARK  status: ('A' for Active; 'I' for Inactive)
REMARK    1  A    between atoms: CA   and  CB  
REMARK    2  A    between atoms: CB   and  CG  
ROOT
ATOM      1  CA  PHE A  61     -36.237 128.293  12.768  1.00 39.40     0.164 C 
ENDROOT
BRANCH   1   2
ATOM      2  CB  PHE A  61     -36.813 128.951  11.509  1.00 39.41     0.058 C 
BRANCH   2   3
ATOM      3  CG  PHE A  61     -37.040 128.002  10.357  1.00 39.01    -0.020 A 
ATOM      4  CD2 PHE A  61     -36.315 126.825  10.251  1.00 40.32    -0.004 A 
ATOM      5  CE2 PHE A  61     -36.522 125.954   9.188  1.00 40.20    -0.000 A 
ATOM      6  CZ  PHE A  61     -37.459 126.248   8.223  1.00 40.34    -0.000 A 
ATOM      7  CE1 PHE A  61     -38.189 127.412   8.316  1.00 41.51    -0.000 A 
ATOM      8  CD1 PHE A  61     -37.977 128.286   9.374  1.00 39.94    -0.004 A 
ENDBRANCH   2   3
ENDBRANCH   1   2
END_RES PHE A  61
BEGIN_RES VAL A 134
REMARK  1 active torsions:
REMARK  status: ('A' for Active; 'I' for Inactive)
REMARK    3  A    between atoms: CA   and  CB  
ROOT
ATOM      9  CA  VAL A 134     -29.766 132.051   9.815  1.00 40.75     0.159 C 
ENDROOT
BRANCH   9  10
ATOM     10  CB  VAL A 134     -30.864 132.765   9.009  1.00 40.76     0.029 C 
ATOM     11  CG1 VAL A 134     -31.177 132.000   7.731  1.00 41.76     0.002 C 
ATOM     12  CG2 VAL A 134     -32.123 132.972   9.837  1.00 40.56     0.002 C 
ENDBRANCH   9  10
END_RES VAL A 134
BEGIN_RES TYR A 338
REMARK  3 active torsions:
REMARK  status: ('A' for Active; 'I' for Inactive)
REMARK    4  A    between atoms: CA   and  CB  
REMARK    5  A    between atoms: CB   and  CG  
REMARK    6  A    between atoms: CZ   and  OH  
ROOT
ATOM     13  CA  TYR A 338     -41.631 124.950   6.058  1.00 38.23     0.164 C 
ENDROOT
BRANCH  13  14
ATOM     14  CB  TYR A 338     -41.621 126.456   6.339  1.00 39.15     0.058 C 
BRANCH  14  15
ATOM     15  CG  TYR A 338     -40.424 127.214   5.812  1.00 39.03    -0.020 A 
ATOM     16  CD2 TYR A 338     -40.250 128.552   6.122  1.00 40.65    -0.002 A 
ATOM     17  CE2 TYR A 338     -39.173 129.282   5.643  1.00 40.91     0.024 A 
ATOM     18  CZ  TYR A 338     -38.237 128.671   4.830  1.00 42.33     0.089 A 
ATOM     19  CE1 TYR A 338     -38.387 127.333   4.510  1.00 40.63     0.024 A 
ATOM     20  CD1 TYR A 338     -39.478 126.624   4.988  1.00 39.27    -0.002 A 
BRANCH  18  21
ATOM     21  OH  TYR A 338     -37.169 129.379   4.356  1.00 43.36    -0.359 OA
ATOM     22  HH  TYR A 338     -37.188 130.329   4.347  1.00  0.00     0.217 HD
ENDBRANCH  18  21
ENDBRANCH  14  15
ENDBRANCH  13  14
END_RES TYR A 338
ENDMDL
