MODEL 1
REMARK VINA RESULT:    -8.120      0.000      0.000
REMARK INTER + INTRA:         -10.633
REMARK INTER:                  -8.120
REMARK INTRA:                  -2.513
REMARK UNBOUND:                -2.513
REMARK  0 active torsions:
REMARK  status: ('A' for Active; 'I' for Inactive)
REMARK       I    between atoms: C3_3  and  O3_21 
REMARK       I    between atoms: C6_6  and  C7_7 
REMARK       I    between atoms: C8_8  and  C9_9 
REMARK       I    between atoms: C10_10  and  C11_11 
REMARK       I    between atoms: C12_12  and  C13_13 
REMARK       I    between atoms: C14_14  and  C15_15 
REMARK       I    between atoms: C23_25  and  O23_43 
REMARK       I    between atoms: C26_28  and  C27_29 
REMARK       I    between atoms: C28_30  and  C29_31 
REMARK       I    between atoms: C30_32  and  C31_33 
REMARK       I    between atoms: C32_34  and  C33_35 
REMARK       I    between atoms: C34_36  and  C35_37 
ROOT
HETATM    1  C1  STQ F5621     -34.630 127.321   6.151  1.00 20.77    -0.018 C 
HETATM    2  C2  STQ F5621     -34.254 126.750   4.774  1.00 19.21     0.045 C 
HETATM    3  C3  STQ F5621     -32.892 127.057   4.157  1.00 20.68     0.123 C 
HETATM    4  C4  STQ F5621     -31.979 127.973   4.979  1.00 17.77     0.066 C 
HETATM    5  C5  STQ F5621     -32.480 128.680   6.197  1.00 19.05    -0.074 C 
HETATM    6  C6  STQ F5621     -33.705 128.413   6.779  1.00 19.48    -0.048 C 
HETATM    7  C7  STQ F5621     -34.245 129.101   7.982  1.00 16.56     0.009 C 
HETATM    8  C8  STQ F5621     -34.833 130.328   7.985  1.00 15.55     0.007 C 
HETATM    9  C9  STQ F5621     -35.360 131.106   9.118  1.00 14.22    -0.062 C 
HETATM   10  C10 STQ F5621     -36.019 132.253   8.838  1.00 14.29     0.007 C 
HETATM   11  C11 STQ F5621     -36.689 133.121   9.775  1.00 14.32     0.001 C 
HETATM   12  C12 STQ F5621     -37.413 134.195   9.378  1.00 14.19     0.007 C 
HETATM   13  C13 STQ F5621     -38.231 135.110  10.220  1.00 15.26    -0.062 C 
HETATM   14  C14 STQ F5621     -38.915 136.099   9.603  1.00 15.45     0.007 C 
HETATM   15  C15 STQ F5621     -39.809 137.055  10.213  1.00 16.70     0.001 C 
HETATM   16  C16 STQ F5621     -34.667 126.072   7.067  1.00 20.67     0.020 C 
HETATM   17  C17 STQ F5621     -36.074 127.847   6.011  1.00 19.98     0.020 C 
HETATM   18  C18 STQ F5621     -31.451 129.665   6.632  1.00 17.40     0.044 C 
HETATM   19  C19 STQ F5621     -35.203 130.534  10.492  1.00 13.40     0.048 C 
HETATM   20  C20 STQ F5621     -38.276 134.853  11.699  1.00 11.87     0.048 C 
HETATM   21  O3  STQ F5621     -32.215 125.850   3.818  1.00 20.33    -0.395 OA
ATOM     22  H3  STQ F5621     -31.367 126.041   3.433  1.00  0.00     0.210 HD
HETATM   23  C21 STQ F5621     -48.152 146.451  13.273  1.00 22.54    -0.035 C 
HETATM   24  C22 STQ F5621     -48.986 147.348  14.218  1.00 22.10     0.045 C 
HETATM   25  C23 STQ F5621     -48.360 148.710  14.548  1.00 22.88     0.142 C 
HETATM   26  C24 STQ F5621     -46.837 148.650  14.753  1.00 23.28     0.007 C 
HETATM   27  C25 STQ F5621     -46.103 147.577  14.364  1.00 24.20    -0.077 C 
HETATM   28  C26 STQ F5621     -46.654 146.315  13.697  1.00 21.98     0.044 C 
HETATM   29  C27 STQ F5621     -45.733 145.840  12.580  1.00 22.14    -0.016 C 
HETATM   30  C28 STQ F5621     -45.219 144.591  12.467  1.00 22.19     0.003 C 
HETATM   31  C29 STQ F5621     -44.499 144.030  11.315  1.00 22.13    -0.062 C 
HETATM   32  C30 STQ F5621     -44.021 142.769  11.403  1.00 22.11     0.007 C 
HETATM   33  C31 STQ F5621     -43.294 142.056  10.375  1.00 21.40     0.001 C 
HETATM   34  C32 STQ F5621     -42.688 140.871  10.612  1.00 17.66     0.007 C 
HETATM   35  C33 STQ F5621     -41.876 140.053   9.699  1.00 16.53    -0.062 C 
HETATM   36  C34 STQ F5621     -41.281 138.953  10.210  1.00 14.90     0.007 C 
HETATM   37  C35 STQ F5621     -40.407 138.038   9.529  1.00 15.48     0.001 C 
HETATM   38  C36 STQ F5621     -48.273 147.056  11.846  1.00 21.25     0.016 C 
HETATM   39  C37 STQ F5621     -48.805 145.058  13.234  1.00 21.27     0.016 C 
HETATM   40  C38 STQ F5621     -44.656 147.722  14.666  1.00 22.66     0.044 C 
HETATM   41  C39 STQ F5621     -44.276 144.919  10.131  1.00 22.70     0.048 C 
HETATM   42  C40 STQ F5621     -41.705 140.537   8.288  1.00 12.92     0.048 C 
HETATM   43  O23 STQ F5621     -48.996 149.272  15.685  1.00 22.94    -0.392 OA
ATOM     44  H23 STQ F5621     -48.608 150.115  15.890  1.00  0.00     0.210 HD
ENDROOT
TORSDOF 12
BEGIN_RES PHE A  61
REMARK  2 active torsions:
REMARK  status: ('A' for Active; 'I' for Inactive)
REMARK    1  A    between atoms: CA   and  CB  
REMARK    2  A    between atoms: CB   and  CG  
ROOT
ATOM      1  CA  PHE A  61     -36.237 128.293  12.768  1.00 39.40     0.164 C 
ENDROOT
BRANCH   1   2
ATOM      2  CB  PHE A  61     -36.813 128.951  11.509  1.00 39.41     0.058 C 
BRANCH   2   3
ATOM      3  CG  PHE A  61     -37.045 128.001  10.359  1.00 39.01    -0.020 A 
ATOM      4  CD2 PHE A  61     -36.287 126.848  10.224  1.00 40.32    -0.004 A 
ATOM      5  CE2 PHE A  61     -36.499 125.977   9.163  1.00 40.20    -0.000 A 
ATOM      6  CZ  PHE A  61     -37.473 126.245   8.229  1.00 40.34    -0.000 A 
ATOM      7  CE1 PHE A  61     -38.237 127.385   8.350  1.00 41.51    -0.000 A 
ATOM      8  CD1 PHE A  61     -38.020 128.260   9.406  1.00 39.94    -0.004 A 
ENDBRANCH   2   3
ENDBRANCH   1   2
END_RES PHE A  61
BEGIN_RES VAL A 134
REMARK  1 active torsions:
REMARK  status: ('A' for Active; 'I' for Inactive)
REMARK    3  A    between atoms: CA   and  CB  
ROOT
ATOM      9  CA  VAL A 134     -29.766 132.051   9.815  1.00 40.75     0.159 C 
ENDROOT
BRANCH   9  10
ATOM     10  CB  VAL A 134     -30.864 132.765   9.009  1.00 40.76     0.029 C 
ATOM     11  CG1 VAL A 134     -30.900 132.252   7.577  1.00 41.76     0.002 C 
ATOM     12  CG2 VAL A 134     -32.227 132.623   9.669  1.00 40.56     0.002 C 
ENDBRANCH   9  10
END_RES VAL A 134
BEGIN_RES TYR A 338
REMARK  3 active torsions:
REMARK  status: ('A' for Active; 'I' for Inactive)
REMARK    4  A    between atoms: CA   and  CB  
REMARK    5  A    between atoms: CB   and  CG  
REMARK    6  A    between atoms: CZ   and  OH  
ROOT
ATOM     13  CA  TYR A 338     -41.631 124.950   6.058  1.00 38.23     0.164 C 
ENDROOT
BRANCH  13  14
ATOM     14  CB  TYR A 338     -41.621 126.456   6.339  1.00 39.15     0.058 C 
BRANCH  14  15
ATOM     15  CG  TYR A 338     -40.437 127.218   5.790  1.00 39.03    -0.020 A 
ATOM     16  CD2 TYR A 338     -40.248 128.550   6.116  1.00 40.65    -0.002 A 
ATOM     17  CE2 TYR A 338     -39.183 129.284   5.618  1.00 40.91     0.024 A 
ATOM     18  CZ  TYR A 338     -38.274 128.683   4.768  1.00 42.33     0.089 A 
ATOM     19  CE1 TYR A 338     -38.438 127.351   4.431  1.00 40.63     0.024 A 
ATOM     20  CD1 TYR A 338     -39.518 126.638   4.929  1.00 39.27    -0.002 A 
BRANCH  18  21
ATOM     21  OH  TYR A 338     -37.217 129.395   4.274  1.00 43.36    -0.359 OA
ATOM     22  HH  TYR A 338     -37.362 130.215   3.816  1.00  0.00     0.217 HD
ENDBRANCH  18  21
ENDBRANCH  14  15
ENDBRANCH  13  14
END_RES TYR A 338
ENDMDL
MODEL 2
REMARK VINA RESULT:    -7.971      1.972      2.516
REMARK INTER + INTRA:         -10.484
REMARK INTER:                 -10.001
REMARK INTRA:                  -0.483
REMARK UNBOUND:                -2.513
REMARK  0 active torsions:
REMARK  status: ('A' for Active; 'I' for Inactive)
REMARK       I    between atoms: C3_3  and  O3_21 
REMARK       I    between atoms: C6_6  and  C7_7 
REMARK       I    between atoms: C8_8  and  C9_9 
REMARK       I    between atoms: C10_10  and  C11_11 
REMARK       I    between atoms: C12_12  and  C13_13 
REMARK       I    between atoms: C14_14  and  C15_15 
REMARK       I    between atoms: C23_25  and  O23_43 
REMARK       I    between atoms: C26_28  and  C27_29 
REMARK       I    between atoms: C28_30  and  C29_31 
REMARK       I    between atoms: C30_32  and  C31_33 
REMARK       I    between atoms: C32_34  and  C33_35 
REMARK       I    between atoms: C34_36  and  C35_37 
ROOT
HETATM    1  C1  STQ F5621     -34.119 128.230   7.031  1.00 20.77    -0.018 C 
HETATM    2  C2  STQ F5621     -33.396 127.655   5.803  1.00 19.21     0.045 C 
HETATM    3  C3  STQ F5621     -31.977 128.105   5.461  1.00 20.68     0.123 C 
HETATM    4  C4  STQ F5621     -31.371 129.162   6.391  1.00 17.77     0.066 C 
HETATM    5  C5  STQ F5621     -32.198 129.851   7.429  1.00 19.05    -0.074 C 
HETATM    6  C6  STQ F5621     -33.480 129.456   7.762  1.00 19.48    -0.048 C 
HETATM    7  C7  STQ F5621     -34.340 130.120   8.778  1.00 16.56     0.009 C 
HETATM    8  C8  STQ F5621     -35.051 131.262   8.577  1.00 15.55     0.007 C 
HETATM    9  C9  STQ F5621     -35.893 132.014   9.521  1.00 14.22    -0.062 C 
HETATM   10  C10 STQ F5621     -36.603 133.057   9.035  1.00 14.29     0.007 C 
HETATM   11  C11 STQ F5621     -37.552 133.872   9.754  1.00 14.32     0.001 C 
HETATM   12  C12 STQ F5621     -38.293 134.829   9.144  1.00 14.19     0.007 C 
HETATM   13  C13 STQ F5621     -39.370 135.667   9.735  1.00 15.26    -0.062 C 
HETATM   14  C14 STQ F5621     -40.016 136.536   8.925  1.00 15.45     0.007 C 
HETATM   15  C15 STQ F5621     -41.123 137.396   9.271  1.00 16.70     0.001 C 
HETATM   16  C16 STQ F5621     -34.208 127.027   8.002  1.00 20.67     0.020 C 
HETATM   17  C17 STQ F5621     -35.551 128.564   6.562  1.00 19.98     0.020 C 
HETATM   18  C18 STQ F5621     -31.405 130.975   8.000  1.00 17.40     0.044 C 
HETATM   19  C19 STQ F5621     -35.968 131.524  10.934  1.00 13.40     0.048 C 
HETATM   20  C20 STQ F5621     -39.701 135.469  11.187  1.00 11.87     0.048 C 
HETATM   21  O3  STQ F5621     -31.110 126.980   5.351  1.00 20.33    -0.395 OA
ATOM     22  H3  STQ F5621     -30.228 127.260   5.138  1.00  0.00     0.210 HD
HETATM   23  C21 STQ F5621     -50.944 145.787   9.903  1.00 22.54    -0.035 C 
HETATM   24  C22 STQ F5621     -52.058 146.610  10.592  1.00 22.10     0.045 C 
HETATM   25  C23 STQ F5621     -51.676 148.052  10.953  1.00 22.88     0.142 C 
HETATM   26  C24 STQ F5621     -50.235 148.193  11.471  1.00 23.28     0.007 C 
HETATM   27  C25 STQ F5621     -49.317 147.206  11.315  1.00 24.20    -0.077 C 
HETATM   28  C26 STQ F5621     -49.565 145.858  10.635  1.00 21.98     0.044 C 
HETATM   29  C27 STQ F5621     -48.380 145.456   9.767  1.00 22.14    -0.016 C 
HETATM   30  C28 STQ F5621     -47.714 144.278   9.847  1.00 22.19     0.003 C 
HETATM   31  C29 STQ F5621     -46.705 143.765   8.909  1.00 22.13    -0.062 C 
HETATM   32  C30 STQ F5621     -46.117 142.579   9.179  1.00 22.11     0.007 C 
HETATM   33  C31 STQ F5621     -45.111 141.921   8.374  1.00 21.40     0.001 C 
HETATM   34  C32 STQ F5621     -44.438 140.832   8.810  1.00 17.66     0.007 C 
HETATM   35  C33 STQ F5621     -43.362 140.086   8.141  1.00 16.53    -0.062 C 
HETATM   36  C34 STQ F5621     -42.767 139.092   8.837  1.00 14.90     0.007 C 
HETATM   37  C35 STQ F5621     -41.670 138.267   8.415  1.00 15.48     0.001 C 
HETATM   38  C36 STQ F5621     -50.827 146.311   8.445  1.00 21.25     0.016 C 
HETATM   39  C37 STQ F5621     -51.411 144.322   9.824  1.00 21.27     0.016 C 
HETATM   40  C38 STQ F5621     -47.994 147.544  11.899  1.00 22.66     0.044 C 
HETATM   41  C39 STQ F5621     -46.339 144.624   7.740  1.00 22.70     0.048 C 
HETATM   42  C40 STQ F5621     -42.950 140.528   6.766  1.00 12.92     0.048 C 
HETATM   43  O23 STQ F5621     -52.600 148.577  11.893  1.00 22.94    -0.392 OA
ATOM     44  H23 STQ F5621     -52.363 149.469  12.116  1.00  0.00     0.210 HD
ENDROOT
TORSDOF 12
BEGIN_RES PHE A  61
REMARK  2 active torsions:
REMARK  status: ('A' for Active; 'I' for Inactive)
REMARK    1  A    between atoms: CA   and  CB  
REMARK    2  A    between atoms: CB   and  CG  
ROOT
ATOM      1  CA  PHE A  61     -36.237 128.293  12.768  1.00 39.40     0.164 C 
ENDROOT
BRANCH   1   2
ATOM      2  CB  PHE A  61     -36.813 128.951  11.509  1.00 39.41     0.058 C 
BRANCH   2   3
ATOM      3  CG  PHE A  61     -37.026 128.005  10.352  1.00 39.01    -0.020 A 
ATOM      4  CD2 PHE A  61     -36.277 126.844  10.235  1.00 40.32    -0.004 A 
ATOM      5  CE2 PHE A  61     -36.472 125.975   9.168  1.00 40.20    -0.000 A 
ATOM      6  CZ  PHE A  61     -37.418 126.256   8.209  1.00 40.34    -0.000 A 
ATOM      7  CE1 PHE A  61     -38.171 127.404   8.312  1.00 41.51    -0.000 A 
ATOM      8  CD1 PHE A  61     -37.973 128.276   9.375  1.00 39.94    -0.004 A 
ENDBRANCH   2   3
ENDBRANCH   1   2
END_RES PHE A  61
BEGIN_RES VAL A 134
REMARK  1 active torsions:
REMARK  status: ('A' for Active; 'I' for Inactive)
REMARK    3  A    between atoms: CA   and  CB  
ROOT
ATOM      9  CA  VAL A 134     -29.766 132.051   9.815  1.00 40.75     0.159 C 
ENDROOT
BRANCH   9  10
ATOM     10  CB  VAL A 134     -30.864 132.765   9.009  1.00 40.76     0.029 C 
ATOM     11  CG1 VAL A 134     -32.108 132.973   9.861  1.00 41.76     0.002 C 
ATOM     12  CG2 VAL A 134     -30.372 134.086   8.439  1.00 40.56     0.002 C 
ENDBRANCH   9  10
END_RES VAL A 134
BEGIN_RES TYR A 338
REMARK  3 active torsions:
REMARK  status: ('A' for Active; 'I' for Inactive)
REMARK    4  A    between atoms: CA   and  CB  
REMARK    5  A    between atoms: CB   and  CG  
REMARK    6  A    between atoms: CZ   and  OH  
ROOT
ATOM     13  CA  TYR A 338     -41.631 124.950   6.058  1.00 38.23     0.164 C 
ENDROOT
BRANCH  13  14
ATOM     14  CB  TYR A 338     -41.621 126.456   6.339  1.00 39.15     0.058 C 
BRANCH  14  15
ATOM     15  CG  TYR A 338     -40.411 127.209   5.836  1.00 39.03    -0.020 A 
ATOM     16  CD2 TYR A 338     -40.257 128.556   6.117  1.00 40.65    -0.002 A 
ATOM     17  CE2 TYR A 338     -39.169 129.282   5.659  1.00 40.91     0.024 A 
ATOM     18  CZ  TYR A 338     -38.200 128.657   4.896  1.00 42.33     0.089 A 
ATOM     19  CE1 TYR A 338     -38.328 127.310   4.606  1.00 40.63     0.024 A 
ATOM     20  CD1 TYR A 338     -39.432 126.606   5.063  1.00 39.27    -0.002 A 
BRANCH  18  21
ATOM     21  OH  TYR A 338     -37.120 129.362   4.443  1.00 43.36    -0.359 OA
ATOM     22  HH  TYR A 338     -36.840 130.153   4.889  1.00  0.00     0.217 HD
ENDBRANCH  18  21
ENDBRANCH  14  15
ENDBRANCH  13  14
END_RES TYR A 338
ENDMDL
MODEL 3
REMARK VINA RESULT:    -5.268      1.217     17.312
REMARK INTER + INTRA:          -7.781
REMARK INTER:                  -7.423
REMARK INTRA:                  -0.358
REMARK UNBOUND:                -2.513
REMARK  0 active torsions:
REMARK  status: ('A' for Active; 'I' for Inactive)
REMARK       I    between atoms: C3_3  and  O3_21 
REMARK       I    between atoms: C6_6  and  C7_7 
REMARK       I    between atoms: C8_8  and  C9_9 
REMARK       I    between atoms: C10_10  and  C11_11 
REMARK       I    between atoms: C12_12  and  C13_13 
REMARK       I    between atoms: C14_14  and  C15_15 
REMARK       I    between atoms: C23_25  and  O23_43 
REMARK       I    between atoms: C26_28  and  C27_29 
REMARK       I    between atoms: C28_30  and  C29_31 
REMARK       I    between atoms: C30_32  and  C31_33 
REMARK       I    between atoms: C32_34  and  C33_35 
REMARK       I    between atoms: C34_36  and  C35_37 
ROOT
HETATM    1  C1  STQ F5621     -49.744 146.755  12.075  1.00 20.77    -0.018 C 
HETATM    2  C2  STQ F5621     -50.618 147.087  13.295  1.00 19.21     0.045 C 
HETATM    3  C3  STQ F5621     -50.157 148.126  14.315  1.00 20.68     0.123 C 
HETATM    4  C4  STQ F5621     -48.788 148.760  14.047  1.00 17.77     0.066 C 
HETATM    5  C5  STQ F5621     -47.884 148.237  12.978  1.00 19.05    -0.074 C 
HETATM    6  C6  STQ F5621     -48.281 147.305  12.038  1.00 19.48    -0.048 C 
HETATM    7  C7  STQ F5621     -47.411 146.750  10.966  1.00 16.56     0.009 C 
HETATM    8  C8  STQ F5621     -46.491 145.764  11.136  1.00 15.55     0.007 C 
HETATM    9  C9  STQ F5621     -45.561 145.178  10.158  1.00 14.22    -0.062 C 
HETATM   10  C10 STQ F5621     -44.830 144.110  10.549  1.00 14.29     0.007 C 
HETATM   11  C11 STQ F5621     -43.930 143.328   9.736  1.00 14.32     0.001 C 
HETATM   12  C12 STQ F5621     -43.323 142.208  10.199  1.00 14.19     0.007 C 
HETATM   13  C13 STQ F5621     -42.458 141.259   9.447  1.00 15.26    -0.062 C 
HETATM   14  C14 STQ F5621     -41.992 140.171  10.100  1.00 15.45     0.007 C 
HETATM   15  C15 STQ F5621     -41.193 139.100   9.554  1.00 16.70     0.001 C 
HETATM   16  C16 STQ F5621     -50.550 147.324  10.881  1.00 20.67     0.020 C 
HETATM   17  C17 STQ F5621     -49.749 145.216  11.957  1.00 19.98     0.020 C 
HETATM   18  C18 STQ F5621     -46.553 148.890  13.118  1.00 17.40     0.044 C 
HETATM   19  C19 STQ F5621     -45.549 145.751   8.775  1.00 13.40     0.048 C 
HETATM   20  C20 STQ F5621     -42.189 141.548   7.998  1.00 11.87     0.048 C 
HETATM   21  O3  STQ F5621     -51.150 149.133  14.485  1.00 20.33    -0.395 OA
ATOM     22  H3  STQ F5621     -50.863 149.779  15.120  1.00  0.00     0.210 HD
HETATM   23  C21 STQ F5621     -34.221 128.507   7.017  1.00 22.54    -0.035 C 
HETATM   24  C22 STQ F5621     -33.341 127.565   6.161  1.00 22.10     0.045 C 
HETATM   25  C23 STQ F5621     -31.830 127.695   6.392  1.00 22.88     0.142 C 
HETATM   26  C24 STQ F5621     -31.363 129.146   6.596  1.00 23.28     0.007 C 
HETATM   27  C25 STQ F5621     -32.237 130.149   6.864  1.00 24.20    -0.077 C 
HETATM   28  C26 STQ F5621     -33.755 129.998   6.991  1.00 21.98     0.044 C 
HETATM   29  C27 STQ F5621     -34.294 130.837   8.143  1.00 22.14    -0.016 C 
HETATM   30  C28 STQ F5621     -35.294 131.747   8.049  1.00 22.19     0.003 C 
HETATM   31  C29 STQ F5621     -35.980 132.427   9.156  1.00 22.13    -0.062 C 
HETATM   32  C30 STQ F5621     -36.931 133.340   8.863  1.00 22.11     0.007 C 
HETATM   33  C31 STQ F5621     -37.709 134.103   9.816  1.00 21.40     0.001 C 
HETATM   34  C32 STQ F5621     -38.504 135.130   9.440  1.00 17.66     0.007 C 
HETATM   35  C33 STQ F5621     -39.309 136.026  10.283  1.00 16.53    -0.062 C 
HETATM   36  C34 STQ F5621     -39.936 137.056   9.673  1.00 14.90     0.007 C 
HETATM   37  C35 STQ F5621     -40.730 138.083  10.290  1.00 15.48     0.001 C 
HETATM   38  C36 STQ F5621     -34.212 127.946   8.466  1.00 21.25     0.016 C 
HETATM   39  C37 STQ F5621     -35.668 128.410   6.501  1.00 21.27     0.016 C 
HETATM   40  C38 STQ F5621     -31.578 131.471   7.013  1.00 22.66     0.044 C 
HETATM   41  C39 STQ F5621     -35.532 132.117  10.550  1.00 22.70     0.048 C 
HETATM   42  C40 STQ F5621     -39.316 135.781  11.764  1.00 12.92     0.048 C 
HETATM   43  O23 STQ F5621     -31.123 127.088   5.321  1.00 22.94    -0.392 OA
ATOM     44  H23 STQ F5621     -30.187 127.169   5.464  1.00  0.00     0.210 HD
ENDROOT
TORSDOF 12
BEGIN_RES PHE A  61
REMARK  2 active torsions:
REMARK  status: ('A' for Active; 'I' for Inactive)
REMARK    1  A    between atoms: CA   and  CB  
REMARK    2  A    between atoms: CB   and  CG  
ROOT
ATOM      1  CA  PHE A  61     -36.237 128.293  12.768  1.00 39.40     0.164 C 
ENDROOT
BRANCH   1   2
ATOM      2  CB  PHE A  61     -36.813 128.951  11.509  1.00 39.41     0.058 C 
BRANCH   2   3
ATOM      3  CG  PHE A  61     -37.024 128.005  10.351  1.00 39.01    -0.020 A 
ATOM      4  CD2 PHE A  61     -36.274 126.845  10.234  1.00 40.32    -0.004 A 
ATOM      5  CE2 PHE A  61     -36.467 125.977   9.166  1.00 40.20    -0.000 A 
ATOM      6  CZ  PHE A  61     -37.414 126.256   8.208  1.00 40.34    -0.000 A 
ATOM      7  CE1 PHE A  61     -38.169 127.403   8.311  1.00 41.51    -0.000 A 
ATOM      8  CD1 PHE A  61     -37.972 128.275   9.375  1.00 39.94    -0.004 A 
ENDBRANCH   2   3
ENDBRANCH   1   2
END_RES PHE A  61
BEGIN_RES VAL A 134
REMARK  1 active torsions:
REMARK  status: ('A' for Active; 'I' for Inactive)
REMARK    3  A    between atoms: CA   and  CB  
ROOT
ATOM      9  CA  VAL A 134     -29.766 132.051   9.815  1.00 40.75     0.159 C 
ENDROOT
BRANCH   9  10
ATOM     10  CB  VAL A 134     -30.864 132.765   9.009  1.00 40.76     0.029 C 
ATOM     11  CG1 VAL A 134     -32.119 132.945   9.851  1.00 41.76     0.002 C 
ATOM     12  CG2 VAL A 134     -30.382 134.101   8.465  1.00 40.56     0.002 C 
ENDBRANCH   9  10
END_RES VAL A 134
BEGIN_RES TYR A 338
REMARK  3 active torsions:
REMARK  status: ('A' for Active; 'I' for Inactive)
REMARK    4  A    between atoms: CA   and  CB  
REMARK    5  A    between atoms: CB   and  CG  
REMARK    6  A    between atoms: CZ   and  OH  
ROOT
ATOM     13  CA  TYR A 338     -41.631 124.950   6.058  1.00 38.23     0.164 C 
ENDROOT
BRANCH  13  14
ATOM     14  CB  TYR A 338     -41.621 126.456   6.339  1.00 39.15     0.058 C 
BRANCH  14  15
ATOM     15  CG  TYR A 338     -40.424 127.214   5.813  1.00 39.03    -0.020 A 
ATOM     16  CD2 TYR A 338     -40.259 128.556   6.108  1.00 40.65    -0.002 A 
ATOM     17  CE2 TYR A 338     -39.181 129.286   5.630  1.00 40.91     0.024 A 
ATOM     18  CZ  TYR A 338     -38.236 128.670   4.832  1.00 42.33     0.089 A 
ATOM     19  CE1 TYR A 338     -38.376 127.328   4.526  1.00 40.63     0.024 A 
ATOM     20  CD1 TYR A 338     -39.468 126.619   5.004  1.00 39.27    -0.002 A 
BRANCH  18  21
ATOM     21  OH  TYR A 338     -37.167 129.378   4.358  1.00 43.36    -0.359 OA
ATOM     22  HH  TYR A 338     -37.175 130.328   4.374  1.00  0.00     0.217 HD
ENDBRANCH  18  21
ENDBRANCH  14  15
ENDBRANCH  13  14
END_RES TYR A 338
ENDMDL
