MODEL 1
REMARK VINA RESULT:   -11.662      0.000      0.000
REMARK INTER + INTRA:         -12.249
REMARK INTER:                 -11.662
REMARK INTRA:                  -0.587
REMARK UNBOUND:                -0.587
REMARK  0 active torsions:
REMARK  status: ('A' for Active; 'I' for Inactive)
REMARK       I    between atoms: C3_3  and  O3_21 
REMARK       I    between atoms: C6_6  and  C7_7 
REMARK       I    between atoms: C8_8  and  C9_9 
REMARK       I    between atoms: C10_10  and  C11_11 
REMARK       I    between atoms: C12_12  and  C13_13 
REMARK       I    between atoms: C14_14  and  C15_15 
REMARK       I    between atoms: C23_25  and  O23_43 
REMARK       I    between atoms: C26_28  and  C27_29 
REMARK       I    between atoms: C28_30  and  C29_31 
REMARK       I    between atoms: C30_32  and  C31_33 
REMARK       I    between atoms: C32_34  and  C33_35 
REMARK       I    between atoms: C34_36  and  C35_37 
ROOT
HETATM    1  C1  STQ 11620     -50.193 144.331  12.355  1.00 94.67    -0.018 C 
HETATM    2  C2  STQ 11620     -50.712 144.612  13.759  1.00 94.67     0.045 C 
HETATM    3  C3  STQ 11620     -49.963 145.655  14.561  1.00 94.67     0.123 C 
HETATM    4  C4  STQ 11620     -49.672 146.837  13.677  1.00 94.67     0.066 C 
HETATM    5  C5  STQ 11620     -48.831 146.404  12.517  1.00 94.67    -0.074 C 
HETATM    6  C6  STQ 11620     -49.077 145.249  11.895  1.00 94.67    -0.048 C 
HETATM    7  C7  STQ 11620     -48.273 144.833  10.720  1.00 94.67     0.009 C 
HETATM    8  C8  STQ 11620     -47.149 144.136  10.867  1.00 94.67     0.007 C 
HETATM    9  C9  STQ 11620     -46.335 143.686   9.739  1.00 94.67    -0.062 C 
HETATM   10  C10 STQ 11620     -45.278 142.943  10.051  1.00 94.67     0.007 C 
HETATM   11  C11 STQ 11620     -44.360 142.376   9.081  1.00 94.67     0.001 C 
HETATM   12  C12 STQ 11620     -43.625 141.402   9.591  1.00 94.67     0.007 C 
HETATM   13  C13 STQ 11620     -42.638 140.636   8.833  1.00 94.67    -0.062 C 
HETATM   14  C14 STQ 11620     -42.059 139.624   9.475  1.00 94.67     0.007 C 
HETATM   15  C15 STQ 11620     -41.083 138.735   8.867  1.00 94.67     0.001 C 
HETATM   16  C16 STQ 11620     -51.404 144.428  11.433  1.00 94.67     0.020 C 
HETATM   17  C17 STQ 11620     -49.640 142.914  12.344  1.00 94.67     0.020 C 
HETATM   18  C18 STQ 11620     -47.761 147.359  12.077  1.00 94.67     0.044 C 
HETATM   19  C19 STQ 11620     -46.681 144.042   8.326  1.00 94.67     0.048 C 
HETATM   20  C20 STQ 11620     -42.324 140.966   7.409  1.00 94.67     0.048 C 
HETATM   21  O3  STQ 11620     -50.800 146.096  15.632  1.00 94.67    -0.395 OA
ATOM     22  H3  STQ 11620     -50.984 145.350  16.190  1.00  0.00     0.210 HD
HETATM   23  C21 STQ 11620     -34.202 128.417   6.994  1.00 94.67    -0.035 C 
HETATM   24  C22 STQ 11620     -33.391 127.900   5.816  1.00 94.67     0.045 C 
HETATM   25  C23 STQ 11620     -31.886 128.059   5.968  1.00 94.67     0.142 C 
HETATM   26  C24 STQ 11620     -31.512 129.383   6.582  1.00 94.67     0.007 C 
HETATM   27  C25 STQ 11620     -32.318 129.959   7.476  1.00 94.67    -0.077 C 
HETATM   28  C26 STQ 11620     -33.805 129.861   7.295  1.00 94.67     0.044 C 
HETATM   29  C27 STQ 11620     -34.548 130.364   8.505  1.00 94.67    -0.016 C 
HETATM   30  C28 STQ 11620     -35.234 131.482   8.338  1.00 94.67     0.003 C 
HETATM   31  C29 STQ 11620     -36.025 132.096   9.406  1.00 94.67    -0.062 C 
HETATM   32  C30 STQ 11620     -36.844 133.075   9.025  1.00 94.67     0.007 C 
HETATM   33  C31 STQ 11620     -37.724 133.832   9.897  1.00 94.67     0.001 C 
HETATM   34  C32 STQ 11620     -38.259 134.863   9.268  1.00 94.67     0.007 C 
HETATM   35  C33 STQ 11620     -39.184 135.818   9.872  1.00 94.67    -0.062 C 
HETATM   36  C34 STQ 11620     -39.775 136.702   9.062  1.00 94.67     0.007 C 
HETATM   37  C35 STQ 11620     -40.724 137.675   9.580  1.00 94.67     0.001 C 
HETATM   38  C36 STQ 11620     -34.039 127.518   8.219  1.00 94.67     0.016 C 
HETATM   39  C37 STQ 11620     -35.667 128.366   6.591  1.00 94.67     0.016 C 
HETATM   40  C38 STQ 11620     -31.718 130.676   8.651  1.00 94.67     0.044 C 
HETATM   41  C39 STQ 11620     -35.920 131.643  10.828  1.00 94.67     0.048 C 
HETATM   42  C40 STQ 11620     -39.434 135.807  11.345  1.00 94.67     0.048 C 
HETATM   43  O23 STQ 11620     -31.283 127.957   4.679  1.00 94.67    -0.392 OA
ATOM     44  H23 STQ 11620     -31.518 127.122   4.292  1.00  0.00     0.210 HD
ENDROOT
TORSDOF 12
BEGIN_RES PHE A  61
REMARK  2 active torsions:
REMARK  status: ('A' for Active; 'I' for Inactive)
REMARK    1  A    between atoms: CA   and  CB  
REMARK    2  A    between atoms: CB   and  CG  
ROOT
ATOM      1  CA  PHE A  61     -36.237 128.293  12.768  1.00 39.40     0.164 C 
ENDROOT
BRANCH   1   2
ATOM      2  CB  PHE A  61     -36.813 128.951  11.509  1.00 39.41     0.058 C 
BRANCH   2   3
ATOM      3  CG  PHE A  61     -37.003 128.009  10.344  1.00 39.01    -0.020 A 
ATOM      4  CD2 PHE A  61     -36.213 126.879  10.206  1.00 40.32    -0.004 A 
ATOM      5  CE2 PHE A  61     -36.388 126.015   9.132  1.00 40.20    -0.000 A 
ATOM      6  CZ  PHE A  61     -37.355 126.269   8.187  1.00 40.34    -0.000 A 
ATOM      7  CE1 PHE A  61     -38.150 127.387   8.311  1.00 41.51    -0.000 A 
ATOM      8  CD1 PHE A  61     -37.972 128.255   9.381  1.00 39.94    -0.004 A 
ENDBRANCH   2   3
ENDBRANCH   1   2
END_RES PHE A  61
BEGIN_RES VAL A 134
REMARK  1 active torsions:
REMARK  status: ('A' for Active; 'I' for Inactive)
REMARK    3  A    between atoms: CA   and  CB  
ROOT
ATOM      9  CA  VAL A 134     -29.766 132.051   9.815  1.00 40.75     0.159 C 
ENDROOT
BRANCH   9  10
ATOM     10  CB  VAL A 134     -30.864 132.765   9.009  1.00 40.76     0.029 C 
ATOM     11  CG1 VAL A 134     -32.079 133.042   9.883  1.00 41.76     0.002 C 
ATOM     12  CG2 VAL A 134     -30.350 134.049   8.375  1.00 40.56     0.002 C 
ENDBRANCH   9  10
END_RES VAL A 134
BEGIN_RES TYR A 338
REMARK  3 active torsions:
REMARK  status: ('A' for Active; 'I' for Inactive)
REMARK    4  A    between atoms: CA   and  CB  
REMARK    5  A    between atoms: CB   and  CG  
REMARK    6  A    between atoms: CZ   and  OH  
ROOT
ATOM     13  CA  TYR A 338     -41.631 124.950   6.058  1.00 38.23     0.164 C 
ENDROOT
BRANCH  13  14
ATOM     14  CB  TYR A 338     -41.621 126.456   6.339  1.00 39.15     0.058 C 
BRANCH  14  15
ATOM     15  CG  TYR A 338     -40.420 127.213   5.819  1.00 39.03    -0.020 A 
ATOM     16  CD2 TYR A 338     -40.265 128.559   6.100  1.00 40.65    -0.002 A 
ATOM     17  CE2 TYR A 338     -39.184 129.288   5.627  1.00 40.91     0.024 A 
ATOM     18  CZ  TYR A 338     -38.226 128.666   4.848  1.00 42.33     0.089 A 
ATOM     19  CE1 TYR A 338     -38.357 127.320   4.557  1.00 40.63     0.024 A 
ATOM     20  CD1 TYR A 338     -39.452 126.612   5.030  1.00 39.27    -0.002 A 
BRANCH  18  21
ATOM     21  OH  TYR A 338     -37.154 129.374   4.380  1.00 43.36    -0.359 OA
ATOM     22  HH  TYR A 338     -37.098 130.311   4.523  1.00  0.00     0.217 HD
ENDBRANCH  18  21
ENDBRANCH  14  15
ENDBRANCH  13  14
END_RES TYR A 338
ENDMDL
MODEL 2
REMARK VINA RESULT:   -11.307      1.397     16.513
REMARK INTER + INTRA:         -11.894
REMARK INTER:                  -9.011
REMARK INTRA:                  -2.883
REMARK UNBOUND:                -0.587
REMARK  0 active torsions:
REMARK  status: ('A' for Active; 'I' for Inactive)
REMARK       I    between atoms: C3_3  and  O3_21 
REMARK       I    between atoms: C6_6  and  C7_7 
REMARK       I    between atoms: C8_8  and  C9_9 
REMARK       I    between atoms: C10_10  and  C11_11 
REMARK       I    between atoms: C12_12  and  C13_13 
REMARK       I    between atoms: C14_14  and  C15_15 
REMARK       I    between atoms: C23_25  and  O23_43 
REMARK       I    between atoms: C26_28  and  C27_29 
REMARK       I    between atoms: C28_30  and  C29_31 
REMARK       I    between atoms: C30_32  and  C31_33 
REMARK       I    between atoms: C32_34  and  C33_35 
REMARK       I    between atoms: C34_36  and  C35_37 
ROOT
HETATM    1  C1  STQ 11620     -34.419 127.741   6.517  1.00 94.67    -0.018 C 
HETATM    2  C2  STQ 11620     -33.778 127.372   5.186  1.00 94.67     0.045 C 
HETATM    3  C3  STQ 11620     -32.482 128.074   4.842  1.00 94.67     0.123 C 
HETATM    4  C4  STQ 11620     -31.598 128.095   6.059  1.00 94.67     0.066 C 
HETATM    5  C5  STQ 11620     -32.282 128.832   7.167  1.00 94.67    -0.074 C 
HETATM    6  C6  STQ 11620     -33.587 128.661   7.390  1.00 94.67    -0.048 C 
HETATM    7  C7  STQ 11620     -34.264 129.357   8.511  1.00 94.67     0.009 C 
HETATM    8  C8  STQ 11620     -34.784 130.572   8.354  1.00 94.67     0.007 C 
HETATM    9  C9  STQ 11620     -35.478 131.288   9.423  1.00 94.67    -0.062 C 
HETATM   10  C10 STQ 11620     -35.999 132.464   9.086  1.00 94.67     0.007 C 
HETATM   11  C11 STQ 11620     -36.748 133.317   9.989  1.00 94.67     0.001 C 
HETATM   12  C12 STQ 11620     -37.457 134.232   9.348  1.00 94.67     0.007 C 
HETATM   13  C13 STQ 11620     -38.325 135.205  10.005  1.00 94.67    -0.062 C 
HETATM   14  C14 STQ 11620     -39.044 135.987   9.203  1.00 94.67     0.007 C 
HETATM   15  C15 STQ 11620     -39.986 136.987   9.682  1.00 94.67     0.001 C 
HETATM   16  C16 STQ 11620     -34.708 126.421   7.224  1.00 94.67     0.020 C 
HETATM   17  C17 STQ 11620     -35.721 128.468   6.215  1.00 94.67     0.020 C 
HETATM   18  C18 STQ 11620     -31.413 129.704   8.024  1.00 94.67     0.044 C 
HETATM   19  C19 STQ 11620     -35.593 130.722  10.805  1.00 94.67     0.048 C 
HETATM   20  C20 STQ 11620     -38.410 135.291  11.495  1.00 94.67     0.048 C 
HETATM   21  O3  STQ 11620     -31.816 127.330   3.821  1.00 94.67    -0.395 OA
ATOM     22  H3  STQ 11620     -32.374 127.316   3.053  1.00  0.00     0.210 HD
HETATM   23  C21 STQ 11620     -49.750 144.859   9.628  1.00 94.67    -0.035 C 
HETATM   24  C22 STQ 11620     -50.523 145.574  10.726  1.00 94.67     0.045 C 
HETATM   25  C23 STQ 11620     -50.195 147.053  10.866  1.00 94.67     0.142 C 
HETATM   26  C24 STQ 11620     -48.721 147.326  10.720  1.00 94.67     0.007 C 
HETATM   27  C25 STQ 11620     -47.977 146.571   9.909  1.00 94.67    -0.077 C 
HETATM   28  C26 STQ 11620     -48.254 145.099   9.816  1.00 94.67     0.044 C 
HETATM   29  C27 STQ 11620     -47.479 144.456   8.695  1.00 94.67    -0.016 C 
HETATM   30  C28 STQ 11620     -46.526 143.615   9.060  1.00 94.67     0.003 C 
HETATM   31  C29 STQ 11620     -45.692 142.892   8.098  1.00 94.67    -0.062 C 
HETATM   32  C30 STQ 11620     -44.948 141.911   8.605  1.00 94.67     0.007 C 
HETATM   33  C31 STQ 11620     -44.044 141.058   7.855  1.00 94.67     0.001 C 
HETATM   34  C32 STQ 11620     -43.299 140.318   8.657  1.00 94.67     0.007 C 
HETATM   35  C33 STQ 11620     -42.291 139.360   8.208  1.00 94.67    -0.062 C 
HETATM   36  C34 STQ 11620     -41.745 138.562   9.130  1.00 94.67     0.007 C 
HETATM   37  C35 STQ 11620     -40.748 137.568   8.765  1.00 94.67     0.001 C 
HETATM   38  C36 STQ 11620     -50.224 145.291   8.241  1.00 94.67     0.016 C 
HETATM   39  C37 STQ 11620     -50.047 143.373   9.762  1.00 94.67     0.016 C 
HETATM   40  C38 STQ 11620     -46.891 147.217   9.096  1.00 94.67     0.044 C 
HETATM   41  C39 STQ 11620     -45.688 143.235   6.642  1.00 94.67     0.048 C 
HETATM   42  C40 STQ 11620     -41.883 139.303   6.772  1.00 94.67     0.048 C 
HETATM   43  O23 STQ 11620     -50.625 147.496  12.153  1.00 94.67    -0.392 OA
ATOM     44  H23 STQ 11620     -51.555 147.324  12.245  1.00  0.00     0.210 HD
ENDROOT
TORSDOF 12
BEGIN_RES PHE A  61
REMARK  2 active torsions:
REMARK  status: ('A' for Active; 'I' for Inactive)
REMARK    1  A    between atoms: CA   and  CB  
REMARK    2  A    between atoms: CB   and  CG  
ROOT
ATOM      1  CA  PHE A  61     -36.237 128.293  12.768  1.00 39.40     0.164 C 
ENDROOT
BRANCH   1   2
ATOM      2  CB  PHE A  61     -36.813 128.951  11.509  1.00 39.41     0.058 C 
BRANCH   2   3
ATOM      3  CG  PHE A  61     -37.036 128.002  10.356  1.00 39.01    -0.020 A 
ATOM      4  CD2 PHE A  61     -36.300 126.834  10.242  1.00 40.32    -0.004 A 
ATOM      5  CE2 PHE A  61     -36.504 125.963   9.179  1.00 40.20    -0.000 A 
ATOM      6  CZ  PHE A  61     -37.448 126.250   8.220  1.00 40.34    -0.000 A 
ATOM      7  CE1 PHE A  61     -38.190 127.406   8.319  1.00 41.51    -0.000 A 
ATOM      8  CD1 PHE A  61     -37.982 128.279   9.378  1.00 39.94    -0.004 A 
ENDBRANCH   2   3
ENDBRANCH   1   2
END_RES PHE A  61
BEGIN_RES VAL A 134
REMARK  1 active torsions:
REMARK  status: ('A' for Active; 'I' for Inactive)
REMARK    3  A    between atoms: CA   and  CB  
ROOT
ATOM      9  CA  VAL A 134     -29.766 132.051   9.815  1.00 40.75     0.159 C 
ENDROOT
BRANCH   9  10
ATOM     10  CB  VAL A 134     -30.864 132.765   9.009  1.00 40.76     0.029 C 
ATOM     11  CG1 VAL A 134     -30.923 132.228   7.586  1.00 41.76     0.002 C 
ATOM     12  CG2 VAL A 134     -32.221 132.651   9.686  1.00 40.56     0.002 C 
ENDBRANCH   9  10
END_RES VAL A 134
BEGIN_RES TYR A 338
REMARK  3 active torsions:
REMARK  status: ('A' for Active; 'I' for Inactive)
REMARK    4  A    between atoms: CA   and  CB  
REMARK    5  A    between atoms: CB   and  CG  
REMARK    6  A    between atoms: CZ   and  OH  
ROOT
ATOM     13  CA  TYR A 338     -41.631 124.950   6.058  1.00 38.23     0.164 C 
ENDROOT
BRANCH  13  14
ATOM     14  CB  TYR A 338     -41.621 126.456   6.339  1.00 39.15     0.058 C 
BRANCH  14  15
ATOM     15  CG  TYR A 338     -40.428 127.215   5.806  1.00 39.03    -0.020 A 
ATOM     16  CD2 TYR A 338     -40.271 128.562   6.087  1.00 40.65    -0.002 A 
ATOM     17  CE2 TYR A 338     -39.197 129.292   5.602  1.00 40.91     0.024 A 
ATOM     18  CZ  TYR A 338     -38.247 128.673   4.812  1.00 42.33     0.089 A 
ATOM     19  CE1 TYR A 338     -38.379 127.327   4.521  1.00 40.63     0.024 A 
ATOM     20  CD1 TYR A 338     -39.467 126.617   5.005  1.00 39.27    -0.002 A 
BRANCH  18  21
ATOM     21  OH  TYR A 338     -37.182 129.383   4.332  1.00 43.36    -0.359 OA
ATOM     22  HH  TYR A 338     -37.205 130.333   4.316  1.00  0.00     0.217 HD
ENDBRANCH  18  21
ENDBRANCH  14  15
ENDBRANCH  13  14
END_RES TYR A 338
ENDMDL
MODEL 3
REMARK VINA RESULT:    -9.001      1.808     16.494
REMARK INTER + INTRA:          -9.588
REMARK INTER:                  -7.479
REMARK INTRA:                  -2.109
REMARK UNBOUND:                -0.587
REMARK  0 active torsions:
REMARK  status: ('A' for Active; 'I' for Inactive)
REMARK       I    between atoms: C3_3  and  O3_21 
REMARK       I    between atoms: C6_6  and  C7_7 
REMARK       I    between atoms: C8_8  and  C9_9 
REMARK       I    between atoms: C10_10  and  C11_11 
REMARK       I    between atoms: C12_12  and  C13_13 
REMARK       I    between atoms: C14_14  and  C15_15 
REMARK       I    between atoms: C23_25  and  O23_43 
REMARK       I    between atoms: C26_28  and  C27_29 
REMARK       I    between atoms: C28_30  and  C29_31 
REMARK       I    between atoms: C30_32  and  C31_33 
REMARK       I    between atoms: C32_34  and  C33_35 
REMARK       I    between atoms: C34_36  and  C35_37 
ROOT
HETATM    1  C1  STQ 11620     -34.856 128.510   6.624  1.00 94.67    -0.018 C 
HETATM    2  C2  STQ 11620     -33.981 128.254   5.404  1.00 94.67     0.045 C 
HETATM    3  C3  STQ 11620     -32.636 128.947   5.379  1.00 94.67     0.123 C 
HETATM    4  C4  STQ 11620     -31.995 128.821   6.734  1.00 94.67     0.066 C 
HETATM    5  C5  STQ 11620     -32.866 129.465   7.766  1.00 94.67    -0.074 C 
HETATM    6  C6  STQ 11620     -34.191 129.313   7.726  1.00 94.67    -0.048 C 
HETATM    7  C7  STQ 11620     -35.057 129.916   8.768  1.00 94.67     0.009 C 
HETATM    8  C8  STQ 11620     -35.525 131.155   8.642  1.00 94.67     0.007 C 
HETATM    9  C9  STQ 11620     -36.398 131.784   9.632  1.00 94.67    -0.062 C 
HETATM   10  C10 STQ 11620     -36.834 133.002   9.327  1.00 94.67     0.007 C 
HETATM   11  C11 STQ 11620     -37.728 133.785  10.158  1.00 94.67     0.001 C 
HETATM   12  C12 STQ 11620     -38.294 134.779   9.495  1.00 94.67     0.007 C 
HETATM   13  C13 STQ 11620     -39.259 135.709  10.077  1.00 94.67    -0.062 C 
HETATM   14  C14 STQ 11620     -39.807 136.588   9.240  1.00 94.67     0.007 C 
HETATM   15  C15 STQ 11620     -40.810 137.563   9.636  1.00 94.67     0.001 C 
HETATM   16  C16 STQ 11620     -35.287 127.136   7.126  1.00 94.67     0.020 C 
HETATM   17  C17 STQ 11620     -36.070 129.302   6.162  1.00 94.67     0.020 C 
HETATM   18  C18 STQ 11620     -32.162 130.222   8.854  1.00 94.67     0.044 C 
HETATM   19  C19 STQ 11620     -36.776 131.088  10.904  1.00 94.67     0.048 C 
HETATM   20  C20 STQ 11620     -39.620 135.650  11.526  1.00 94.67     0.048 C 
HETATM   21  O3  STQ 11620     -31.799 128.287   4.428  1.00 94.67    -0.395 OA
ATOM     22  H3  STQ 11620     -32.204 128.366   3.572  1.00  0.00     0.210 HD
HETATM   23  C21 STQ 11620     -50.301 145.695   8.586  1.00 94.67    -0.035 C 
HETATM   24  C22 STQ 11620     -51.257 146.322   9.589  1.00 94.67     0.045 C 
HETATM   25  C23 STQ 11620     -50.944 147.769   9.939  1.00 94.67     0.142 C 
HETATM   26  C24 STQ 11620     -49.465 148.010  10.097  1.00 94.67     0.007 C 
HETATM   27  C25 STQ 11620     -48.591 147.317   9.363  1.00 94.67    -0.077 C 
HETATM   28  C26 STQ 11620     -48.863 145.870   9.071  1.00 94.67     0.044 C 
HETATM   29  C27 STQ 11620     -47.900 145.317   8.052  1.00 94.67    -0.016 C 
HETATM   30  C28 STQ 11620     -47.041 144.416   8.499  1.00 94.67     0.003 C 
HETATM   31  C29 STQ 11620     -46.051 143.767   7.639  1.00 94.67    -0.062 C 
HETATM   32  C30 STQ 11620     -45.426 142.718   8.171  1.00 94.67     0.007 C 
HETATM   33  C31 STQ 11620     -44.408 141.916   7.518  1.00 94.67     0.001 C 
HETATM   34  C32 STQ 11620     -43.834 141.078   8.363  1.00 94.67     0.007 C 
HETATM   35  C33 STQ 11620     -42.771 140.139   8.013  1.00 94.67    -0.062 C 
HETATM   36  C34 STQ 11620     -42.416 139.238   8.933  1.00 94.67     0.007 C 
HETATM   37  C35 STQ 11620     -41.380 138.255   8.659  1.00 94.67     0.001 C 
HETATM   38  C36 STQ 11620     -50.502 146.276   7.187  1.00 94.67     0.016 C 
HETATM   39  C37 STQ 11620     -50.635 144.213   8.509  1.00 94.67     0.016 C 
HETATM   40  C38 STQ 11620     -47.366 148.007   8.836  1.00 94.67     0.044 C 
HETATM   41  C39 STQ 11620     -45.771 144.251   6.251  1.00 94.67     0.048 C 
HETATM   42  C40 STQ 11620     -42.103 140.211   6.679  1.00 94.67     0.048 C 
HETATM   43  O23 STQ 11620     -51.602 148.096  11.162  1.00 94.67    -0.392 OA
ATOM     44  H23 STQ 11620     -52.534 147.944  11.063  1.00  0.00     0.210 HD
ENDROOT
TORSDOF 12
BEGIN_RES PHE A  61
REMARK  2 active torsions:
REMARK  status: ('A' for Active; 'I' for Inactive)
REMARK    1  A    between atoms: CA   and  CB  
REMARK    2  A    between atoms: CB   and  CG  
ROOT
ATOM      1  CA  PHE A  61     -36.237 128.293  12.768  1.00 39.40     0.164 C 
ENDROOT
BRANCH   1   2
ATOM      2  CB  PHE A  61     -36.813 128.951  11.509  1.00 39.41     0.058 C 
BRANCH   2   3
ATOM      3  CG  PHE A  61     -37.057 127.999  10.363  1.00 39.01    -0.020 A 
ATOM      4  CD2 PHE A  61     -36.305 126.842  10.226  1.00 40.32    -0.004 A 
ATOM      5  CE2 PHE A  61     -36.528 125.969   9.169  1.00 40.20    -0.000 A 
ATOM      6  CZ  PHE A  61     -37.507 126.238   8.241  1.00 40.34    -0.000 A 
ATOM      7  CE1 PHE A  61     -38.265 127.382   8.364  1.00 41.51    -0.000 A 
ATOM      8  CD1 PHE A  61     -38.037 128.259   9.416  1.00 39.94    -0.004 A 
ENDBRANCH   2   3
ENDBRANCH   1   2
END_RES PHE A  61
BEGIN_RES VAL A 134
REMARK  1 active torsions:
REMARK  status: ('A' for Active; 'I' for Inactive)
REMARK    3  A    between atoms: CA   and  CB  
ROOT
ATOM      9  CA  VAL A 134     -29.766 132.051   9.815  1.00 40.75     0.159 C 
ENDROOT
BRANCH   9  10
ATOM     10  CB  VAL A 134     -30.864 132.765   9.009  1.00 40.76     0.029 C 
ATOM     11  CG1 VAL A 134     -31.032 132.121   7.641  1.00 41.76     0.002 C 
ATOM     12  CG2 VAL A 134     -32.186 132.789   9.761  1.00 40.56     0.002 C 
ENDBRANCH   9  10
END_RES VAL A 134
BEGIN_RES TYR A 338
REMARK  3 active torsions:
REMARK  status: ('A' for Active; 'I' for Inactive)
REMARK    4  A    between atoms: CA   and  CB  
REMARK    5  A    between atoms: CB   and  CG  
REMARK    6  A    between atoms: CZ   and  OH  
ROOT
ATOM     13  CA  TYR A 338     -41.631 124.950   6.058  1.00 38.23     0.164 C 
ENDROOT
BRANCH  13  14
ATOM     14  CB  TYR A 338     -41.621 126.456   6.339  1.00 39.15     0.058 C 
BRANCH  14  15
ATOM     15  CG  TYR A 338     -40.452 127.223   5.764  1.00 39.03    -0.020 A 
ATOM     16  CD2 TYR A 338     -40.330 128.584   5.985  1.00 40.65    -0.002 A 
ATOM     17  CE2 TYR A 338     -39.281 129.322   5.461  1.00 40.91     0.024 A 
ATOM     18  CZ  TYR A 338     -38.319 128.695   4.690  1.00 42.33     0.089 A 
ATOM     19  CE1 TYR A 338     -38.417 127.334   4.459  1.00 40.63     0.024 A 
ATOM     20  CD1 TYR A 338     -39.482 126.617   4.982  1.00 39.27    -0.002 A 
BRANCH  18  21
ATOM     21  OH  TYR A 338     -37.277 129.411   4.171  1.00 43.36    -0.359 OA
ATOM     22  HH  TYR A 338     -37.440 130.199   3.665  1.00  0.00     0.217 HD
ENDBRANCH  18  21
ENDBRANCH  14  15
ENDBRANCH  13  14
END_RES TYR A 338
ENDMDL
