MODEL 1
REMARK VINA RESULT:   -11.324      0.000      0.000
REMARK INTER + INTRA:         -13.930
REMARK INTER:                 -11.324
REMARK INTRA:                  -2.606
REMARK UNBOUND:                -2.606
REMARK  0 active torsions:
REMARK  status: ('A' for Active; 'I' for Inactive)
REMARK       I    between atoms: C3_3  and  O3_21 
REMARK       I    between atoms: C6_6  and  C7_7 
REMARK       I    between atoms: C8_8  and  C9_9 
REMARK       I    between atoms: C10_10  and  C11_11 
REMARK       I    between atoms: C12_12  and  C13_13 
REMARK       I    between atoms: C14_14  and  C15_15 
REMARK       I    between atoms: C23_25  and  O23_43 
REMARK       I    between atoms: C26_28  and  C27_29 
REMARK       I    between atoms: C28_30  and  C29_31 
REMARK       I    between atoms: C30_32  and  C31_33 
REMARK       I    between atoms: C32_34  and  C33_35 
REMARK       I    between atoms: C34_36  and  C35_37 
ROOT
HETATM    1  C1  STQ 31621     -34.437 127.029   6.396  1.00 71.39    -0.018 C 
HETATM    2  C2  STQ 31621     -34.117 126.533   4.991  1.00 71.39     0.045 C 
HETATM    3  C3  STQ 31621     -32.936 127.161   4.262  1.00 71.39     0.123 C 
HETATM    4  C4  STQ 31621     -31.874 127.635   5.229  1.00 71.39     0.066 C 
HETATM    5  C5  STQ 31621     -32.540 128.585   6.177  1.00 71.39    -0.074 C 
HETATM    6  C6  STQ 31621     -33.659 128.254   6.820  1.00 71.39    -0.048 C 
HETATM    7  C7  STQ 31621     -34.184 129.054   7.960  1.00 71.39     0.009 C 
HETATM    8  C8  STQ 31621     -34.919 130.149   7.764  1.00 71.39     0.007 C 
HETATM    9  C9  STQ 31621     -35.499 130.978   8.837  1.00 71.39    -0.062 C 
HETATM   10  C10 STQ 31621     -36.369 131.916   8.454  1.00 71.39     0.007 C 
HETATM   11  C11 STQ 31621     -37.099 132.841   9.313  1.00 71.39     0.001 C 
HETATM   12  C12 STQ 31621     -37.941 133.642   8.660  1.00 71.39     0.007 C 
HETATM   13  C13 STQ 31621     -38.818 134.642   9.288  1.00 71.39    -0.062 C 
HETATM   14  C14 STQ 31621     -39.633 135.348   8.495  1.00 71.39     0.007 C 
HETATM   15  C15 STQ 31621     -40.568 136.326   9.032  1.00 71.39     0.001 C 
HETATM   16  C16 STQ 31621     -34.219 125.876   7.370  1.00 71.39     0.020 C 
HETATM   17  C17 STQ 31621     -35.905 127.398   6.436  1.00 71.39     0.020 C 
HETATM   18  C18 STQ 31621     -31.573 129.581   6.718  1.00 71.39     0.044 C 
HETATM   19  C19 STQ 31621     -35.154 130.777  10.279  1.00 71.39     0.048 C 
HETATM   20  C20 STQ 31621     -38.819 134.847  10.769  1.00 71.39     0.048 C 
HETATM   21  O3  STQ 31621     -32.341 126.180   3.406  1.00 71.39    -0.395 OA
ATOM     22  H3  STQ 31621     -31.604 126.571   2.951  1.00  0.00     0.210 HD
HETATM   23  C21 STQ 31621     -50.081 144.690  10.198  1.00 71.39    -0.035 C 
HETATM   24  C22 STQ 31621     -50.975 145.556  11.065  1.00 71.39     0.045 C 
HETATM   25  C23 STQ 31621     -50.597 147.018  10.979  1.00 71.39     0.142 C 
HETATM   26  C24 STQ 31621     -49.141 147.157  11.336  1.00 71.39     0.007 C 
HETATM   27  C25 STQ 31621     -48.239 146.249  10.944  1.00 71.39    -0.077 C 
HETATM   28  C26 STQ 31621     -48.615 144.831  10.617  1.00 71.39     0.044 C 
HETATM   29  C27 STQ 31621     -47.700 144.267   9.553  1.00 71.39    -0.016 C 
HETATM   30  C28 STQ 31621     -47.030 143.162   9.842  1.00 71.39     0.003 C 
HETATM   31  C29 STQ 31621     -46.130 142.512   8.888  1.00 71.39    -0.062 C 
HETATM   32  C30 STQ 31621     -45.726 141.270   9.171  1.00 71.39     0.007 C 
HETATM   33  C31 STQ 31621     -44.838 140.491   8.319  1.00 71.39     0.001 C 
HETATM   34  C32 STQ 31621     -44.013 139.650   8.926  1.00 71.39     0.007 C 
HETATM   35  C33 STQ 31621     -43.071 138.800   8.190  1.00 71.39    -0.062 C 
HETATM   36  C34 STQ 31621     -42.248 138.003   8.874  1.00 71.39     0.007 C 
HETATM   37  C35 STQ 31621     -41.302 137.098   8.234  1.00 71.39     0.001 C 
HETATM   38  C36 STQ 31621     -50.288 145.039   8.731  1.00 71.39     0.016 C 
HETATM   39  C37 STQ 31621     -50.541 143.254  10.399  1.00 71.39     0.016 C 
HETATM   40  C38 STQ 31621     -46.807 146.673  10.853  1.00 71.39     0.044 C 
HETATM   41  C39 STQ 31621     -45.690 143.223   7.649  1.00 71.39     0.048 C 
HETATM   42  C40 STQ 31621     -43.062 138.856   6.705  1.00 71.39     0.048 C 
HETATM   43  O23 STQ 31621     -51.403 147.743  11.909  1.00 71.39    -0.392 OA
ATOM     44  H23 STQ 31621     -52.321 147.655  11.683  1.00  0.00     0.210 HD
ENDROOT
TORSDOF 12
BEGIN_RES PHE A  61
REMARK  2 active torsions:
REMARK  status: ('A' for Active; 'I' for Inactive)
REMARK    1  A    between atoms: CA   and  CB  
REMARK    2  A    between atoms: CB   and  CG  
ROOT
ATOM      1  CA  PHE A  61     -36.237 128.293  12.768  1.00 39.40     0.164 C 
ENDROOT
BRANCH   1   2
ATOM      2  CB  PHE A  61     -36.813 128.951  11.509  1.00 39.41     0.058 C 
BRANCH   2   3
ATOM      3  CG  PHE A  61     -37.071 127.996  10.368  1.00 39.01    -0.020 A 
ATOM      4  CD2 PHE A  61     -36.336 126.828  10.238  1.00 40.32    -0.004 A 
ATOM      5  CE2 PHE A  61     -36.572 125.952   9.186  1.00 40.20    -0.000 A 
ATOM      6  CZ  PHE A  61     -37.546 126.232   8.255  1.00 40.34    -0.000 A 
ATOM      7  CE1 PHE A  61     -38.287 127.387   8.372  1.00 41.51    -0.000 A 
ATOM      8  CD1 PHE A  61     -38.047 128.267   9.419  1.00 39.94    -0.004 A 
ENDBRANCH   2   3
ENDBRANCH   1   2
END_RES PHE A  61
BEGIN_RES VAL A 134
REMARK  1 active torsions:
REMARK  status: ('A' for Active; 'I' for Inactive)
REMARK    3  A    between atoms: CA   and  CB  
ROOT
ATOM      9  CA  VAL A 134     -29.766 132.051   9.815  1.00 40.75     0.159 C 
ENDROOT
BRANCH   9  10
ATOM     10  CB  VAL A 134     -30.864 132.765   9.009  1.00 40.76     0.029 C 
ATOM     11  CG1 VAL A 134     -30.908 132.244   7.580  1.00 41.76     0.002 C 
ATOM     12  CG2 VAL A 134     -32.225 132.632   9.675  1.00 40.56     0.002 C 
ENDBRANCH   9  10
END_RES VAL A 134
BEGIN_RES TYR A 338
REMARK  3 active torsions:
REMARK  status: ('A' for Active; 'I' for Inactive)
REMARK    4  A    between atoms: CA   and  CB  
REMARK    5  A    between atoms: CB   and  CG  
REMARK    6  A    between atoms: CZ   and  OH  
ROOT
ATOM     13  CA  TYR A 338     -41.631 124.950   6.058  1.00 38.23     0.164 C 
ENDROOT
BRANCH  13  14
ATOM     14  CB  TYR A 338     -41.621 126.456   6.339  1.00 39.15     0.058 C 
BRANCH  14  15
ATOM     15  CG  TYR A 338     -40.419 127.212   5.821  1.00 39.03    -0.020 A 
ATOM     16  CD2 TYR A 338     -40.251 128.553   6.124  1.00 40.65    -0.002 A 
ATOM     17  CE2 TYR A 338     -39.169 129.281   5.653  1.00 40.91     0.024 A 
ATOM     18  CZ  TYR A 338     -38.222 128.665   4.856  1.00 42.33     0.089 A 
ATOM     19  CE1 TYR A 338     -38.366 127.325   4.544  1.00 40.63     0.024 A 
ATOM     20  CD1 TYR A 338     -39.462 126.618   5.014  1.00 39.27    -0.002 A 
BRANCH  18  21
ATOM     21  OH  TYR A 338     -37.149 129.373   4.390  1.00 43.36    -0.359 OA
ATOM     22  HH  TYR A 338     -36.940 130.224   4.755  1.00  0.00     0.217 HD
ENDBRANCH  18  21
ENDBRANCH  14  15
ENDBRANCH  13  14
END_RES TYR A 338
ENDMDL
