MODEL 1
REMARK VINA RESULT:    -7.931      0.000      0.000
REMARK INTER + INTRA:         -11.872
REMARK INTER:                  -7.931
REMARK INTRA:                  -3.941
REMARK UNBOUND:                -3.941
REMARK  0 active torsions:
REMARK  status: ('A' for Active; 'I' for Inactive)
REMARK       I    between atoms: C3_3  and  O3_21 
REMARK       I    between atoms: C6_6  and  C7_7 
REMARK       I    between atoms: C8_8  and  C9_9 
REMARK       I    between atoms: C10_10  and  C11_11 
REMARK       I    between atoms: C12_12  and  C13_13 
REMARK       I    between atoms: C14_14  and  C15_15 
REMARK       I    between atoms: C23_25  and  O23_43 
REMARK       I    between atoms: C26_28  and  C27_29 
REMARK       I    between atoms: C28_30  and  C29_31 
REMARK       I    between atoms: C30_32  and  C31_33 
REMARK       I    between atoms: C32_34  and  C33_35 
REMARK       I    between atoms: C34_36  and  C35_37 
ROOT
HETATM    1  C1  STQ S1621     -34.387 126.883   5.827  1.00 98.50    -0.018 C 
HETATM    2  C2  STQ S1621     -33.647 125.976   4.865  1.00 95.05     0.045 C 
HETATM    3  C3  STQ S1621     -32.782 126.763   3.905  1.00 91.19     0.123 C 
HETATM    4  C4  STQ S1621     -31.754 127.581   4.656  1.00 95.39     0.066 C 
HETATM    5  C5  STQ S1621     -32.228 128.126   5.977  1.00 94.24    -0.074 C 
HETATM    6  C6  STQ S1621     -33.472 127.921   6.466  1.00 98.17    -0.048 C 
HETATM    7  C7  STQ S1621     -33.984 128.651   7.663  1.00 96.30     0.009 C 
HETATM    8  C8  STQ S1621     -34.546 129.864   7.597  1.00 99.74     0.007 C 
HETATM    9  C9  STQ S1621     -35.087 130.604   8.737  1.00 91.17    -0.062 C 
HETATM   10  C10 STQ S1621     -35.823 131.665   8.408  1.00 97.68     0.007 C 
HETATM   11  C11 STQ S1621     -36.482 132.524   9.372  1.00 98.02     0.001 C 
HETATM   12  C12 STQ S1621     -37.406 133.296   8.833  1.00 91.18     0.007 C 
HETATM   13  C13 STQ S1621     -38.229 134.222   9.609  1.00 90.92    -0.062 C 
HETATM   14  C14 STQ S1621     -39.119 134.933   8.922  1.00 96.50     0.007 C 
HETATM   15  C15 STQ S1621     -40.031 135.883   9.522  1.00 99.38     0.001 C 
HETATM   16  C16 STQ S1621     -35.084 125.946   6.801  1.00 90.00     0.020 C 
HETATM   17  C17 STQ S1621     -35.467 127.653   5.093  1.00 93.85     0.020 C 
HETATM   18  C18 STQ S1621     -31.381 129.305   6.339  1.00 91.76     0.044 C 
HETATM   19  C19 STQ S1621     -34.846 130.196  10.158  1.00 90.99     0.048 C 
HETATM   20  C20 STQ S1621     -38.082 134.339  11.096  1.00 93.33     0.048 C 
HETATM   21  O3  STQ S1621     -32.083 125.850   3.059  1.00 92.07    -0.395 OA
ATOM     22  H3  STQ S1621     -31.540 126.344   2.456  1.00  0.00     0.210 HD
HETATM   23  C21 STQ S1621     -49.269 144.592  10.073  1.00 92.26    -0.035 C 
HETATM   24  C22 STQ S1621     -50.105 145.402  11.052  1.00 91.15     0.045 C 
HETATM   25  C23 STQ S1621     -49.512 146.769  11.353  1.00 99.83     0.142 C 
HETATM   26  C24 STQ S1621     -48.056 146.646  11.719  1.00 88.73     0.007 C 
HETATM   27  C25 STQ S1621     -47.277 145.745  11.117  1.00 81.45    -0.077 C 
HETATM   28  C26 STQ S1621     -47.836 144.453  10.590  1.00 87.98     0.044 C 
HETATM   29  C27 STQ S1621     -46.950 143.878   9.513  1.00 94.75    -0.016 C 
HETATM   30  C28 STQ S1621     -46.367 142.717   9.764  1.00 92.41     0.003 C 
HETATM   31  C29 STQ S1621     -45.497 142.075   8.783  1.00 98.43    -0.062 C 
HETATM   32  C30 STQ S1621     -44.922 140.948   9.176  1.00 92.06     0.007 C 
HETATM   33  C31 STQ S1621     -44.035 140.155   8.351  1.00 98.99     0.001 C 
HETATM   34  C32 STQ S1621     -43.277 139.335   9.054  1.00 98.35     0.007 C 
HETATM   35  C33 STQ S1621     -42.327 138.416   8.436  1.00 93.74    -0.062 C 
HETATM   36  C34 STQ S1621     -41.540 137.711   9.245  1.00 95.45     0.007 C 
HETATM   37  C35 STQ S1621     -40.596 136.754   8.703  1.00 96.56     0.001 C 
HETATM   38  C36 STQ S1621     -49.305 145.216   8.681  1.00 91.16     0.016 C 
HETATM   39  C37 STQ S1621     -49.902 143.212   9.976  1.00 92.72     0.016 C 
HETATM   40  C38 STQ S1621     -45.821 146.041  10.981  1.00 94.63     0.044 C 
HETATM   41  C39 STQ S1621     -45.272 142.657   7.421  1.00 93.10     0.048 C 
HETATM   42  C40 STQ S1621     -42.282 138.267   6.949  1.00 95.49     0.048 C 
HETATM   43  O23 STQ S1621     -50.219 147.350  12.448  1.00 99.14    -0.392 OA
ATOM     44  H23 STQ S1621     -49.850 148.205  12.636  1.00  0.00     0.210 HD
ENDROOT
TORSDOF 12
BEGIN_RES PHE A  61
REMARK  2 active torsions:
REMARK  status: ('A' for Active; 'I' for Inactive)
REMARK    1  A    between atoms: CA   and  CB  
REMARK    2  A    between atoms: CB   and  CG  
ROOT
ATOM      1  CA  PHE A  61     -36.237 128.293  12.768  1.00 39.40     0.164 C 
ENDROOT
BRANCH   1   2
ATOM      2  CB  PHE A  61     -36.813 128.951  11.509  1.00 39.41     0.058 C 
BRANCH   2   3
ATOM      3  CG  PHE A  61     -36.965 128.018  10.331  1.00 39.01    -0.020 A 
ATOM      4  CD2 PHE A  61     -36.157 126.900  10.200  1.00 40.32    -0.004 A 
ATOM      5  CE2 PHE A  61     -36.296 126.044   9.114  1.00 40.20    -0.000 A 
ATOM      6  CZ  PHE A  61     -37.246 126.295   8.151  1.00 40.34    -0.000 A 
ATOM      7  CE1 PHE A  61     -38.059 127.401   8.268  1.00 41.51    -0.000 A 
ATOM      8  CD1 PHE A  61     -37.916 128.260   9.350  1.00 39.94    -0.004 A 
ENDBRANCH   2   3
ENDBRANCH   1   2
END_RES PHE A  61
BEGIN_RES VAL A 134
REMARK  1 active torsions:
REMARK  status: ('A' for Active; 'I' for Inactive)
REMARK    3  A    between atoms: CA   and  CB  
ROOT
ATOM      9  CA  VAL A 134     -29.766 132.051   9.815  1.00 40.75     0.159 C 
ENDROOT
BRANCH   9  10
ATOM     10  CB  VAL A 134     -30.864 132.765   9.009  1.00 40.76     0.029 C 
ATOM     11  CG1 VAL A 134     -31.156 132.016   7.717  1.00 41.76     0.002 C 
ATOM     12  CG2 VAL A 134     -32.133 132.946   9.827  1.00 40.56     0.002 C 
ENDBRANCH   9  10
END_RES VAL A 134
BEGIN_RES TYR A 338
REMARK  3 active torsions:
REMARK  status: ('A' for Active; 'I' for Inactive)
REMARK    4  A    between atoms: CA   and  CB  
REMARK    5  A    between atoms: CB   and  CG  
REMARK    6  A    between atoms: CZ   and  OH  
ROOT
ATOM     13  CA  TYR A 338     -41.631 124.950   6.058  1.00 38.23     0.164 C 
ENDROOT
BRANCH  13  14
ATOM     14  CB  TYR A 338     -41.621 126.456   6.339  1.00 39.15     0.058 C 
BRANCH  14  15
ATOM     15  CG  TYR A 338     -40.422 127.213   5.816  1.00 39.03    -0.020 A 
ATOM     16  CD2 TYR A 338     -40.245 128.550   6.131  1.00 40.65    -0.002 A 
ATOM     17  CE2 TYR A 338     -39.166 129.279   5.656  1.00 40.91     0.024 A 
ATOM     18  CZ  TYR A 338     -38.231 128.669   4.841  1.00 42.33     0.089 A 
ATOM     19  CE1 TYR A 338     -38.383 127.332   4.516  1.00 40.63     0.024 A 
ATOM     20  CD1 TYR A 338     -39.477 126.624   4.990  1.00 39.27    -0.002 A 
BRANCH  18  21
ATOM     21  OH  TYR A 338     -37.161 129.377   4.370  1.00 43.36    -0.359 OA
ATOM     22  HH  TYR A 338     -37.076 129.559   3.442  1.00  0.00     0.217 HD
ENDBRANCH  18  21
ENDBRANCH  14  15
ENDBRANCH  13  14
END_RES TYR A 338
ENDMDL
MODEL 2
REMARK VINA RESULT:    -6.776      1.548     16.674
REMARK INTER + INTRA:         -10.717
REMARK INTER:                 -10.319
REMARK INTRA:                  -0.399
REMARK UNBOUND:                -3.941
REMARK  0 active torsions:
REMARK  status: ('A' for Active; 'I' for Inactive)
REMARK       I    between atoms: C3_3  and  O3_21 
REMARK       I    between atoms: C6_6  and  C7_7 
REMARK       I    between atoms: C8_8  and  C9_9 
REMARK       I    between atoms: C10_10  and  C11_11 
REMARK       I    between atoms: C12_12  and  C13_13 
REMARK       I    between atoms: C14_14  and  C15_15 
REMARK       I    between atoms: C23_25  and  O23_43 
REMARK       I    between atoms: C26_28  and  C27_29 
REMARK       I    between atoms: C28_30  and  C29_31 
REMARK       I    between atoms: C30_32  and  C31_33 
REMARK       I    between atoms: C32_34  and  C33_35 
REMARK       I    between atoms: C34_36  and  C35_37 
ROOT
HETATM    1  C1  STQ S1621     -49.677 144.898  12.790  1.00 98.50    -0.018 C 
HETATM    2  C2  STQ S1621     -50.648 145.520  13.774  1.00 95.05     0.045 C 
HETATM    3  C3  STQ S1621     -49.976 145.869  15.082  1.00 91.19     0.123 C 
HETATM    4  C4  STQ S1621     -48.846 146.853  14.860  1.00 95.39     0.066 C 
HETATM    5  C5  STQ S1621     -48.094 146.664  13.569  1.00 94.24    -0.074 C 
HETATM    6  C6  STQ S1621     -48.382 145.694  12.672  1.00 98.17    -0.048 C 
HETATM    7  C7  STQ S1621     -47.487 145.393  11.516  1.00 96.30     0.009 C 
HETATM    8  C8  STQ S1621     -46.433 144.572  11.600  1.00 99.74     0.007 C 
HETATM    9  C9  STQ S1621     -45.547 144.225  10.489  1.00 91.17    -0.062 C 
HETATM   10  C10 STQ S1621     -44.729 143.202  10.733  1.00 97.68     0.007 C 
HETATM   11  C11 STQ S1621     -43.790 142.668   9.767  1.00 98.02     0.001 C 
HETATM   12  C12 STQ S1621     -43.328 141.477  10.096  1.00 91.18     0.007 C 
HETATM   13  C13 STQ S1621     -42.394 140.721   9.262  1.00 90.92    -0.062 C 
HETATM   14  C14 STQ S1621     -42.020 139.533   9.730  1.00 96.50     0.007 C 
HETATM   15  C15 STQ S1621     -41.120 138.638   9.035  1.00 99.38     0.001 C 
HETATM   16  C16 STQ S1621     -50.462 144.744  11.498  1.00 90.00     0.020 C 
HETATM   17  C17 STQ S1621     -49.288 143.507  13.249  1.00 93.85     0.020 C 
HETATM   18  C18 STQ S1621     -46.741 147.285  13.711  1.00 91.76     0.044 C 
HETATM   19  C19 STQ S1621     -45.568 144.950   9.178  1.00 90.99     0.048 C 
HETATM   20  C20 STQ S1621     -41.912 141.256   7.949  1.00 93.33     0.048 C 
HETATM   21  O3  STQ S1621     -50.932 146.487  15.943  1.00 92.07    -0.395 OA
ATOM     22  H3  STQ S1621     -50.510 146.706  16.765  1.00  0.00     0.210 HD
HETATM   23  C21 STQ S1621     -34.168 128.202   6.974  1.00 92.26    -0.035 C 
HETATM   24  C22 STQ S1621     -33.302 127.519   5.928  1.00 91.15     0.045 C 
HETATM   25  C23 STQ S1621     -31.824 127.842   6.074  1.00 99.83     0.142 C 
HETATM   26  C24 STQ S1621     -31.616 129.329   6.191  1.00 88.73     0.007 C 
HETATM   27  C25 STQ S1621     -32.492 130.088   6.852  1.00 81.45    -0.077 C 
HETATM   28  C26 STQ S1621     -33.945 129.715   6.940  1.00 87.98     0.044 C 
HETATM   29  C27 STQ S1621     -34.602 130.363   8.133  1.00 94.75    -0.016 C 
HETATM   30  C28 STQ S1621     -35.559 131.244   7.894  1.00 92.41     0.003 C 
HETATM   31  C29 STQ S1621     -36.260 131.920   8.982  1.00 98.43    -0.062 C 
HETATM   32  C30 STQ S1621     -37.154 132.826   8.614  1.00 92.06     0.007 C 
HETATM   33  C31 STQ S1621     -37.960 133.597   9.536  1.00 98.99     0.001 C 
HETATM   34  C32 STQ S1621     -38.456 134.692   8.992  1.00 98.35     0.007 C 
HETATM   35  C33 STQ S1621     -39.324 135.610   9.722  1.00 93.74    -0.062 C 
HETATM   36  C34 STQ S1621     -39.682 136.735   9.109  1.00 95.45     0.007 C 
HETATM   37  C35 STQ S1621     -40.569 137.678   9.759  1.00 96.56     0.001 C 
HETATM   38  C36 STQ S1621     -33.901 127.627   8.362  1.00 91.16     0.016 C 
HETATM   39  C37 STQ S1621     -35.618 127.902   6.623  1.00 92.72     0.016 C 
HETATM   40  C38 STQ S1621     -32.000 131.336   7.506  1.00 94.63     0.044 C 
HETATM   41  C39 STQ S1621     -35.982 131.606  10.420  1.00 93.10     0.048 C 
HETATM   42  C40 STQ S1621     -39.807 135.260  11.094  1.00 95.49     0.048 C 
HETATM   43  O23 STQ S1621     -31.128 127.364   4.924  1.00 99.14    -0.392 OA
ATOM     44  H23 STQ S1621     -30.204 127.565   5.015  1.00  0.00     0.210 HD
ENDROOT
TORSDOF 12
BEGIN_RES PHE A  61
REMARK  2 active torsions:
REMARK  status: ('A' for Active; 'I' for Inactive)
REMARK    1  A    between atoms: CA   and  CB  
REMARK    2  A    between atoms: CB   and  CG  
ROOT
ATOM      1  CA  PHE A  61     -36.237 128.293  12.768  1.00 39.40     0.164 C 
ENDROOT
BRANCH   1   2
ATOM      2  CB  PHE A  61     -36.813 128.951  11.509  1.00 39.41     0.058 C 
BRANCH   2   3
ATOM      3  CG  PHE A  61     -37.026 128.004  10.352  1.00 39.01    -0.020 A 
ATOM      4  CD2 PHE A  61     -36.277 126.844  10.234  1.00 40.32    -0.004 A 
ATOM      5  CE2 PHE A  61     -36.472 125.976   9.168  1.00 40.20    -0.000 A 
ATOM      6  CZ  PHE A  61     -37.420 126.255   8.210  1.00 40.34    -0.000 A 
ATOM      7  CE1 PHE A  61     -38.174 127.403   8.314  1.00 41.51    -0.000 A 
ATOM      8  CD1 PHE A  61     -37.975 128.275   9.376  1.00 39.94    -0.004 A 
ENDBRANCH   2   3
ENDBRANCH   1   2
END_RES PHE A  61
BEGIN_RES VAL A 134
REMARK  1 active torsions:
REMARK  status: ('A' for Active; 'I' for Inactive)
REMARK    3  A    between atoms: CA   and  CB  
ROOT
ATOM      9  CA  VAL A 134     -29.766 132.051   9.815  1.00 40.75     0.159 C 
ENDROOT
BRANCH   9  10
ATOM     10  CB  VAL A 134     -30.864 132.765   9.009  1.00 40.76     0.029 C 
ATOM     11  CG1 VAL A 134     -32.118 132.947   9.852  1.00 41.76     0.002 C 
ATOM     12  CG2 VAL A 134     -30.381 134.100   8.463  1.00 40.56     0.002 C 
ENDBRANCH   9  10
END_RES VAL A 134
BEGIN_RES TYR A 338
REMARK  3 active torsions:
REMARK  status: ('A' for Active; 'I' for Inactive)
REMARK    4  A    between atoms: CA   and  CB  
REMARK    5  A    between atoms: CB   and  CG  
REMARK    6  A    between atoms: CZ   and  OH  
ROOT
ATOM     13  CA  TYR A 338     -41.631 124.950   6.058  1.00 38.23     0.164 C 
ENDROOT
BRANCH  13  14
ATOM     14  CB  TYR A 338     -41.621 126.456   6.339  1.00 39.15     0.058 C 
BRANCH  14  15
ATOM     15  CG  TYR A 338     -40.419 127.212   5.822  1.00 39.03    -0.020 A 
ATOM     16  CD2 TYR A 338     -40.260 128.557   6.109  1.00 40.65    -0.002 A 
ATOM     17  CE2 TYR A 338     -39.178 129.285   5.638  1.00 40.91     0.024 A 
ATOM     18  CZ  TYR A 338     -38.222 128.665   4.857  1.00 42.33     0.089 A 
ATOM     19  CE1 TYR A 338     -38.356 127.320   4.560  1.00 40.63     0.024 A 
ATOM     20  CD1 TYR A 338     -39.452 126.613   5.030  1.00 39.27    -0.002 A 
BRANCH  18  21
ATOM     21  OH  TYR A 338     -37.148 129.372   4.391  1.00 43.36    -0.359 OA
ATOM     22  HH  TYR A 338     -36.265 129.048   4.524  1.00  0.00     0.217 HD
ENDBRANCH  18  21
ENDBRANCH  14  15
ENDBRANCH  13  14
END_RES TYR A 338
ENDMDL
