MODEL 1
REMARK VINA RESULT:    -9.033      0.000      0.000
REMARK INTER + INTRA:         -12.120
REMARK INTER:                  -9.033
REMARK INTRA:                  -3.087
REMARK UNBOUND:                -3.087
REMARK  0 active torsions:
REMARK  status: ('A' for Active; 'I' for Inactive)
REMARK       I    between atoms: C3_3  and  O3_21 
REMARK       I    between atoms: C6_6  and  C7_7 
REMARK       I    between atoms: C8_8  and  C9_9 
REMARK       I    between atoms: C10_10  and  C11_11 
REMARK       I    between atoms: C12_12  and  C13_13 
REMARK       I    between atoms: C14_14  and  C15_15 
REMARK       I    between atoms: C23_25  and  O23_43 
REMARK       I    between atoms: C26_28  and  C27_29 
REMARK       I    between atoms: C28_30  and  C29_31 
REMARK       I    between atoms: C30_32  and  C31_33 
REMARK       I    between atoms: C32_34  and  C33_35 
REMARK       I    between atoms: C34_36  and  C35_37 
ROOT
HETATM    1  C1  STQ G1621     -34.542 126.975   6.146  1.00 57.09    -0.018 C 
HETATM    2  C2  STQ G1621     -34.113 126.341   4.830  1.00 57.09     0.045 C 
HETATM    3  C3  STQ G1621     -32.905 126.936   4.131  1.00 57.09     0.123 C 
HETATM    4  C4  STQ G1621     -31.868 127.374   5.141  1.00 57.09     0.066 C 
HETATM    5  C5  STQ G1621     -32.496 128.371   6.071  1.00 57.09    -0.074 C 
HETATM    6  C6  STQ G1621     -33.678 128.116   6.642  1.00 57.09    -0.048 C 
HETATM    7  C7  STQ G1621     -34.177 128.920   7.791  1.00 57.09     0.009 C 
HETATM    8  C8  STQ G1621     -34.768 130.106   7.618  1.00 57.09     0.007 C 
HETATM    9  C9  STQ G1621     -35.295 130.931   8.717  1.00 57.09    -0.062 C 
HETATM   10  C10 STQ G1621     -36.231 131.819   8.375  1.00 57.09     0.007 C 
HETATM   11  C11 STQ G1621     -36.936 132.733   9.265  1.00 57.09     0.001 C 
HETATM   12  C12 STQ G1621     -37.861 133.478   8.669  1.00 57.09     0.007 C 
HETATM   13  C13 STQ G1621     -38.727 134.440   9.366  1.00 57.09    -0.062 C 
HETATM   14  C14 STQ G1621     -39.558 135.199   8.640  1.00 57.09     0.007 C 
HETATM   15  C15 STQ G1621     -40.480 136.137   9.270  1.00 57.09     0.001 C 
HETATM   16  C16 STQ G1621     -34.609 125.858   7.177  1.00 57.09     0.020 C 
HETATM   17  C17 STQ G1621     -35.929 127.543   5.941  1.00 57.09     0.020 C 
HETATM   18  C18 STQ G1621     -31.470 129.262   6.706  1.00 57.09     0.044 C 
HETATM   19  C19 STQ G1621     -34.810 130.780  10.126  1.00 57.09     0.048 C 
HETATM   20  C20 STQ G1621     -38.707 134.521  10.860  1.00 57.09     0.048 C 
HETATM   21  O3  STQ G1621     -32.339 125.919   3.302  1.00 57.09    -0.395 OA
ATOM     22  H3  STQ G1621     -32.991 125.645   2.667  1.00  0.00     0.210 HD
HETATM   23  C21 STQ G1621     -50.127 144.477  10.336  1.00 57.09    -0.035 C 
HETATM   24  C22 STQ G1621     -50.974 145.415  11.179  1.00 57.09     0.045 C 
HETATM   25  C23 STQ G1621     -50.534 146.866  11.118  1.00 57.09     0.142 C 
HETATM   26  C24 STQ G1621     -49.042 146.985  11.274  1.00 57.09     0.007 C 
HETATM   27  C25 STQ G1621     -48.197 145.982  11.009  1.00 57.09    -0.077 C 
HETATM   28  C26 STQ G1621     -48.646 144.580  10.704  1.00 57.09     0.044 C 
HETATM   29  C27 STQ G1621     -47.753 143.987   9.634  1.00 57.09    -0.016 C 
HETATM   30  C28 STQ G1621     -47.106 142.864   9.916  1.00 57.09     0.003 C 
HETATM   31  C29 STQ G1621     -46.213 142.192   8.963  1.00 57.09    -0.062 C 
HETATM   32  C30 STQ G1621     -45.780 140.978   9.308  1.00 57.09     0.007 C 
HETATM   33  C31 STQ G1621     -44.889 140.174   8.486  1.00 57.09     0.001 C 
HETATM   34  C32 STQ G1621     -44.020 139.416   9.140  1.00 57.09     0.007 C 
HETATM   35  C33 STQ G1621     -43.064 138.550   8.448  1.00 57.09    -0.062 C 
HETATM   36  C34 STQ G1621     -42.302 137.705   9.148  1.00 57.09     0.007 C 
HETATM   37  C35 STQ G1621     -41.348 136.802   8.517  1.00 57.09     0.001 C 
HETATM   38  C36 STQ G1621     -50.361 144.750   8.852  1.00 57.09     0.016 C 
HETATM   39  C37 STQ G1621     -50.602 143.069  10.656  1.00 57.09     0.016 C 
HETATM   40  C38 STQ G1621     -46.732 146.269  11.046  1.00 57.09     0.044 C 
HETATM   41  C39 STQ G1621     -45.802 142.844   7.680  1.00 57.09     0.048 C 
HETATM   42  C40 STQ G1621     -42.964 138.660   6.971  1.00 57.09     0.048 C 
HETATM   43  O23 STQ G1621     -51.151 147.569  12.198  1.00 57.09    -0.392 OA
ATOM     44  H23 STQ G1621     -50.876 148.478  12.160  1.00  0.00     0.210 HD
ENDROOT
TORSDOF 12
BEGIN_RES PHE A  61
REMARK  2 active torsions:
REMARK  status: ('A' for Active; 'I' for Inactive)
REMARK    1  A    between atoms: CA   and  CB  
REMARK    2  A    between atoms: CB   and  CG  
ROOT
ATOM      1  CA  PHE A  61     -36.237 128.293  12.768  1.00 39.40     0.164 C 
ENDROOT
BRANCH   1   2
ATOM      2  CB  PHE A  61     -36.813 128.951  11.509  1.00 39.41     0.058 C 
BRANCH   2   3
ATOM      3  CG  PHE A  61     -37.027 128.004  10.353  1.00 39.01    -0.020 A 
ATOM      4  CD2 PHE A  61     -36.279 126.844  10.235  1.00 40.32    -0.004 A 
ATOM      5  CE2 PHE A  61     -36.475 125.975   9.168  1.00 40.20    -0.000 A 
ATOM      6  CZ  PHE A  61     -37.424 126.254   8.211  1.00 40.34    -0.000 A 
ATOM      7  CE1 PHE A  61     -38.177 127.402   8.315  1.00 41.51    -0.000 A 
ATOM      8  CD1 PHE A  61     -37.977 128.275   9.377  1.00 39.94    -0.004 A 
ENDBRANCH   2   3
ENDBRANCH   1   2
END_RES PHE A  61
BEGIN_RES VAL A 134
REMARK  1 active torsions:
REMARK  status: ('A' for Active; 'I' for Inactive)
REMARK    3  A    between atoms: CA   and  CB  
ROOT
ATOM      9  CA  VAL A 134     -29.766 132.051   9.815  1.00 40.75     0.159 C 
ENDROOT
BRANCH   9  10
ATOM     10  CB  VAL A 134     -30.864 132.765   9.009  1.00 40.76     0.029 C 
ATOM     11  CG1 VAL A 134     -31.178 131.999   7.732  1.00 41.76     0.002 C 
ATOM     12  CG2 VAL A 134     -32.122 132.974   9.838  1.00 40.56     0.002 C 
ENDBRANCH   9  10
END_RES VAL A 134
BEGIN_RES TYR A 338
REMARK  3 active torsions:
REMARK  status: ('A' for Active; 'I' for Inactive)
REMARK    4  A    between atoms: CA   and  CB  
REMARK    5  A    between atoms: CB   and  CG  
REMARK    6  A    between atoms: CZ   and  OH  
ROOT
ATOM     13  CA  TYR A 338     -41.631 124.950   6.058  1.00 38.23     0.164 C 
ENDROOT
BRANCH  13  14
ATOM     14  CB  TYR A 338     -41.621 126.456   6.339  1.00 39.15     0.058 C 
BRANCH  14  15
ATOM     15  CG  TYR A 338     -40.429 127.215   5.803  1.00 39.03    -0.020 A 
ATOM     16  CD2 TYR A 338     -40.246 128.550   6.125  1.00 40.65    -0.002 A 
ATOM     17  CE2 TYR A 338     -39.173 129.281   5.639  1.00 40.91     0.024 A 
ATOM     18  CZ  TYR A 338     -38.251 128.675   4.807  1.00 42.33     0.089 A 
ATOM     19  CE1 TYR A 338     -38.409 127.341   4.475  1.00 40.63     0.024 A 
ATOM     20  CD1 TYR A 338     -39.496 126.631   4.961  1.00 39.27    -0.002 A 
BRANCH  18  21
ATOM     21  OH  TYR A 338     -37.186 129.385   4.326  1.00 43.36    -0.359 OA
ATOM     22  HH  TYR A 338     -37.325 130.121   3.741  1.00  0.00     0.217 HD
ENDBRANCH  18  21
ENDBRANCH  14  15
ENDBRANCH  13  14
END_RES TYR A 338
ENDMDL
MODEL 2
REMARK VINA RESULT:    -6.567      1.180     16.881
REMARK INTER + INTRA:          -9.655
REMARK INTER:                  -9.146
REMARK INTRA:                  -0.509
REMARK UNBOUND:                -3.087
REMARK  0 active torsions:
REMARK  status: ('A' for Active; 'I' for Inactive)
REMARK       I    between atoms: C3_3  and  O3_21 
REMARK       I    between atoms: C6_6  and  C7_7 
REMARK       I    between atoms: C8_8  and  C9_9 
REMARK       I    between atoms: C10_10  and  C11_11 
REMARK       I    between atoms: C12_12  and  C13_13 
REMARK       I    between atoms: C14_14  and  C15_15 
REMARK       I    between atoms: C23_25  and  O23_43 
REMARK       I    between atoms: C26_28  and  C27_29 
REMARK       I    between atoms: C28_30  and  C29_31 
REMARK       I    between atoms: C30_32  and  C31_33 
REMARK       I    between atoms: C32_34  and  C33_35 
REMARK       I    between atoms: C34_36  and  C35_37 
ROOT
HETATM    1  C1  STQ G1621     -51.364 144.250  11.348  1.00 57.09    -0.018 C 
HETATM    2  C2  STQ G1621     -52.094 144.582  12.642  1.00 57.09     0.045 C 
HETATM    3  C3  STQ G1621     -51.518 145.693  13.502  1.00 57.09     0.123 C 
HETATM    4  C4  STQ G1621     -50.957 146.799  12.636  1.00 57.09     0.066 C 
HETATM    5  C5  STQ G1621     -49.907 146.217  11.735  1.00 57.09    -0.074 C 
HETATM    6  C6  STQ G1621     -50.155 145.105  11.033  1.00 57.09    -0.048 C 
HETATM    7  C7  STQ G1621     -49.274 144.680   9.912  1.00 57.09     0.009 C 
HETATM    8  C8  STQ G1621     -48.129 144.024  10.124  1.00 57.09     0.007 C 
HETATM    9  C9  STQ G1621     -47.231 143.566   9.051  1.00 57.09    -0.062 C 
HETATM   10  C10 STQ G1621     -46.411 142.564   9.374  1.00 57.09     0.007 C 
HETATM   11  C11 STQ G1621     -45.450 141.905   8.498  1.00 57.09     0.001 C 
HETATM   12  C12 STQ G1621     -44.792 140.897   9.061  1.00 57.09     0.007 C 
HETATM   13  C13 STQ G1621     -43.806 140.058   8.366  1.00 57.09    -0.062 C 
HETATM   14  C14 STQ G1621     -43.142 139.130   9.068  1.00 57.09     0.007 C 
HETATM   15  C15 STQ G1621     -42.188 138.231   8.432  1.00 57.09     0.001 C 
HETATM   16  C16 STQ G1621     -52.390 144.328  10.228  1.00 57.09     0.020 C 
HETATM   17  C17 STQ G1621     -50.867 142.826  11.465  1.00 57.09     0.020 C 
HETATM   18  C18 STQ G1621     -48.928 147.257  11.278  1.00 57.09     0.044 C 
HETATM   19  C19 STQ G1621     -47.243 144.186   7.688  1.00 57.09     0.048 C 
HETATM   20  C20 STQ G1621     -43.595 140.214   6.892  1.00 57.09     0.048 C 
HETATM   21  O3  STQ G1621     -52.581 146.223  14.295  1.00 57.09    -0.395 OA
ATOM     22  H3  STQ G1621     -52.933 145.528  14.839  1.00  0.00     0.210 HD
HETATM   23  C21 STQ G1621     -34.140 128.366   7.131  1.00 57.09    -0.035 C 
HETATM   24  C22 STQ G1621     -33.164 127.562   6.290  1.00 57.09     0.045 C 
HETATM   25  C23 STQ G1621     -31.709 127.929   6.513  1.00 57.09     0.142 C 
HETATM   26  C24 STQ G1621     -31.523 129.423   6.511  1.00 57.09     0.007 C 
HETATM   27  C25 STQ G1621     -32.514 130.283   6.773  1.00 57.09    -0.077 C 
HETATM   28  C26 STQ G1621     -33.952 129.869   6.917  1.00 57.09     0.044 C 
HETATM   29  C27 STQ G1621     -34.603 130.684   8.015  1.00 57.09    -0.016 C 
HETATM   30  C28 STQ G1621     -35.673 131.404   7.706  1.00 57.09     0.003 C 
HETATM   31  C29 STQ G1621     -36.392 132.233   8.682  1.00 57.09    -0.062 C 
HETATM   32  C30 STQ G1621     -37.556 132.749   8.282  1.00 57.09     0.007 C 
HETATM   33  C31 STQ G1621     -38.394 133.594   9.117  1.00 57.09     0.001 C 
HETATM   34  C32 STQ G1621     -39.062 134.552   8.489  1.00 57.09     0.007 C 
HETATM   35  C33 STQ G1621     -39.949 135.477   9.196  1.00 57.09    -0.062 C 
HETATM   36  C34 STQ G1621     -40.702 136.337   8.506  1.00 57.09     0.007 C 
HETATM   37  C35 STQ G1621     -41.621 137.268   9.149  1.00 57.09     0.001 C 
HETATM   38  C36 STQ G1621     -34.004 127.984   8.603  1.00 57.09     0.016 C 
HETATM   39  C37 STQ G1621     -35.531 127.986   6.651  1.00 57.09     0.016 C 
HETATM   40  C38 STQ G1621     -32.172 131.731   6.902  1.00 57.09     0.044 C 
HETATM   41  C39 STQ G1621     -35.839 132.493  10.048  1.00 57.09     0.048 C 
HETATM   42  C40 STQ G1621     -39.963 135.435  10.680  1.00 57.09     0.048 C 
HETATM   43  O23 STQ G1621     -30.938 127.385   5.439  1.00 57.09    -0.392 OA
ATOM     44  H23 STQ G1621     -30.026 127.615   5.579  1.00  0.00     0.210 HD
ENDROOT
TORSDOF 12
BEGIN_RES PHE A  61
REMARK  2 active torsions:
REMARK  status: ('A' for Active; 'I' for Inactive)
REMARK    1  A    between atoms: CA   and  CB  
REMARK    2  A    between atoms: CB   and  CG  
ROOT
ATOM      1  CA  PHE A  61     -36.237 128.293  12.768  1.00 39.40     0.164 C 
ENDROOT
BRANCH   1   2
ATOM      2  CB  PHE A  61     -36.813 128.951  11.509  1.00 39.41     0.058 C 
BRANCH   2   3
ATOM      3  CG  PHE A  61     -37.025 128.005  10.352  1.00 39.01    -0.020 A 
ATOM      4  CD2 PHE A  61     -36.277 126.844  10.235  1.00 40.32    -0.004 A 
ATOM      5  CE2 PHE A  61     -36.472 125.975   9.168  1.00 40.20    -0.000 A 
ATOM      6  CZ  PHE A  61     -37.417 126.256   8.209  1.00 40.34    -0.000 A 
ATOM      7  CE1 PHE A  61     -38.171 127.404   8.311  1.00 41.51    -0.000 A 
ATOM      8  CD1 PHE A  61     -37.972 128.276   9.374  1.00 39.94    -0.004 A 
ENDBRANCH   2   3
ENDBRANCH   1   2
END_RES PHE A  61
BEGIN_RES VAL A 134
REMARK  1 active torsions:
REMARK  status: ('A' for Active; 'I' for Inactive)
REMARK    3  A    between atoms: CA   and  CB  
ROOT
ATOM      9  CA  VAL A 134     -29.766 132.051   9.815  1.00 40.75     0.159 C 
ENDROOT
BRANCH   9  10
ATOM     10  CB  VAL A 134     -30.864 132.765   9.009  1.00 40.76     0.029 C 
ATOM     11  CG1 VAL A 134     -32.130 132.916   9.840  1.00 41.76     0.002 C 
ATOM     12  CG2 VAL A 134     -30.393 134.116   8.492  1.00 40.56     0.002 C 
ENDBRANCH   9  10
END_RES VAL A 134
BEGIN_RES TYR A 338
REMARK  3 active torsions:
REMARK  status: ('A' for Active; 'I' for Inactive)
REMARK    4  A    between atoms: CA   and  CB  
REMARK    5  A    between atoms: CB   and  CG  
REMARK    6  A    between atoms: CZ   and  OH  
ROOT
ATOM     13  CA  TYR A 338     -41.631 124.950   6.058  1.00 38.23     0.164 C 
ENDROOT
BRANCH  13  14
ATOM     14  CB  TYR A 338     -41.621 126.456   6.339  1.00 39.15     0.058 C 
BRANCH  14  15
ATOM     15  CG  TYR A 338     -40.414 127.210   5.831  1.00 39.03    -0.020 A 
ATOM     16  CD2 TYR A 338     -40.253 128.554   6.122  1.00 40.65    -0.002 A 
ATOM     17  CE2 TYR A 338     -39.167 129.281   5.660  1.00 40.91     0.024 A 
ATOM     18  CZ  TYR A 338     -38.207 128.660   4.883  1.00 42.33     0.089 A 
ATOM     19  CE1 TYR A 338     -38.343 127.316   4.582  1.00 40.63     0.024 A 
ATOM     20  CD1 TYR A 338     -39.443 126.611   5.043  1.00 39.27    -0.002 A 
BRANCH  18  21
ATOM     21  OH  TYR A 338     -37.129 129.365   4.425  1.00 43.36    -0.359 OA
ATOM     22  HH  TYR A 338     -36.278 128.949   4.353  1.00  0.00     0.217 HD
ENDBRANCH  18  21
ENDBRANCH  14  15
ENDBRANCH  13  14
END_RES TYR A 338
ENDMDL
MODEL 3
REMARK VINA RESULT:    -6.056      1.595      2.015
REMARK INTER + INTRA:          -9.143
REMARK INTER:                  -5.758
REMARK INTRA:                  -3.385
REMARK UNBOUND:                -3.087
REMARK  0 active torsions:
REMARK  status: ('A' for Active; 'I' for Inactive)
REMARK       I    between atoms: C3_3  and  O3_21 
REMARK       I    between atoms: C6_6  and  C7_7 
REMARK       I    between atoms: C8_8  and  C9_9 
REMARK       I    between atoms: C10_10  and  C11_11 
REMARK       I    between atoms: C12_12  and  C13_13 
REMARK       I    between atoms: C14_14  and  C15_15 
REMARK       I    between atoms: C23_25  and  O23_43 
REMARK       I    between atoms: C26_28  and  C27_29 
REMARK       I    between atoms: C28_30  and  C29_31 
REMARK       I    between atoms: C30_32  and  C31_33 
REMARK       I    between atoms: C32_34  and  C33_35 
REMARK       I    between atoms: C34_36  and  C35_37 
ROOT
HETATM    1  C1  STQ G1621     -34.650 128.451   6.281  1.00 57.09    -0.018 C 
HETATM    2  C2  STQ G1621     -33.791 128.121   5.068  1.00 57.09     0.045 C 
HETATM    3  C3  STQ G1621     -32.346 128.582   5.091  1.00 57.09     0.123 C 
HETATM    4  C4  STQ G1621     -31.773 128.466   6.486  1.00 57.09     0.066 C 
HETATM    5  C5  STQ G1621     -32.614 129.287   7.420  1.00 57.09    -0.074 C 
HETATM    6  C6  STQ G1621     -33.947 129.171   7.412  1.00 57.09    -0.048 C 
HETATM    7  C7  STQ G1621     -34.782 129.722   8.514  1.00 57.09     0.009 C 
HETATM    8  C8  STQ G1621     -35.117 131.015   8.567  1.00 57.09     0.007 C 
HETATM    9  C9  STQ G1621     -35.955 131.605   9.624  1.00 57.09    -0.062 C 
HETATM   10  C10 STQ G1621     -36.565 132.748   9.305  1.00 57.09     0.007 C 
HETATM   11  C11 STQ G1621     -37.469 133.521  10.147  1.00 57.09     0.001 C 
HETATM   12  C12 STQ G1621     -37.980 134.599   9.563  1.00 57.09     0.007 C 
HETATM   13  C13 STQ G1621     -38.946 135.508  10.198  1.00 57.09    -0.062 C 
HETATM   14  C14 STQ G1621     -39.318 136.613   9.538  1.00 57.09     0.007 C 
HETATM   15  C15 STQ G1621     -40.308 137.531  10.086  1.00 57.09     0.001 C 
HETATM   16  C16 STQ G1621     -35.255 127.142   6.766  1.00 57.09     0.020 C 
HETATM   17  C17 STQ G1621     -35.760 129.365   5.811  1.00 57.09     0.020 C 
HETATM   18  C18 STQ G1621     -31.848 129.698   8.642  1.00 57.09     0.044 C 
HETATM   19  C19 STQ G1621     -36.110 130.961  10.967  1.00 57.09     0.048 C 
HETATM   20  C20 STQ G1621     -39.531 135.167  11.532  1.00 57.09     0.048 C 
HETATM   21  O3  STQ G1621     -31.604 127.729   4.217  1.00 57.09    -0.395 OA
ATOM     22  H3  STQ G1621     -31.964 127.803   3.341  1.00  0.00     0.210 HD
HETATM   23  C21 STQ G1621     -48.572 147.293  10.512  1.00 57.09    -0.035 C 
HETATM   24  C22 STQ G1621     -49.582 148.135  11.273  1.00 57.09     0.045 C 
HETATM   25  C23 STQ G1621     -49.001 149.399  11.877  1.00 57.09     0.142 C 
HETATM   26  C24 STQ G1621     -47.701 149.113  12.580  1.00 57.09     0.007 C 
HETATM   27  C25 STQ G1621     -46.936 148.051  12.299  1.00 57.09    -0.077 C 
HETATM   28  C26 STQ G1621     -47.371 146.937  11.389  1.00 57.09     0.044 C 
HETATM   29  C27 STQ G1621     -46.189 146.467  10.567  1.00 57.09    -0.016 C 
HETATM   30  C28 STQ G1621     -45.840 145.190  10.651  1.00 57.09     0.003 C 
HETATM   31  C29 STQ G1621     -44.714 144.615   9.903  1.00 57.09    -0.062 C 
HETATM   32  C30 STQ G1621     -44.596 143.286   9.934  1.00 57.09     0.007 C 
HETATM   33  C31 STQ G1621     -43.540 142.553   9.254  1.00 57.09     0.001 C 
HETATM   34  C32 STQ G1621     -43.104 141.460   9.865  1.00 57.09     0.007 C 
HETATM   35  C33 STQ G1621     -42.049 140.618   9.300  1.00 57.09    -0.062 C 
HETATM   36  C34 STQ G1621     -41.738 139.458   9.883  1.00 57.09     0.007 C 
HETATM   37  C35 STQ G1621     -40.714 138.564   9.357  1.00 57.09     0.001 C 
HETATM   38  C36 STQ G1621     -48.146 148.012   9.235  1.00 57.09     0.016 C 
HETATM   39  C37 STQ G1621     -49.287 146.006  10.135  1.00 57.09     0.016 C 
HETATM   40  C38 STQ G1621     -45.593 147.962  12.945  1.00 57.09     0.044 C 
HETATM   41  C39 STQ G1621     -43.745 145.479   9.159  1.00 57.09     0.048 C 
HETATM   42  C40 STQ G1621     -41.340 141.104   8.089  1.00 57.09     0.048 C 
HETATM   43  O23 STQ G1621     -49.926 149.902  12.844  1.00 57.09    -0.392 OA
ATOM     44  H23 STQ G1621     -49.562 150.694  13.222  1.00  0.00     0.210 HD
ENDROOT
TORSDOF 12
BEGIN_RES PHE A  61
REMARK  2 active torsions:
REMARK  status: ('A' for Active; 'I' for Inactive)
REMARK    1  A    between atoms: CA   and  CB  
REMARK    2  A    between atoms: CB   and  CG  
ROOT
ATOM      1  CA  PHE A  61     -36.237 128.293  12.768  1.00 39.40     0.164 C 
ENDROOT
BRANCH   1   2
ATOM      2  CB  PHE A  61     -36.813 128.951  11.509  1.00 39.41     0.058 C 
BRANCH   2   3
ATOM      3  CG  PHE A  61     -36.989 128.012  10.339  1.00 39.01    -0.020 A 
ATOM      4  CD2 PHE A  61     -36.150 126.922  10.169  1.00 40.32    -0.004 A 
ATOM      5  CE2 PHE A  61     -36.312 126.062   9.090  1.00 40.20    -0.000 A 
ATOM      6  CZ  PHE A  61     -37.315 126.278   8.173  1.00 40.34    -0.000 A 
ATOM      7  CE1 PHE A  61     -38.158 127.356   8.330  1.00 41.51    -0.000 A 
ATOM      8  CD1 PHE A  61     -37.993 128.221   9.404  1.00 39.94    -0.004 A 
ENDBRANCH   2   3
ENDBRANCH   1   2
END_RES PHE A  61
BEGIN_RES VAL A 134
REMARK  1 active torsions:
REMARK  status: ('A' for Active; 'I' for Inactive)
REMARK    3  A    between atoms: CA   and  CB  
ROOT
ATOM      9  CA  VAL A 134     -29.766 132.051   9.815  1.00 40.75     0.159 C 
ENDROOT
BRANCH   9  10
ATOM     10  CB  VAL A 134     -30.864 132.765   9.009  1.00 40.76     0.029 C 
ATOM     11  CG1 VAL A 134     -30.969 132.181   7.608  1.00 41.76     0.002 C 
ATOM     12  CG2 VAL A 134     -32.208 132.710   9.720  1.00 40.56     0.002 C 
ENDBRANCH   9  10
END_RES VAL A 134
BEGIN_RES TYR A 338
REMARK  3 active torsions:
REMARK  status: ('A' for Active; 'I' for Inactive)
REMARK    4  A    between atoms: CA   and  CB  
REMARK    5  A    between atoms: CB   and  CG  
REMARK    6  A    between atoms: CZ   and  OH  
ROOT
ATOM     13  CA  TYR A 338     -41.631 124.950   6.058  1.00 38.23     0.164 C 
ENDROOT
BRANCH  13  14
ATOM     14  CB  TYR A 338     -41.621 126.456   6.339  1.00 39.15     0.058 C 
BRANCH  14  15
ATOM     15  CG  TYR A 338     -40.436 127.218   5.791  1.00 39.03    -0.020 A 
ATOM     16  CD2 TYR A 338     -40.285 128.567   6.062  1.00 40.65    -0.002 A 
ATOM     17  CE2 TYR A 338     -39.219 129.300   5.563  1.00 40.91     0.024 A 
ATOM     18  CZ  TYR A 338     -38.272 128.681   4.769  1.00 42.33     0.089 A 
ATOM     19  CE1 TYR A 338     -38.399 127.332   4.488  1.00 40.63     0.024 A 
ATOM     20  CD1 TYR A 338     -39.479 126.620   4.986  1.00 39.27    -0.002 A 
BRANCH  18  21
ATOM     21  OH  TYR A 338     -37.215 129.393   4.275  1.00 43.36    -0.359 OA
ATOM     22  HH  TYR A 338     -36.931 129.271   3.377  1.00  0.00     0.217 HD
ENDBRANCH  18  21
ENDBRANCH  14  15
ENDBRANCH  13  14
END_RES TYR A 338
ENDMDL
