MODEL 1
REMARK VINA RESULT:    -5.932      0.000      0.000
REMARK INTER + INTRA:         -10.736
REMARK INTER:                  -5.932
REMARK INTRA:                  -4.804
REMARK UNBOUND:                -4.804
REMARK  0 active torsions:
REMARK  status: ('A' for Active; 'I' for Inactive)
REMARK       I    between atoms: C3_3  and  O3_21 
REMARK       I    between atoms: C6_6  and  C7_7 
REMARK       I    between atoms: C8_8  and  C9_9 
REMARK       I    between atoms: C10_10  and  C11_11 
REMARK       I    between atoms: C12_12  and  C13_13 
REMARK       I    between atoms: C14_14  and  C15_15 
REMARK       I    between atoms: C23_25  and  O23_43 
REMARK       I    between atoms: C26_28  and  C27_29 
REMARK       I    between atoms: C28_30  and  C29_31 
REMARK       I    between atoms: C30_32  and  C31_33 
REMARK       I    between atoms: C32_34  and  C33_35 
REMARK       I    between atoms: C34_36  and  C35_37 
ROOT
HETATM    1  C1  STQ Y1621     -34.650 127.091   5.329  1.00 37.60    -0.018 C 
HETATM    2  C2  STQ Y1621     -34.108 126.313   4.142  1.00 37.60     0.045 C 
HETATM    3  C3  STQ Y1621     -32.846 126.854   3.510  1.00 37.60     0.123 C 
HETATM    4  C4  STQ Y1621     -31.819 127.107   4.582  1.00 37.60     0.066 C 
HETATM    5  C5  STQ Y1621     -32.347 127.963   5.691  1.00 37.60    -0.074 C 
HETATM    6  C6  STQ Y1621     -33.626 127.907   6.092  1.00 37.60    -0.048 C 
HETATM    7  C7  STQ Y1621     -34.078 128.603   7.327  1.00 37.60     0.009 C 
HETATM    8  C8  STQ Y1621     -34.394 129.902   7.369  1.00 37.60     0.007 C 
HETATM    9  C9  STQ Y1621     -34.849 130.560   8.595  1.00 37.60    -0.062 C 
HETATM   10  C10 STQ Y1621     -35.614 131.639   8.439  1.00 37.60     0.007 C 
HETATM   11  C11 STQ Y1621     -36.185 132.423   9.521  1.00 37.60     0.001 C 
HETATM   12  C12 STQ Y1621     -37.006 133.367   9.091  1.00 37.60     0.007 C 
HETATM   13  C13 STQ Y1621     -37.764 134.303   9.924  1.00 37.60    -0.062 C 
HETATM   14  C14 STQ Y1621     -38.428 135.285   9.310  1.00 37.60     0.007 C 
HETATM   15  C15 STQ Y1621     -39.231 136.224  10.075  1.00 37.60     0.001 C 
HETATM   16  C16 STQ Y1621     -35.369 126.075   6.202  1.00 37.60     0.020 C 
HETATM   17  C17 STQ Y1621     -35.674 128.082   4.825  1.00 37.60     0.020 C 
HETATM   18  C18 STQ Y1621     -31.264 128.610   6.499  1.00 37.60     0.044 C 
HETATM   19  C19 STQ Y1621     -34.469 130.045   9.943  1.00 37.60     0.048 C 
HETATM   20  C20 STQ Y1621     -37.813 134.149  11.410  1.00 37.60     0.048 C 
HETATM   21  O3  STQ Y1621     -32.314 125.850   2.648  1.00 37.60    -0.395 OA
ATOM     22  H3  STQ Y1621     -32.962 125.690   1.972  1.00  0.00     0.210 HD
HETATM   23  C21 STQ Y1621     -47.260 145.766  12.594  1.00 37.60    -0.035 C 
HETATM   24  C22 STQ Y1621     -48.013 146.654  13.566  1.00 37.60     0.045 C 
HETATM   25  C23 STQ Y1621     -47.304 147.972  13.807  1.00 37.60     0.142 C 
HETATM   26  C24 STQ Y1621     -45.865 147.724  14.179  1.00 37.60     0.007 C 
HETATM   27  C25 STQ Y1621     -45.183 146.661  13.735  1.00 37.60    -0.077 C 
HETATM   28  C26 STQ Y1621     -45.846 145.474  13.096  1.00 37.60     0.044 C 
HETATM   29  C27 STQ Y1621     -44.973 144.952  11.978  1.00 37.60    -0.016 C 
HETATM   30  C28 STQ Y1621     -44.549 143.697  12.013  1.00 37.60     0.003 C 
HETATM   31  C29 STQ Y1621     -43.701 143.144  10.952  1.00 37.60    -0.062 C 
HETATM   32  C30 STQ Y1621     -43.525 141.826  10.955  1.00 37.60     0.007 C 
HETATM   33  C31 STQ Y1621     -42.721 141.096   9.993  1.00 37.60     0.001 C 
HETATM   34  C32 STQ Y1621     -42.065 140.067  10.501  1.00 37.60     0.007 C 
HETATM   35  C33 STQ Y1621     -41.212 139.200   9.688  1.00 37.60    -0.062 C 
HETATM   36  C34 STQ Y1621     -40.566 138.195  10.277  1.00 37.60     0.007 C 
HETATM   37  C35 STQ Y1621     -39.734 137.297   9.492  1.00 37.60     0.001 C 
HETATM   38  C36 STQ Y1621     -47.270 146.397  11.205  1.00 37.60     0.016 C 
HETATM   39  C37 STQ Y1621     -48.009 144.449  12.524  1.00 37.60     0.016 C 
HETATM   40  C38 STQ Y1621     -43.699 146.632  13.907  1.00 37.60     0.044 C 
HETATM   41  C39 STQ Y1621     -43.070 144.031   9.929  1.00 37.60     0.048 C 
HETATM   42  C40 STQ Y1621     -41.099 139.438   8.221  1.00 37.60     0.048 C 
HETATM   43  O23 STQ Y1621     -47.969 148.629  14.887  1.00 37.60    -0.392 OA
ATOM     44  H23 STQ Y1621     -47.525 149.456  15.037  1.00  0.00     0.210 HD
ENDROOT
TORSDOF 12
BEGIN_RES PHE A  61
REMARK  2 active torsions:
REMARK  status: ('A' for Active; 'I' for Inactive)
REMARK    1  A    between atoms: CA   and  CB  
REMARK    2  A    between atoms: CB   and  CG  
ROOT
ATOM      1  CA  PHE A  61     -36.237 128.293  12.768  1.00 39.40     0.164 C 
ENDROOT
BRANCH   1   2
ATOM      2  CB  PHE A  61     -36.813 128.951  11.509  1.00 39.41     0.058 C 
BRANCH   2   3
ATOM      3  CG  PHE A  61     -36.881 128.042  10.305  1.00 39.01    -0.020 A 
ATOM      4  CD2 PHE A  61     -35.967 127.014  10.137  1.00 40.32    -0.004 A 
ATOM      5  CE2 PHE A  61     -36.028 126.180   9.028  1.00 40.20    -0.000 A 
ATOM      6  CZ  PHE A  61     -37.006 126.363   8.076  1.00 40.34    -0.000 A 
ATOM      7  CE1 PHE A  61     -37.923 127.378   8.229  1.00 41.51    -0.000 A 
ATOM      8  CD1 PHE A  61     -37.858 128.216   9.335  1.00 39.94    -0.004 A 
ENDBRANCH   2   3
ENDBRANCH   1   2
END_RES PHE A  61
BEGIN_RES VAL A 134
REMARK  1 active torsions:
REMARK  status: ('A' for Active; 'I' for Inactive)
REMARK    3  A    between atoms: CA   and  CB  
ROOT
ATOM      9  CA  VAL A 134     -29.766 132.051   9.815  1.00 40.75     0.159 C 
ENDROOT
BRANCH   9  10
ATOM     10  CB  VAL A 134     -30.864 132.765   9.009  1.00 40.76     0.029 C 
ATOM     11  CG1 VAL A 134     -31.179 131.999   7.733  1.00 41.76     0.002 C 
ATOM     12  CG2 VAL A 134     -32.122 132.975   9.838  1.00 40.56     0.002 C 
ENDBRANCH   9  10
END_RES VAL A 134
BEGIN_RES TYR A 338
REMARK  3 active torsions:
REMARK  status: ('A' for Active; 'I' for Inactive)
REMARK    4  A    between atoms: CA   and  CB  
REMARK    5  A    between atoms: CB   and  CG  
REMARK    6  A    between atoms: CZ   and  OH  
ROOT
ATOM     13  CA  TYR A 338     -41.631 124.950   6.058  1.00 38.23     0.164 C 
ENDROOT
BRANCH  13  14
ATOM     14  CB  TYR A 338     -41.621 126.456   6.339  1.00 39.15     0.058 C 
BRANCH  14  15
ATOM     15  CG  TYR A 338     -40.425 127.214   5.810  1.00 39.03    -0.020 A 
ATOM     16  CD2 TYR A 338     -40.246 128.550   6.127  1.00 40.65    -0.002 A 
ATOM     17  CE2 TYR A 338     -39.170 129.280   5.647  1.00 40.91     0.024 A 
ATOM     18  CZ  TYR A 338     -38.240 128.672   4.825  1.00 42.33     0.089 A 
ATOM     19  CE1 TYR A 338     -38.395 127.336   4.497  1.00 40.63     0.024 A 
ATOM     20  CD1 TYR A 338     -39.485 126.627   4.977  1.00 39.27    -0.002 A 
BRANCH  18  21
ATOM     21  OH  TYR A 338     -37.173 129.381   4.349  1.00 43.36    -0.359 OA
ATOM     22  HH  TYR A 338     -36.942 129.342   3.428  1.00  0.00     0.217 HD
ENDBRANCH  18  21
ENDBRANCH  14  15
ENDBRANCH  13  14
END_RES TYR A 338
ENDMDL
MODEL 2
REMARK VINA RESULT:    -5.253      1.691      2.029
REMARK INTER + INTRA:         -10.057
REMARK INTER:                  -5.064
REMARK INTRA:                  -4.993
REMARK UNBOUND:                -4.804
REMARK  0 active torsions:
REMARK  status: ('A' for Active; 'I' for Inactive)
REMARK       I    between atoms: C3_3  and  O3_21 
REMARK       I    between atoms: C6_6  and  C7_7 
REMARK       I    between atoms: C8_8  and  C9_9 
REMARK       I    between atoms: C10_10  and  C11_11 
REMARK       I    between atoms: C12_12  and  C13_13 
REMARK       I    between atoms: C14_14  and  C15_15 
REMARK       I    between atoms: C23_25  and  O23_43 
REMARK       I    between atoms: C26_28  and  C27_29 
REMARK       I    between atoms: C28_30  and  C29_31 
REMARK       I    between atoms: C30_32  and  C31_33 
REMARK       I    between atoms: C32_34  and  C33_35 
REMARK       I    between atoms: C34_36  and  C35_37 
ROOT
HETATM    1  C1  STQ Y1621     -34.531 126.998   5.405  1.00 37.60    -0.018 C 
HETATM    2  C2  STQ Y1621     -33.861 126.190   4.307  1.00 37.60     0.045 C 
HETATM    3  C3  STQ Y1621     -32.688 126.847   3.617  1.00 37.60     0.123 C 
HETATM    4  C4  STQ Y1621     -31.726 127.366   4.652  1.00 37.60     0.066 C 
HETATM    5  C5  STQ Y1621     -32.393 128.245   5.665  1.00 37.60    -0.074 C 
HETATM    6  C6  STQ Y1621     -33.653 128.037   6.073  1.00 37.60    -0.048 C 
HETATM    7  C7  STQ Y1621     -34.223 128.784   7.228  1.00 37.60     0.009 C 
HETATM    8  C8  STQ Y1621     -34.733 130.016   7.131  1.00 37.60     0.007 C 
HETATM    9  C9  STQ Y1621     -35.300 130.723   8.281  1.00 37.60    -0.062 C 
HETATM   10  C10 STQ Y1621     -36.218 131.650   8.013  1.00 37.60     0.007 C 
HETATM   11  C11 STQ Y1621     -36.915 132.448   9.006  1.00 37.60     0.001 C 
HETATM   12  C12 STQ Y1621     -37.865 133.205   8.480  1.00 37.60     0.007 C 
HETATM   13  C13 STQ Y1621     -38.768 134.098   9.209  1.00 37.60    -0.062 C 
HETATM   14  C14 STQ Y1621     -39.565 134.896   8.496  1.00 37.60     0.007 C 
HETATM   15  C15 STQ Y1621     -40.512 135.777   9.158  1.00 37.60     0.001 C 
HETATM   16  C16 STQ Y1621     -35.099 125.983   6.385  1.00 37.60     0.020 C 
HETATM   17  C17 STQ Y1621     -35.686 127.761   4.801  1.00 37.60     0.020 C 
HETATM   18  C18 STQ Y1621     -31.432 129.132   6.396  1.00 37.60     0.044 C 
HETATM   19  C19 STQ Y1621     -34.864 130.419   9.675  1.00 37.60     0.048 C 
HETATM   20  C20 STQ Y1621     -38.813 134.097  10.704  1.00 37.60     0.048 C 
HETATM   21  O3  STQ Y1621     -31.998 125.850   2.866  1.00 37.60    -0.395 OA
ATOM     22  H3  STQ Y1621     -32.604 125.523   2.213  1.00  0.00     0.210 HD
HETATM   23  C21 STQ Y1621     -49.932 144.195  10.663  1.00 37.60    -0.035 C 
HETATM   24  C22 STQ Y1621     -50.824 145.056  11.537  1.00 37.60     0.045 C 
HETATM   25  C23 STQ Y1621     -50.328 146.485  11.633  1.00 37.60     0.142 C 
HETATM   26  C24 STQ Y1621     -48.872 146.500  12.025  1.00 37.60     0.007 C 
HETATM   27  C25 STQ Y1621     -48.031 145.513  11.695  1.00 37.60    -0.077 C 
HETATM   28  C26 STQ Y1621     -48.497 144.177  11.189  1.00 37.60     0.044 C 
HETATM   29  C27 STQ Y1621     -47.539 143.678  10.131  1.00 37.60    -0.016 C 
HETATM   30  C28 STQ Y1621     -46.930 142.514  10.299  1.00 37.60     0.003 C 
HETATM   31  C29 STQ Y1621     -45.993 141.988   9.301  1.00 37.60    -0.062 C 
HETATM   32  C30 STQ Y1621     -45.619 140.719   9.445  1.00 37.60     0.007 C 
HETATM   33  C31 STQ Y1621     -44.701 140.022   8.564  1.00 37.60     0.001 C 
HETATM   34  C32 STQ Y1621     -43.902 139.166   9.178  1.00 37.60     0.007 C 
HETATM   35  C33 STQ Y1621     -42.917 138.357   8.461  1.00 37.60    -0.062 C 
HETATM   36  C34 STQ Y1621     -42.133 137.531   9.152  1.00 37.60     0.007 C 
HETATM   37  C35 STQ Y1621     -41.164 136.692   8.465  1.00 37.60     0.001 C 
HETATM   38  C36 STQ Y1621     -50.019 144.665   9.214  1.00 37.60     0.016 C 
HETATM   39  C37 STQ Y1621     -50.470 142.779  10.737  1.00 37.60     0.016 C 
HETATM   40  C38 STQ Y1621     -46.562 145.729  11.865  1.00 37.60     0.044 C 
HETATM   41  C39 STQ Y1621     -45.491 142.846   8.187  1.00 37.60     0.048 C 
HETATM   42  C40 STQ Y1621     -42.822 138.453   6.975  1.00 37.60     0.048 C 
HETATM   43  O23 STQ Y1621     -51.099 147.144  12.637  1.00 37.60    -0.392 OA
ATOM     44  H23 STQ Y1621     -50.788 148.039  12.697  1.00  0.00     0.210 HD
ENDROOT
TORSDOF 12
BEGIN_RES PHE A  61
REMARK  2 active torsions:
REMARK  status: ('A' for Active; 'I' for Inactive)
REMARK    1  A    between atoms: CA   and  CB  
REMARK    2  A    between atoms: CB   and  CG  
ROOT
ATOM      1  CA  PHE A  61     -36.237 128.293  12.768  1.00 39.40     0.164 C 
ENDROOT
BRANCH   1   2
ATOM      2  CB  PHE A  61     -36.813 128.951  11.509  1.00 39.41     0.058 C 
BRANCH   2   3
ATOM      3  CG  PHE A  61     -36.872 128.045  10.303  1.00 39.01    -0.020 A 
ATOM      4  CD2 PHE A  61     -35.925 127.051  10.112  1.00 40.32    -0.004 A 
ATOM      5  CE2 PHE A  61     -35.979 126.220   9.000  1.00 40.20    -0.000 A 
ATOM      6  CZ  PHE A  61     -36.982 126.370   8.069  1.00 40.34    -0.000 A 
ATOM      7  CE1 PHE A  61     -37.932 127.352   8.245  1.00 41.51    -0.000 A 
ATOM      8  CD1 PHE A  61     -37.874 128.187   9.353  1.00 39.94    -0.004 A 
ENDBRANCH   2   3
ENDBRANCH   1   2
END_RES PHE A  61
BEGIN_RES VAL A 134
REMARK  1 active torsions:
REMARK  status: ('A' for Active; 'I' for Inactive)
REMARK    3  A    between atoms: CA   and  CB  
ROOT
ATOM      9  CA  VAL A 134     -29.766 132.051   9.815  1.00 40.75     0.159 C 
ENDROOT
BRANCH   9  10
ATOM     10  CB  VAL A 134     -30.864 132.765   9.009  1.00 40.76     0.029 C 
ATOM     11  CG1 VAL A 134     -31.179 131.999   7.732  1.00 41.76     0.002 C 
ATOM     12  CG2 VAL A 134     -32.122 132.975   9.838  1.00 40.56     0.002 C 
ENDBRANCH   9  10
END_RES VAL A 134
BEGIN_RES TYR A 338
REMARK  3 active torsions:
REMARK  status: ('A' for Active; 'I' for Inactive)
REMARK    4  A    between atoms: CA   and  CB  
REMARK    5  A    between atoms: CB   and  CG  
REMARK    6  A    between atoms: CZ   and  OH  
ROOT
ATOM     13  CA  TYR A 338     -41.631 124.950   6.058  1.00 38.23     0.164 C 
ENDROOT
BRANCH  13  14
ATOM     14  CB  TYR A 338     -41.621 126.456   6.339  1.00 39.15     0.058 C 
BRANCH  14  15
ATOM     15  CG  TYR A 338     -40.423 127.213   5.814  1.00 39.03    -0.020 A 
ATOM     16  CD2 TYR A 338     -40.242 128.548   6.136  1.00 40.65    -0.002 A 
ATOM     17  CE2 TYR A 338     -39.163 129.277   5.659  1.00 40.91     0.024 A 
ATOM     18  CZ  TYR A 338     -38.233 128.670   4.837  1.00 42.33     0.089 A 
ATOM     19  CE1 TYR A 338     -38.390 127.335   4.505  1.00 40.63     0.024 A 
ATOM     20  CD1 TYR A 338     -39.483 126.627   4.981  1.00 39.27    -0.002 A 
BRANCH  18  21
ATOM     21  OH  TYR A 338     -37.164 129.378   4.365  1.00 43.36    -0.359 OA
ATOM     22  HH  TYR A 338     -36.982 129.410   3.433  1.00  0.00     0.217 HD
ENDBRANCH  18  21
ENDBRANCH  14  15
ENDBRANCH  13  14
END_RES TYR A 338
ENDMDL
MODEL 3
REMARK VINA RESULT:    -4.275      2.149     16.804
REMARK INTER + INTRA:          -9.080
REMARK INTER:                  -8.648
REMARK INTRA:                  -0.432
REMARK UNBOUND:                -4.804
REMARK  0 active torsions:
REMARK  status: ('A' for Active; 'I' for Inactive)
REMARK       I    between atoms: C3_3  and  O3_21 
REMARK       I    between atoms: C6_6  and  C7_7 
REMARK       I    between atoms: C8_8  and  C9_9 
REMARK       I    between atoms: C10_10  and  C11_11 
REMARK       I    between atoms: C12_12  and  C13_13 
REMARK       I    between atoms: C14_14  and  C15_15 
REMARK       I    between atoms: C23_25  and  O23_43 
REMARK       I    between atoms: C26_28  and  C27_29 
REMARK       I    between atoms: C28_30  and  C29_31 
REMARK       I    between atoms: C30_32  and  C31_33 
REMARK       I    between atoms: C32_34  and  C33_35 
REMARK       I    between atoms: C34_36  and  C35_37 
ROOT
HETATM    1  C1  STQ Y1621     -51.099 144.474  11.363  1.00 37.60    -0.018 C 
HETATM    2  C2  STQ Y1621     -52.074 145.052  12.375  1.00 37.60     0.045 C 
HETATM    3  C3  STQ Y1621     -51.502 146.045  13.360  1.00 37.60     0.123 C 
HETATM    4  C4  STQ Y1621     -50.720 147.094  12.615  1.00 37.60     0.066 C 
HETATM    5  C5  STQ Y1621     -49.693 146.501  11.699  1.00 37.60    -0.074 C 
HETATM    6  C6  STQ Y1621     -49.891 145.338  11.062  1.00 37.60    -0.048 C 
HETATM    7  C7  STQ Y1621     -48.958 144.873   9.999  1.00 37.60     0.009 C 
HETATM    8  C8  STQ Y1621     -47.807 144.241  10.252  1.00 37.60     0.007 C 
HETATM    9  C9  STQ Y1621     -46.913 143.782   9.187  1.00 37.60    -0.062 C 
HETATM   10  C10 STQ Y1621     -46.122 142.752   9.480  1.00 37.60     0.007 C 
HETATM   11  C11 STQ Y1621     -45.180 142.133   8.563  1.00 37.60     0.001 C 
HETATM   12  C12 STQ Y1621     -44.611 141.051   9.068  1.00 37.60     0.007 C 
HETATM   13  C13 STQ Y1621     -43.644 140.182   8.392  1.00 37.60    -0.062 C 
HETATM   14  C14 STQ Y1621     -43.064 139.219   9.109  1.00 37.60     0.007 C 
HETATM   15  C15 STQ Y1621     -42.126 138.299   8.489  1.00 37.60     0.001 C 
HETATM   16  C16 STQ Y1621     -51.922 144.152  10.126  1.00 37.60     0.020 C 
HETATM   17  C17 STQ Y1621     -50.552 143.177  11.911  1.00 37.60     0.020 C 
HETATM   18  C18 STQ Y1621     -48.615 147.469  11.321  1.00 37.60     0.044 C 
HETATM   19  C19 STQ Y1621     -46.893 144.442   7.848  1.00 37.60     0.048 C 
HETATM   20  C20 STQ Y1621     -43.337 140.354   6.938  1.00 37.60     0.048 C 
HETATM   21  O3  STQ Y1621     -52.588 146.711  14.002  1.00 37.60    -0.395 OA
ATOM     22  H3  STQ Y1621     -53.082 146.050  14.472  1.00  0.00     0.210 HD
HETATM   23  C21 STQ Y1621     -34.188 128.445   7.167  1.00 37.60    -0.035 C 
HETATM   24  C22 STQ Y1621     -33.222 127.611   6.346  1.00 37.60     0.045 C 
HETATM   25  C23 STQ Y1621     -31.776 127.979   6.612  1.00 37.60     0.142 C 
HETATM   26  C24 STQ Y1621     -31.588 129.468   6.470  1.00 37.60     0.007 C 
HETATM   27  C25 STQ Y1621     -32.568 130.342   6.731  1.00 37.60    -0.077 C 
HETATM   28  C26 STQ Y1621     -34.006 129.936   6.885  1.00 37.60     0.044 C 
HETATM   29  C27 STQ Y1621     -34.652 130.773   7.964  1.00 37.60    -0.016 C 
HETATM   30  C28 STQ Y1621     -35.716 131.507   7.672  1.00 37.60     0.003 C 
HETATM   31  C29 STQ Y1621     -36.378 132.335   8.685  1.00 37.60    -0.062 C 
HETATM   32  C30 STQ Y1621     -37.563 132.844   8.358  1.00 37.60     0.007 C 
HETATM   33  C31 STQ Y1621     -38.369 133.687   9.221  1.00 37.60     0.001 C 
HETATM   34  C32 STQ Y1621     -39.027 134.643   8.588  1.00 37.60     0.007 C 
HETATM   35  C33 STQ Y1621     -39.903 135.586   9.282  1.00 37.60    -0.062 C 
HETATM   36  C34 STQ Y1621     -40.517 136.536   8.578  1.00 37.60     0.007 C 
HETATM   37  C35 STQ Y1621     -41.417 137.470   9.234  1.00 37.60     0.001 C 
HETATM   38  C36 STQ Y1621     -34.036 128.105   8.646  1.00 37.60     0.016 C 
HETATM   39  C37 STQ Y1621     -35.589 128.058   6.732  1.00 37.60     0.016 C 
HETATM   40  C38 STQ Y1621     -32.229 131.793   6.845  1.00 37.60     0.044 C 
HETATM   41  C39 STQ Y1621     -35.740 132.588  10.011  1.00 37.60     0.048 C 
HETATM   42  C40 STQ Y1621     -40.113 135.456  10.753  1.00 37.60     0.048 C 
HETATM   43  O23 STQ Y1621     -30.973 127.303   5.646  1.00 37.60    -0.392 OA
ATOM     44  H23 STQ Y1621     -30.066 127.533   5.813  1.00  0.00     0.210 HD
ENDROOT
TORSDOF 12
BEGIN_RES PHE A  61
REMARK  2 active torsions:
REMARK  status: ('A' for Active; 'I' for Inactive)
REMARK    1  A    between atoms: CA   and  CB  
REMARK    2  A    between atoms: CB   and  CG  
ROOT
ATOM      1  CA  PHE A  61     -36.237 128.293  12.768  1.00 39.40     0.164 C 
ENDROOT
BRANCH   1   2
ATOM      2  CB  PHE A  61     -36.813 128.951  11.509  1.00 39.41     0.058 C 
BRANCH   2   3
ATOM      3  CG  PHE A  61     -37.030 128.004  10.353  1.00 39.01    -0.020 A 
ATOM      4  CD2 PHE A  61     -36.286 126.840  10.237  1.00 40.32    -0.004 A 
ATOM      5  CE2 PHE A  61     -36.484 125.971   9.172  1.00 40.20    -0.000 A 
ATOM      6  CZ  PHE A  61     -37.430 126.253   8.213  1.00 40.34    -0.000 A 
ATOM      7  CE1 PHE A  61     -38.180 127.404   8.315  1.00 41.51    -0.000 A 
ATOM      8  CD1 PHE A  61     -37.977 128.277   9.377  1.00 39.94    -0.004 A 
ENDBRANCH   2   3
ENDBRANCH   1   2
END_RES PHE A  61
BEGIN_RES VAL A 134
REMARK  1 active torsions:
REMARK  status: ('A' for Active; 'I' for Inactive)
REMARK    3  A    between atoms: CA   and  CB  
ROOT
ATOM      9  CA  VAL A 134     -29.766 132.051   9.815  1.00 40.75     0.159 C 
ENDROOT
BRANCH   9  10
ATOM     10  CB  VAL A 134     -30.864 132.765   9.009  1.00 40.76     0.029 C 
ATOM     11  CG1 VAL A 134     -32.120 132.942   9.850  1.00 41.76     0.002 C 
ATOM     12  CG2 VAL A 134     -30.383 134.103   8.468  1.00 40.56     0.002 C 
ENDBRANCH   9  10
END_RES VAL A 134
BEGIN_RES TYR A 338
REMARK  3 active torsions:
REMARK  status: ('A' for Active; 'I' for Inactive)
REMARK    4  A    between atoms: CA   and  CB  
REMARK    5  A    between atoms: CB   and  CG  
REMARK    6  A    between atoms: CZ   and  OH  
ROOT
ATOM     13  CA  TYR A 338     -41.631 124.950   6.058  1.00 38.23     0.164 C 
ENDROOT
BRANCH  13  14
ATOM     14  CB  TYR A 338     -41.621 126.456   6.339  1.00 39.15     0.058 C 
BRANCH  14  15
ATOM     15  CG  TYR A 338     -40.413 127.210   5.832  1.00 39.03    -0.020 A 
ATOM     16  CD2 TYR A 338     -40.257 128.556   6.116  1.00 40.65    -0.002 A 
ATOM     17  CE2 TYR A 338     -39.170 129.282   5.654  1.00 40.91     0.024 A 
ATOM     18  CZ  TYR A 338     -38.206 128.659   4.885  1.00 42.33     0.089 A 
ATOM     19  CE1 TYR A 338     -38.337 127.314   4.591  1.00 40.63     0.024 A 
ATOM     20  CD1 TYR A 338     -39.438 126.608   5.051  1.00 39.27    -0.002 A 
BRANCH  18  21
ATOM     21  OH  TYR A 338     -37.128 129.365   4.428  1.00 43.36    -0.359 OA
ATOM     22  HH  TYR A 338     -36.774 130.085   4.936  1.00  0.00     0.217 HD
ENDBRANCH  18  21
ENDBRANCH  14  15
ENDBRANCH  13  14
END_RES TYR A 338
ENDMDL
