MODEL 1
REMARK VINA RESULT:    -6.474      0.000      0.000
REMARK INTER + INTRA:         -10.003
REMARK INTER:                  -6.474
REMARK INTRA:                  -3.529
REMARK UNBOUND:                -3.529
REMARK  0 active torsions:
REMARK  status: ('A' for Active; 'I' for Inactive)
REMARK       I    between atoms: C3_3  and  O3_21 
REMARK       I    between atoms: C6_6  and  C7_7 
REMARK       I    between atoms: C8_8  and  C9_9 
REMARK       I    between atoms: C10_10  and  C11_11 
REMARK       I    between atoms: C12_12  and  C13_13 
REMARK       I    between atoms: C14_14  and  C15_15 
REMARK       I    between atoms: C23_25  and  O23_43 
REMARK       I    between atoms: C26_28  and  C27_29 
REMARK       I    between atoms: C28_30  and  C29_31 
REMARK       I    between atoms: C30_32  and  C31_33 
REMARK       I    between atoms: C32_34  and  C33_35 
REMARK       I    between atoms: C34_36  and  C35_37 
ROOT
HETATM    1  C1  STQ B1621     -34.485 127.199   5.972  1.00 16.49    -0.018 C 
HETATM    2  C2  STQ B1621     -33.991 126.446   4.722  1.00 14.93     0.045 C 
HETATM    3  C3  STQ B1621     -32.759 126.946   3.973  1.00 15.86     0.123 C 
HETATM    4  C4  STQ B1621     -31.817 127.843   4.800  1.00 14.41     0.066 C 
HETATM    5  C5  STQ B1621     -32.328 128.569   6.014  1.00 15.44    -0.074 C 
HETATM    6  C6  STQ B1621     -33.552 128.289   6.592  1.00 14.73    -0.048 C 
HETATM    7  C7  STQ B1621     -34.069 128.951   7.814  1.00 14.04     0.009 C 
HETATM    8  C8  STQ B1621     -34.679 130.159   7.845  1.00 12.72     0.007 C 
HETATM    9  C9  STQ B1621     -35.170 130.916   9.000  1.00 12.70    -0.062 C 
HETATM   10  C10 STQ B1621     -35.868 132.048   8.750  1.00 13.26     0.007 C 
HETATM   11  C11 STQ B1621     -36.530 132.898   9.713  1.00 13.12     0.001 C 
HETATM   12  C12 STQ B1621     -37.257 133.973   9.323  1.00 12.34     0.007 C 
HETATM   13  C13 STQ B1621     -38.081 134.845  10.182  1.00 12.89    -0.062 C 
HETATM   14  C14 STQ B1621     -38.757 135.862   9.598  1.00 12.03     0.007 C 
HETATM   15  C15 STQ B1621     -39.656 136.797  10.243  1.00 13.59     0.001 C 
HETATM   16  C16 STQ B1621     -34.708 126.033   6.969  1.00 14.27     0.020 C 
HETATM   17  C17 STQ B1621     -35.858 127.825   5.615  1.00 12.26     0.020 C 
HETATM   18  C18 STQ B1621     -31.317 129.540   6.530  1.00 13.78     0.044 C 
HETATM   19  C19 STQ B1621     -34.929 130.347  10.368  1.00  8.79     0.048 C 
HETATM   20  C20 STQ B1621     -38.140 134.516  11.655  1.00  8.63     0.048 C 
HETATM   21  O3  STQ B1621     -32.045 125.850   3.419  1.00 14.46    -0.395 OA
ATOM     22  H3  STQ B1621     -31.278 126.161   2.953  1.00  0.00     0.210 HD
HETATM   23  C21 STQ B1621     -48.163 146.162  13.146  1.00 23.83    -0.035 C 
HETATM   24  C22 STQ B1621     -49.035 147.048  14.051  1.00 23.69     0.045 C 
HETATM   25  C23 STQ B1621     -48.466 148.422  14.402  1.00 23.55     0.142 C 
HETATM   26  C24 STQ B1621     -46.940 148.435  14.568  1.00 24.29     0.007 C 
HETATM   27  C25 STQ B1621     -46.155 147.396  14.190  1.00 24.98    -0.077 C 
HETATM   28  C26 STQ B1621     -46.660 146.092  13.569  1.00 23.38     0.044 C 
HETATM   29  C27 STQ B1621     -45.730 145.597  12.461  1.00 22.25    -0.016 C 
HETATM   30  C28 STQ B1621     -45.217 144.342  12.365  1.00 21.46     0.003 C 
HETATM   31  C29 STQ B1621     -44.486 143.777  11.215  1.00 21.33    -0.062 C 
HETATM   32  C30 STQ B1621     -43.996 142.521  11.310  1.00 19.38     0.007 C 
HETATM   33  C31 STQ B1621     -43.245 141.820  10.295  1.00 19.44     0.001 C 
HETATM   34  C32 STQ B1621     -42.622 140.643  10.572  1.00 17.56     0.007 C 
HETATM   35  C33 STQ B1621     -41.765 139.821   9.704  1.00 14.52    -0.062 C 
HETATM   36  C34 STQ B1621     -41.168 138.736  10.248  1.00 13.82     0.007 C 
HETATM   37  C35 STQ B1621     -40.256 137.813   9.594  1.00 15.60     0.001 C 
HETATM   38  C36 STQ B1621     -48.304 146.720  11.704  1.00 23.39     0.016 C 
HETATM   39  C37 STQ B1621     -48.779 144.753  13.161  1.00 21.57     0.016 C 
HETATM   40  C38 STQ B1621     -44.706 147.628  14.454  1.00 23.84     0.044 C 
HETATM   41  C39 STQ B1621     -44.260 144.667  10.034  1.00 21.43     0.048 C 
HETATM   42  C40 STQ B1621     -41.558 140.280   8.297  1.00 13.28     0.048 C 
HETATM   43  O23 STQ B1621     -49.104 148.917  15.570  1.00 25.61    -0.392 OA
ATOM     44  H23 STQ B1621     -50.049 148.909  15.467  1.00  0.00     0.210 HD
ENDROOT
TORSDOF 12
BEGIN_RES PHE A  61
REMARK  2 active torsions:
REMARK  status: ('A' for Active; 'I' for Inactive)
REMARK    1  A    between atoms: CA   and  CB  
REMARK    2  A    between atoms: CB   and  CG  
ROOT
ATOM      1  CA  PHE A  61     -36.237 128.293  12.768  1.00 39.40     0.164 C 
ENDROOT
BRANCH   1   2
ATOM      2  CB  PHE A  61     -36.813 128.951  11.509  1.00 39.41     0.058 C 
BRANCH   2   3
ATOM      3  CG  PHE A  61     -36.986 128.013  10.338  1.00 39.01    -0.020 A 
ATOM      4  CD2 PHE A  61     -36.167 126.905  10.187  1.00 40.32    -0.004 A 
ATOM      5  CE2 PHE A  61     -36.325 126.045   9.108  1.00 40.20    -0.000 A 
ATOM      6  CZ  PHE A  61     -37.305 126.281   8.170  1.00 40.34    -0.000 A 
ATOM      7  CE1 PHE A  61     -38.128 127.376   8.307  1.00 41.51    -0.000 A 
ATOM      8  CD1 PHE A  61     -37.966 128.240   9.382  1.00 39.94    -0.004 A 
ENDBRANCH   2   3
ENDBRANCH   1   2
END_RES PHE A  61
BEGIN_RES VAL A 134
REMARK  1 active torsions:
REMARK  status: ('A' for Active; 'I' for Inactive)
REMARK    3  A    between atoms: CA   and  CB  
ROOT
ATOM      9  CA  VAL A 134     -29.766 132.051   9.815  1.00 40.75     0.159 C 
ENDROOT
BRANCH   9  10
ATOM     10  CB  VAL A 134     -30.864 132.765   9.009  1.00 40.76     0.029 C 
ATOM     11  CG1 VAL A 134     -31.176 132.001   7.730  1.00 41.76     0.002 C 
ATOM     12  CG2 VAL A 134     -32.124 132.971   9.836  1.00 40.56     0.002 C 
ENDBRANCH   9  10
END_RES VAL A 134
BEGIN_RES TYR A 338
REMARK  3 active torsions:
REMARK  status: ('A' for Active; 'I' for Inactive)
REMARK    4  A    between atoms: CA   and  CB  
REMARK    5  A    between atoms: CB   and  CG  
REMARK    6  A    between atoms: CZ   and  OH  
ROOT
ATOM     13  CA  TYR A 338     -41.631 124.950   6.058  1.00 38.23     0.164 C 
ENDROOT
BRANCH  13  14
ATOM     14  CB  TYR A 338     -41.621 126.456   6.339  1.00 39.15     0.058 C 
BRANCH  14  15
ATOM     15  CG  TYR A 338     -40.434 127.217   5.794  1.00 39.03    -0.020 A 
ATOM     16  CD2 TYR A 338     -40.245 128.549   6.122  1.00 40.65    -0.002 A 
ATOM     17  CE2 TYR A 338     -39.177 129.282   5.628  1.00 40.91     0.024 A 
ATOM     18  CZ  TYR A 338     -38.266 128.680   4.781  1.00 42.33     0.089 A 
ATOM     19  CE1 TYR A 338     -38.431 127.349   4.442  1.00 40.63     0.024 A 
ATOM     20  CD1 TYR A 338     -39.513 126.637   4.936  1.00 39.27    -0.002 A 
BRANCH  18  21
ATOM     21  OH  TYR A 338     -37.207 129.392   4.291  1.00 43.36    -0.359 OA
ATOM     22  HH  TYR A 338     -36.415 129.491   4.807  1.00  0.00     0.217 HD
ENDBRANCH  18  21
ENDBRANCH  14  15
ENDBRANCH  13  14
END_RES TYR A 338
ENDMDL
MODEL 2
REMARK VINA RESULT:    -6.201      1.919      2.461
REMARK INTER + INTRA:          -9.729
REMARK INTER:                  -9.228
REMARK INTRA:                  -0.502
REMARK UNBOUND:                -3.529
REMARK  0 active torsions:
REMARK  status: ('A' for Active; 'I' for Inactive)
REMARK       I    between atoms: C3_3  and  O3_21 
REMARK       I    between atoms: C6_6  and  C7_7 
REMARK       I    between atoms: C8_8  and  C9_9 
REMARK       I    between atoms: C10_10  and  C11_11 
REMARK       I    between atoms: C12_12  and  C13_13 
REMARK       I    between atoms: C14_14  and  C15_15 
REMARK       I    between atoms: C23_25  and  O23_43 
REMARK       I    between atoms: C26_28  and  C27_29 
REMARK       I    between atoms: C28_30  and  C29_31 
REMARK       I    between atoms: C30_32  and  C31_33 
REMARK       I    between atoms: C32_34  and  C33_35 
REMARK       I    between atoms: C34_36  and  C35_37 
ROOT
HETATM    1  C1  STQ B1621     -34.098 128.186   6.943  1.00 16.49    -0.018 C 
HETATM    2  C2  STQ B1621     -33.320 127.408   5.864  1.00 14.93     0.045 C 
HETATM    3  C3  STQ B1621     -32.052 128.008   5.263  1.00 15.86     0.123 C 
HETATM    4  C4  STQ B1621     -31.372 129.088   6.128  1.00 14.41     0.066 C 
HETATM    5  C5  STQ B1621     -32.159 129.834   7.171  1.00 15.44    -0.074 C 
HETATM    6  C6  STQ B1621     -33.417 129.438   7.583  1.00 14.73    -0.048 C 
HETATM    7  C7  STQ B1621     -34.203 130.121   8.640  1.00 14.04     0.009 C 
HETATM    8  C8  STQ B1621     -34.951 131.235   8.455  1.00 12.72     0.007 C 
HETATM    9  C9  STQ B1621     -35.711 132.009   9.441  1.00 12.70    -0.062 C 
HETATM   10  C10 STQ B1621     -36.491 133.012   8.975  1.00 13.26     0.007 C 
HETATM   11  C11 STQ B1621     -37.399 133.840   9.735  1.00 13.12     0.001 C 
HETATM   12  C12 STQ B1621     -38.176 134.771   9.134  1.00 12.34     0.007 C 
HETATM   13  C13 STQ B1621     -39.229 135.590   9.765  1.00 12.89    -0.062 C 
HETATM   14  C14 STQ B1621     -39.918 136.456   8.986  1.00 12.03     0.007 C 
HETATM   15  C15 STQ B1621     -41.016 137.310   9.390  1.00 13.59     0.001 C 
HETATM   16  C16 STQ B1621     -34.338 127.085   8.008  1.00 14.27     0.020 C 
HETATM   17  C17 STQ B1621     -35.460 128.589   6.321  1.00 12.26     0.020 C 
HETATM   18  C18 STQ B1621     -31.370 130.971   7.732  1.00 13.78     0.044 C 
HETATM   19  C19 STQ B1621     -35.629 131.591  10.879  1.00  8.79     0.048 C 
HETATM   20  C20 STQ B1621     -39.487 135.377  11.239  1.00  8.63     0.048 C 
HETATM   21  O3  STQ B1621     -31.130 126.977   4.937  1.00 14.46    -0.395 OA
ATOM     22  H3  STQ B1621     -30.341 127.351   4.563  1.00  0.00     0.210 HD
HETATM   23  C21 STQ B1621     -50.952 145.642  10.012  1.00 23.83    -0.035 C 
HETATM   24  C22 STQ B1621     -52.060 146.471  10.681  1.00 23.69     0.045 C 
HETATM   25  C23 STQ B1621     -51.726 147.934  10.973  1.00 23.55     0.142 C 
HETATM   26  C24 STQ B1621     -50.260 148.166  11.365  1.00 24.29     0.007 C 
HETATM   27  C25 STQ B1621     -49.304 147.216  11.217  1.00 24.98    -0.077 C 
HETATM   28  C26 STQ B1621     -49.540 145.810  10.662  1.00 23.38     0.044 C 
HETATM   29  C27 STQ B1621     -48.389 145.358   9.763  1.00 22.25    -0.016 C 
HETATM   30  C28 STQ B1621     -47.720 144.180   9.873  1.00 21.46     0.003 C 
HETATM   31  C29 STQ B1621     -46.748 143.627   8.910  1.00 21.33    -0.062 C 
HETATM   32  C30 STQ B1621     -46.132 142.461   9.205  1.00 19.38     0.007 C 
HETATM   33  C31 STQ B1621     -45.147 141.789   8.390  1.00 19.44     0.001 C 
HETATM   34  C32 STQ B1621     -44.440 140.733   8.876  1.00 17.56     0.007 C 
HETATM   35  C33 STQ B1621     -43.359 139.967   8.236  1.00 14.52    -0.062 C 
HETATM   36  C34 STQ B1621     -42.733 139.021   8.971  1.00 13.82     0.007 C 
HETATM   37  C35 STQ B1621     -41.621 138.179   8.559  1.00 15.60     0.001 C 
HETATM   38  C36 STQ B1621     -50.922 146.057   8.516  1.00 23.39     0.016 C 
HETATM   39  C37 STQ B1621     -51.387 144.168  10.077  1.00 21.57     0.016 C 
HETATM   40  C38 STQ B1621     -47.957 147.662  11.672  1.00 23.84     0.044 C 
HETATM   41  C39 STQ B1621     -46.442 144.441   7.692  1.00 21.43     0.048 C 
HETATM   42  C40 STQ B1621     -42.984 140.334   6.837  1.00 13.28     0.048 C 
HETATM   43  O23 STQ B1621     -52.600 148.431  11.975  1.00 25.61    -0.392 OA
ATOM     44  H23 STQ B1621     -53.508 148.287  11.732  1.00  0.00     0.210 HD
ENDROOT
TORSDOF 12
BEGIN_RES PHE A  61
REMARK  2 active torsions:
REMARK  status: ('A' for Active; 'I' for Inactive)
REMARK    1  A    between atoms: CA   and  CB  
REMARK    2  A    between atoms: CB   and  CG  
ROOT
ATOM      1  CA  PHE A  61     -36.237 128.293  12.768  1.00 39.40     0.164 C 
ENDROOT
BRANCH   1   2
ATOM      2  CB  PHE A  61     -36.813 128.951  11.509  1.00 39.41     0.058 C 
BRANCH   2   3
ATOM      3  CG  PHE A  61     -37.015 128.007  10.348  1.00 39.01    -0.020 A 
ATOM      4  CD2 PHE A  61     -36.285 126.833  10.251  1.00 40.32    -0.004 A 
ATOM      5  CE2 PHE A  61     -36.470 125.966   9.180  1.00 40.20    -0.000 A 
ATOM      6  CZ  PHE A  61     -37.388 126.262   8.199  1.00 40.34    -0.000 A 
ATOM      7  CE1 PHE A  61     -38.123 127.424   8.282  1.00 41.51    -0.000 A 
ATOM      8  CD1 PHE A  61     -37.934 128.293   9.348  1.00 39.94    -0.004 A 
ENDBRANCH   2   3
ENDBRANCH   1   2
END_RES PHE A  61
BEGIN_RES VAL A 134
REMARK  1 active torsions:
REMARK  status: ('A' for Active; 'I' for Inactive)
REMARK    3  A    between atoms: CA   and  CB  
ROOT
ATOM      9  CA  VAL A 134     -29.766 132.051   9.815  1.00 40.75     0.159 C 
ENDROOT
BRANCH   9  10
ATOM     10  CB  VAL A 134     -30.864 132.765   9.009  1.00 40.76     0.029 C 
ATOM     11  CG1 VAL A 134     -32.107 132.975   9.862  1.00 41.76     0.002 C 
ATOM     12  CG2 VAL A 134     -30.371 134.085   8.437  1.00 40.56     0.002 C 
ENDBRANCH   9  10
END_RES VAL A 134
BEGIN_RES TYR A 338
REMARK  3 active torsions:
REMARK  status: ('A' for Active; 'I' for Inactive)
REMARK    4  A    between atoms: CA   and  CB  
REMARK    5  A    between atoms: CB   and  CG  
REMARK    6  A    between atoms: CZ   and  OH  
ROOT
ATOM     13  CA  TYR A 338     -41.631 124.950   6.058  1.00 38.23     0.164 C 
ENDROOT
BRANCH  13  14
ATOM     14  CB  TYR A 338     -41.621 126.456   6.339  1.00 39.15     0.058 C 
BRANCH  14  15
ATOM     15  CG  TYR A 338     -40.414 127.210   5.831  1.00 39.03    -0.020 A 
ATOM     16  CD2 TYR A 338     -40.255 128.555   6.120  1.00 40.65    -0.002 A 
ATOM     17  CE2 TYR A 338     -39.168 129.281   5.658  1.00 40.91     0.024 A 
ATOM     18  CZ  TYR A 338     -38.207 128.660   4.883  1.00 42.33     0.089 A 
ATOM     19  CE1 TYR A 338     -38.341 127.315   4.585  1.00 40.63     0.024 A 
ATOM     20  CD1 TYR A 338     -39.442 126.610   5.045  1.00 39.27    -0.002 A 
BRANCH  18  21
ATOM     21  OH  TYR A 338     -37.129 129.365   4.426  1.00 43.36    -0.359 OA
ATOM     22  HH  TYR A 338     -36.327 128.916   4.186  1.00  0.00     0.217 HD
ENDBRANCH  18  21
ENDBRANCH  14  15
ENDBRANCH  13  14
END_RES TYR A 338
ENDMDL
MODEL 3
REMARK VINA RESULT:    -4.386      1.358     17.340
REMARK INTER + INTRA:          -7.915
REMARK INTER:                  -7.445
REMARK INTRA:                  -0.469
REMARK UNBOUND:                -3.529
REMARK  0 active torsions:
REMARK  status: ('A' for Active; 'I' for Inactive)
REMARK       I    between atoms: C3_3  and  O3_21 
REMARK       I    between atoms: C6_6  and  C7_7 
REMARK       I    between atoms: C8_8  and  C9_9 
REMARK       I    between atoms: C10_10  and  C11_11 
REMARK       I    between atoms: C12_12  and  C13_13 
REMARK       I    between atoms: C14_14  and  C15_15 
REMARK       I    between atoms: C23_25  and  O23_43 
REMARK       I    between atoms: C26_28  and  C27_29 
REMARK       I    between atoms: C28_30  and  C29_31 
REMARK       I    between atoms: C30_32  and  C31_33 
REMARK       I    between atoms: C32_34  and  C33_35 
REMARK       I    between atoms: C34_36  and  C35_37 
ROOT
HETATM    1  C1  STQ B1621     -50.339 146.278  12.040  1.00 16.49    -0.018 C 
HETATM    2  C2  STQ B1621     -51.289 146.802  13.134  1.00 14.93     0.045 C 
HETATM    3  C3  STQ B1621     -50.749 147.705  14.239  1.00 15.86     0.123 C 
HETATM    4  C4  STQ B1621     -49.432 148.431  13.899  1.00 14.41     0.066 C 
HETATM    5  C5  STQ B1621     -48.522 147.894  12.828  1.00 15.44    -0.074 C 
HETATM    6  C6  STQ B1621     -48.912 146.908  11.941  1.00 14.73    -0.048 C 
HETATM    7  C7  STQ B1621     -48.059 146.386  10.845  1.00 14.04     0.009 C 
HETATM    8  C8  STQ B1621     -47.097 145.445  10.990  1.00 12.72     0.007 C 
HETATM    9  C9  STQ B1621     -46.171 144.910   9.987  1.00 12.70    -0.062 C 
HETATM   10  C10 STQ B1621     -45.388 143.870  10.356  1.00 13.26     0.007 C 
HETATM   11  C11 STQ B1621     -44.480 143.119   9.520  1.00 13.12     0.001 C 
HETATM   12  C12 STQ B1621     -43.799 142.051  10.001  1.00 12.34     0.007 C 
HETATM   13  C13 STQ B1621     -42.945 141.125   9.232  1.00 12.89    -0.062 C 
HETATM   14  C14 STQ B1621     -42.364 140.096   9.891  1.00 12.03     0.007 C 
HETATM   15  C15 STQ B1621     -41.536 139.051   9.325  1.00 13.59     0.001 C 
HETATM   16  C16 STQ B1621     -51.157 146.565  10.755  1.00 14.27     0.020 C 
HETATM   17  C17 STQ B1621     -50.224 144.745  12.232  1.00 12.26     0.020 C 
HETATM   18  C18 STQ B1621     -47.217 148.619  12.814  1.00 13.78     0.044 C 
HETATM   19  C19 STQ B1621     -46.210 145.501   8.608  1.00  8.79     0.048 C 
HETATM   20  C20 STQ B1621     -42.807 141.374   7.748  1.00  8.63     0.048 C 
HETATM   21  O3  STQ B1621     -51.743 148.637  14.640  1.00 14.46    -0.395 OA
ATOM     22  H3  STQ B1621     -51.406 149.200  15.327  1.00  0.00     0.210 HD
HETATM   23  C21 STQ B1621     -34.215 128.565   7.097  1.00 23.83    -0.035 C 
HETATM   24  C22 STQ B1621     -33.346 127.597   6.278  1.00 23.69     0.045 C 
HETATM   25  C23 STQ B1621     -31.833 127.759   6.424  1.00 23.55     0.142 C 
HETATM   26  C24 STQ B1621     -31.383 129.215   6.609  1.00 24.29     0.007 C 
HETATM   27  C25 STQ B1621     -32.253 130.222   6.874  1.00 24.98    -0.077 C 
HETATM   28  C26 STQ B1621     -33.768 130.060   7.013  1.00 23.38     0.044 C 
HETATM   29  C27 STQ B1621     -34.326 130.935   8.136  1.00 22.25    -0.016 C 
HETATM   30  C28 STQ B1621     -35.377 131.790   8.021  1.00 21.46     0.003 C 
HETATM   31  C29 STQ B1621     -36.064 132.493   9.121  1.00 21.33    -0.062 C 
HETATM   32  C30 STQ B1621     -37.061 133.354   8.819  1.00 19.38     0.007 C 
HETATM   33  C31 STQ B1621     -37.826 134.136   9.762  1.00 19.44     0.001 C 
HETATM   34  C32 STQ B1621     -38.661 135.122   9.339  1.00 17.56     0.007 C 
HETATM   35  C33 STQ B1621     -39.465 136.062  10.135  1.00 14.52    -0.062 C 
HETATM   36  C34 STQ B1621     -40.140 137.032   9.479  1.00 13.82     0.007 C 
HETATM   37  C35 STQ B1621     -40.957 138.085  10.061  1.00 15.60     0.001 C 
HETATM   38  C36 STQ B1621     -34.184 128.062   8.566  1.00 23.39     0.016 C 
HETATM   39  C37 STQ B1621     -35.659 128.421   6.587  1.00 21.57     0.016 C 
HETATM   40  C38 STQ B1621     -31.591 131.550   7.005  1.00 23.84     0.044 C 
HETATM   41  C39 STQ B1621     -35.555 132.270  10.509  1.00 21.43     0.048 C 
HETATM   42  C40 STQ B1621     -39.426 135.921  11.623  1.00 13.28     0.048 C 
HETATM   43  O23 STQ B1621     -31.182 127.169   5.310  1.00 25.61    -0.392 OA
ATOM     44  H23 STQ B1621     -31.461 126.267   5.195  1.00  0.00     0.210 HD
ENDROOT
TORSDOF 12
BEGIN_RES PHE A  61
REMARK  2 active torsions:
REMARK  status: ('A' for Active; 'I' for Inactive)
REMARK    1  A    between atoms: CA   and  CB  
REMARK    2  A    between atoms: CB   and  CG  
ROOT
ATOM      1  CA  PHE A  61     -36.237 128.293  12.768  1.00 39.40     0.164 C 
ENDROOT
BRANCH   1   2
ATOM      2  CB  PHE A  61     -36.813 128.951  11.509  1.00 39.41     0.058 C 
BRANCH   2   3
ATOM      3  CG  PHE A  61     -37.024 128.005  10.351  1.00 39.01    -0.020 A 
ATOM      4  CD2 PHE A  61     -36.274 126.846  10.233  1.00 40.32    -0.004 A 
ATOM      5  CE2 PHE A  61     -36.467 125.978   9.166  1.00 40.20    -0.000 A 
ATOM      6  CZ  PHE A  61     -37.414 126.256   8.208  1.00 40.34    -0.000 A 
ATOM      7  CE1 PHE A  61     -38.170 127.403   8.312  1.00 41.51    -0.000 A 
ATOM      8  CD1 PHE A  61     -37.973 128.275   9.375  1.00 39.94    -0.004 A 
ENDBRANCH   2   3
ENDBRANCH   1   2
END_RES PHE A  61
BEGIN_RES VAL A 134
REMARK  1 active torsions:
REMARK  status: ('A' for Active; 'I' for Inactive)
REMARK    3  A    between atoms: CA   and  CB  
ROOT
ATOM      9  CA  VAL A 134     -29.766 132.051   9.815  1.00 40.75     0.159 C 
ENDROOT
BRANCH   9  10
ATOM     10  CB  VAL A 134     -30.864 132.765   9.009  1.00 40.76     0.029 C 
ATOM     11  CG1 VAL A 134     -32.118 132.946   9.851  1.00 41.76     0.002 C 
ATOM     12  CG2 VAL A 134     -30.381 134.100   8.464  1.00 40.56     0.002 C 
ENDBRANCH   9  10
END_RES VAL A 134
BEGIN_RES TYR A 338
REMARK  3 active torsions:
REMARK  status: ('A' for Active; 'I' for Inactive)
REMARK    4  A    between atoms: CA   and  CB  
REMARK    5  A    between atoms: CB   and  CG  
REMARK    6  A    between atoms: CZ   and  OH  
ROOT
ATOM     13  CA  TYR A 338     -41.631 124.950   6.058  1.00 38.23     0.164 C 
ENDROOT
BRANCH  13  14
ATOM     14  CB  TYR A 338     -41.621 126.456   6.339  1.00 39.15     0.058 C 
BRANCH  14  15
ATOM     15  CG  TYR A 338     -40.417 127.211   5.825  1.00 39.03    -0.020 A 
ATOM     16  CD2 TYR A 338     -40.256 128.555   6.116  1.00 40.65    -0.002 A 
ATOM     17  CE2 TYR A 338     -39.172 129.283   5.649  1.00 40.91     0.024 A 
ATOM     18  CZ  TYR A 338     -38.216 128.663   4.867  1.00 42.33     0.089 A 
ATOM     19  CE1 TYR A 338     -38.352 127.319   4.566  1.00 40.63     0.024 A 
ATOM     20  CD1 TYR A 338     -39.450 126.613   5.032  1.00 39.27    -0.002 A 
BRANCH  18  21
ATOM     21  OH  TYR A 338     -37.141 129.369   4.404  1.00 43.36    -0.359 OA
ATOM     22  HH  TYR A 338     -36.271 129.198   4.745  1.00  0.00     0.217 HD
ENDBRANCH  18  21
ENDBRANCH  14  15
ENDBRANCH  13  14
END_RES TYR A 338
ENDMDL
