MODEL 1
REMARK VINA RESULT:    -8.842      0.000      0.000
REMARK INTER + INTRA:         -11.389
REMARK INTER:                  -8.842
REMARK INTRA:                  -2.547
REMARK UNBOUND:                -2.547
REMARK  0 active torsions:
REMARK  status: ('A' for Active; 'I' for Inactive)
REMARK       I    between atoms: C3_3  and  O3_21 
REMARK       I    between atoms: C6_6  and  C7_7 
REMARK       I    between atoms: C8_8  and  C9_9 
REMARK       I    between atoms: C10_10  and  C11_11 
REMARK       I    between atoms: C12_12  and  C13_13 
REMARK       I    between atoms: C14_14  and  C15_15 
REMARK       I    between atoms: C23_25  and  O23_43 
REMARK       I    between atoms: C26_28  and  C27_29 
REMARK       I    between atoms: C28_30  and  C29_31 
REMARK       I    between atoms: C30_32  and  C31_33 
REMARK       I    between atoms: C32_34  and  C33_35 
REMARK       I    between atoms: C34_36  and  C35_37 
ROOT
HETATM    1  C1  STQ 7 621     -34.288 127.452   6.570  1.00 16.14    -0.018 C 
HETATM    2  C2  STQ 7 621     -33.575 126.821   5.374  1.00 16.14     0.045 C 
HETATM    3  C3  STQ 7 621     -32.370 127.567   4.829  1.00 16.14     0.123 C 
HETATM    4  C4  STQ 7 621     -31.516 128.090   5.959  1.00 16.14     0.066 C 
HETATM    5  C5  STQ 7 621     -32.357 129.019   6.782  1.00 16.14    -0.074 C 
HETATM    6  C6  STQ 7 621     -33.587 128.660   7.166  1.00 16.14    -0.048 C 
HETATM    7  C7  STQ 7 621     -34.274 129.439   8.222  1.00 16.14     0.009 C 
HETATM    8  C8  STQ 7 621     -34.977 130.549   7.980  1.00 16.14     0.007 C 
HETATM    9  C9  STQ 7 621     -35.626 131.279   9.077  1.00 16.14    -0.062 C 
HETATM   10  C10 STQ 7 621     -36.364 132.357   8.765  1.00 16.14     0.007 C 
HETATM   11  C11 STQ 7 621     -37.103 133.225   9.685  1.00 16.14     0.001 C 
HETATM   12  C12 STQ 7 621     -37.630 134.321   9.144  1.00 16.14     0.007 C 
HETATM   13  C13 STQ 7 621     -38.458 135.306   9.864  1.00 16.14    -0.062 C 
HETATM   14  C14 STQ 7 621     -39.268 136.058   9.109  1.00 16.14     0.007 C 
HETATM   15  C15 STQ 7 621     -40.213 137.036   9.632  1.00 16.14     0.001 C 
HETATM   16  C16 STQ 7 621     -34.480 126.352   7.608  1.00 16.14     0.020 C 
HETATM   17  C17 STQ 7 621     -35.657 127.927   6.110  1.00 16.14     0.020 C 
HETATM   18  C18 STQ 7 621     -31.520 130.001   7.549  1.00 16.14     0.044 C 
HETATM   19  C19 STQ 7 621     -35.399 130.812  10.478  1.00 16.14     0.048 C 
HETATM   20  C20 STQ 7 621     -38.427 135.446  11.354  1.00 16.14     0.048 C 
HETATM   21  O3  STQ 7 621     -31.582 126.677   4.036  1.00 16.14    -0.395 OA
ATOM     22  H3  STQ 7 621     -30.828 127.144   3.695  1.00  0.00     0.210 HD
HETATM   23  C21 STQ 7 621     -50.166 144.829  10.277  1.00 16.14    -0.035 C 
HETATM   24  C22 STQ 7 621     -51.064 145.684  11.159  1.00 16.14     0.045 C 
HETATM   25  C23 STQ 7 621     -50.753 147.172  11.107  1.00 16.14     0.142 C 
HETATM   26  C24 STQ 7 621     -49.272 147.421  11.217  1.00 16.14     0.007 C 
HETATM   27  C25 STQ 7 621     -48.369 146.559  10.738  1.00 16.14    -0.077 C 
HETATM   28  C26 STQ 7 621     -48.684 145.093  10.566  1.00 16.14     0.044 C 
HETATM   29  C27 STQ 7 621     -47.809 144.491   9.484  1.00 16.14    -0.016 C 
HETATM   30  C28 STQ 7 621     -46.984 143.506   9.818  1.00 16.14     0.003 C 
HETATM   31  C29 STQ 7 621     -46.098 142.864   8.835  1.00 16.14    -0.062 C 
HETATM   32  C30 STQ 7 621     -45.551 141.697   9.183  1.00 16.14     0.007 C 
HETATM   33  C31 STQ 7 621     -44.647 140.935   8.335  1.00 16.14     0.001 C 
HETATM   34  C32 STQ 7 621     -43.872 140.087   8.995  1.00 16.14     0.007 C 
HETATM   35  C33 STQ 7 621     -42.864 139.209   8.386  1.00 16.14    -0.062 C 
HETATM   36  C34 STQ 7 621     -42.116 138.476   9.220  1.00 16.14     0.007 C 
HETATM   37  C35 STQ 7 621     -41.097 137.535   8.774  1.00 16.14     0.001 C 
HETATM   38  C36 STQ 7 621     -50.506 145.068   8.809  1.00 16.14     0.016 C 
HETATM   39  C37 STQ 7 621     -50.488 143.377  10.607  1.00 16.14     0.016 C 
HETATM   40  C38 STQ 7 621     -47.017 147.090  10.373  1.00 16.14     0.044 C 
HETATM   41  C39 STQ 7 621     -45.825 143.495   7.505  1.00 16.14     0.048 C 
HETATM   42  C40 STQ 7 621     -42.671 139.172   6.902  1.00 16.14     0.048 C 
HETATM   43  O23 STQ 7 621     -51.397 147.809  12.212  1.00 16.14    -0.392 OA
ATOM     44  H23 STQ 7 621     -51.203 148.738  12.180  1.00  0.00     0.210 HD
ENDROOT
TORSDOF 12
BEGIN_RES PHE A  61
REMARK  2 active torsions:
REMARK  status: ('A' for Active; 'I' for Inactive)
REMARK    1  A    between atoms: CA   and  CB  
REMARK    2  A    between atoms: CB   and  CG  
ROOT
ATOM      1  CA  PHE A  61     -36.237 128.293  12.768  1.00 39.40     0.164 C 
ENDROOT
BRANCH   1   2
ATOM      2  CB  PHE A  61     -36.813 128.951  11.509  1.00 39.41     0.058 C 
BRANCH   2   3
ATOM      3  CG  PHE A  61     -37.049 128.000  10.360  1.00 39.01    -0.020 A 
ATOM      4  CD2 PHE A  61     -36.336 126.816  10.259  1.00 40.32    -0.004 A 
ATOM      5  CE2 PHE A  61     -36.552 125.943   9.199  1.00 40.20    -0.000 A 
ATOM      6  CZ  PHE A  61     -37.485 126.242   8.233  1.00 40.34    -0.000 A 
ATOM      7  CE1 PHE A  61     -38.204 127.414   8.321  1.00 41.51    -0.000 A 
ATOM      8  CD1 PHE A  61     -37.983 128.290   9.376  1.00 39.94    -0.004 A 
ENDBRANCH   2   3
ENDBRANCH   1   2
END_RES PHE A  61
BEGIN_RES VAL A 134
REMARK  1 active torsions:
REMARK  status: ('A' for Active; 'I' for Inactive)
REMARK    3  A    between atoms: CA   and  CB  
ROOT
ATOM      9  CA  VAL A 134     -29.766 132.051   9.815  1.00 40.75     0.159 C 
ENDROOT
BRANCH   9  10
ATOM     10  CB  VAL A 134     -30.864 132.765   9.009  1.00 40.76     0.029 C 
ATOM     11  CG1 VAL A 134     -30.851 132.306   7.558  1.00 41.76     0.002 C 
ATOM     12  CG2 VAL A 134     -32.238 132.560   9.629  1.00 40.56     0.002 C 
ENDBRANCH   9  10
END_RES VAL A 134
BEGIN_RES TYR A 338
REMARK  3 active torsions:
REMARK  status: ('A' for Active; 'I' for Inactive)
REMARK    4  A    between atoms: CA   and  CB  
REMARK    5  A    between atoms: CB   and  CG  
REMARK    6  A    between atoms: CZ   and  OH  
ROOT
ATOM     13  CA  TYR A 338     -41.631 124.950   6.058  1.00 38.23     0.164 C 
ENDROOT
BRANCH  13  14
ATOM     14  CB  TYR A 338     -41.621 126.456   6.339  1.00 39.15     0.058 C 
BRANCH  14  15
ATOM     15  CG  TYR A 338     -40.426 127.215   5.808  1.00 39.03    -0.020 A 
ATOM     16  CD2 TYR A 338     -40.257 128.555   6.110  1.00 40.65    -0.002 A 
ATOM     17  CE2 TYR A 338     -39.182 129.285   5.628  1.00 40.91     0.024 A 
ATOM     18  CZ  TYR A 338     -38.243 128.672   4.819  1.00 42.33     0.089 A 
ATOM     19  CE1 TYR A 338     -38.388 127.332   4.507  1.00 40.63     0.024 A 
ATOM     20  CD1 TYR A 338     -39.478 126.623   4.989  1.00 39.27    -0.002 A 
BRANCH  18  21
ATOM     21  OH  TYR A 338     -37.177 129.382   4.341  1.00 43.36    -0.359 OA
ATOM     22  HH  TYR A 338     -36.339 129.351   4.789  1.00  0.00     0.217 HD
ENDBRANCH  18  21
ENDBRANCH  14  15
ENDBRANCH  13  14
END_RES TYR A 338
ENDMDL
MODEL 2
REMARK VINA RESULT:    -7.210      1.646     16.875
REMARK INTER + INTRA:          -9.757
REMARK INTER:                  -9.419
REMARK INTRA:                  -0.338
REMARK UNBOUND:                -2.547
REMARK  0 active torsions:
REMARK  status: ('A' for Active; 'I' for Inactive)
REMARK       I    between atoms: C3_3  and  O3_21 
REMARK       I    between atoms: C6_6  and  C7_7 
REMARK       I    between atoms: C8_8  and  C9_9 
REMARK       I    between atoms: C10_10  and  C11_11 
REMARK       I    between atoms: C12_12  and  C13_13 
REMARK       I    between atoms: C14_14  and  C15_15 
REMARK       I    between atoms: C23_25  and  O23_43 
REMARK       I    between atoms: C26_28  and  C27_29 
REMARK       I    between atoms: C28_30  and  C29_31 
REMARK       I    between atoms: C30_32  and  C31_33 
REMARK       I    between atoms: C32_34  and  C33_35 
REMARK       I    between atoms: C34_36  and  C35_37 
ROOT
HETATM    1  C1  STQ 7 621     -50.019 145.076  13.245  1.00 16.14    -0.018 C 
HETATM    2  C2  STQ 7 621     -50.693 145.548  14.533  1.00 16.14     0.045 C 
HETATM    3  C3  STQ 7 621     -49.880 146.467  15.429  1.00 16.14     0.123 C 
HETATM    4  C4  STQ 7 621     -49.145 147.495  14.604  1.00 16.14     0.066 C 
HETATM    5  C5  STQ 7 621     -48.232 146.768  13.664  1.00 16.14    -0.074 C 
HETATM    6  C6  STQ 7 621     -48.682 145.732  12.946  1.00 16.14    -0.048 C 
HETATM    7  C7  STQ 7 621     -47.875 145.230  11.811  1.00 16.14     0.009 C 
HETATM    8  C8  STQ 7 621     -46.883 144.345  11.945  1.00 16.14     0.007 C 
HETATM    9  C9  STQ 7 621     -46.116 143.896  10.776  1.00 16.14    -0.062 C 
HETATM   10  C10 STQ 7 621     -45.167 142.964  10.967  1.00 16.14     0.007 C 
HETATM   11  C11 STQ 7 621     -44.293 142.365   9.956  1.00 16.14     0.001 C 
HETATM   12  C12 STQ 7 621     -43.328 141.576  10.423  1.00 16.14     0.007 C 
HETATM   13  C13 STQ 7 621     -42.370 140.828   9.589  1.00 16.14    -0.062 C 
HETATM   14  C14 STQ 7 621     -41.800 139.760  10.163  1.00 16.14     0.007 C 
HETATM   15  C15 STQ 7 621     -40.883 138.851   9.488  1.00 16.14     0.001 C 
HETATM   16  C16 STQ 7 621     -51.014 145.300  12.111  1.00 16.14     0.020 C 
HETATM   17  C17 STQ 7 621     -49.753 143.584  13.367  1.00 16.14     0.020 C 
HETATM   18  C18 STQ 7 621     -47.085 147.627  13.219  1.00 16.14     0.044 C 
HETATM   19  C19 STQ 7 621     -46.399 144.525   9.452  1.00 16.14     0.048 C 
HETATM   20  C20 STQ 7 621     -42.065 141.209   8.174  1.00 16.14     0.048 C 
HETATM   21  O3  STQ 7 621     -50.757 147.146  16.329  1.00 16.14    -0.395 OA
ATOM     22  H3  STQ 7 621     -50.249 147.721  16.890  1.00  0.00     0.210 HD
HETATM   23  C21 STQ 7 621     -34.231 128.406   6.871  1.00 16.14    -0.035 C 
HETATM   24  C22 STQ 7 621     -33.390 127.648   5.852  1.00 16.14     0.045 C 
HETATM   25  C23 STQ 7 621     -31.891 127.731   6.098  1.00 16.14     0.142 C 
HETATM   26  C24 STQ 7 621     -31.467 129.144   6.397  1.00 16.14     0.007 C 
HETATM   27  C25 STQ 7 621     -32.270 130.008   7.028  1.00 16.14    -0.077 C 
HETATM   28  C26 STQ 7 621     -33.772 129.863   6.998  1.00 16.14     0.044 C 
HETATM   29  C27 STQ 7 621     -34.387 130.515   8.222  1.00 16.14    -0.016 C 
HETATM   30  C28 STQ 7 621     -35.230 131.523   8.040  1.00 16.14     0.003 C 
HETATM   31  C29 STQ 7 621     -35.872 132.216   9.168  1.00 16.14    -0.062 C 
HETATM   32  C30 STQ 7 621     -36.926 132.986   8.886  1.00 16.14     0.007 C 
HETATM   33  C31 STQ 7 621     -37.670 133.746   9.879  1.00 16.14     0.001 C 
HETATM   34  C32 STQ 7 621     -38.348 134.768   9.381  1.00 16.14     0.007 C 
HETATM   35  C33 STQ 7 621     -39.169 135.703  10.163  1.00 16.14    -0.062 C 
HETATM   36  C34 STQ 7 621     -39.719 136.728   9.498  1.00 16.14     0.007 C 
HETATM   37  C35 STQ 7 621     -40.582 137.722  10.122  1.00 16.14     0.001 C 
HETATM   38  C36 STQ 7 621     -34.192 127.682   8.213  1.00 16.14     0.016 C 
HETATM   39  C37 STQ 7 621     -35.665 128.377   6.357  1.00 16.14     0.016 C 
HETATM   40  C38 STQ 7 621     -31.634 131.142   7.772  1.00 16.14     0.044 C 
HETATM   41  C39 STQ 7 621     -35.364 132.060  10.567  1.00 16.14     0.048 C 
HETATM   42  C40 STQ 7 621     -39.346 135.524  11.638  1.00 16.14     0.048 C 
HETATM   43  O23 STQ 7 621     -31.215 127.301   4.915  1.00 16.14    -0.392 OA
ATOM     44  H23 STQ 7 621     -30.278 127.353   5.068  1.00  0.00     0.210 HD
ENDROOT
TORSDOF 12
BEGIN_RES PHE A  61
REMARK  2 active torsions:
REMARK  status: ('A' for Active; 'I' for Inactive)
REMARK    1  A    between atoms: CA   and  CB  
REMARK    2  A    between atoms: CB   and  CG  
ROOT
ATOM      1  CA  PHE A  61     -36.237 128.293  12.768  1.00 39.40     0.164 C 
ENDROOT
BRANCH   1   2
ATOM      2  CB  PHE A  61     -36.813 128.951  11.509  1.00 39.41     0.058 C 
BRANCH   2   3
ATOM      3  CG  PHE A  61     -37.010 128.008  10.347  1.00 39.01    -0.020 A 
ATOM      4  CD2 PHE A  61     -36.273 126.838  10.246  1.00 40.32    -0.004 A 
ATOM      5  CE2 PHE A  61     -36.453 125.973   9.174  1.00 40.20    -0.000 A 
ATOM      6  CZ  PHE A  61     -37.374 126.265   8.194  1.00 40.34    -0.000 A 
ATOM      7  CE1 PHE A  61     -38.116 127.422   8.280  1.00 41.51    -0.000 A 
ATOM      8  CD1 PHE A  61     -37.932 128.291   9.348  1.00 39.94    -0.004 A 
ENDBRANCH   2   3
ENDBRANCH   1   2
END_RES PHE A  61
BEGIN_RES VAL A 134
REMARK  1 active torsions:
REMARK  status: ('A' for Active; 'I' for Inactive)
REMARK    3  A    between atoms: CA   and  CB  
ROOT
ATOM      9  CA  VAL A 134     -29.766 132.051   9.815  1.00 40.75     0.159 C 
ENDROOT
BRANCH   9  10
ATOM     10  CB  VAL A 134     -30.864 132.765   9.009  1.00 40.76     0.029 C 
ATOM     11  CG1 VAL A 134     -32.105 132.980   9.863  1.00 41.76     0.002 C 
ATOM     12  CG2 VAL A 134     -30.370 134.083   8.433  1.00 40.56     0.002 C 
ENDBRANCH   9  10
END_RES VAL A 134
BEGIN_RES TYR A 338
REMARK  3 active torsions:
REMARK  status: ('A' for Active; 'I' for Inactive)
REMARK    4  A    between atoms: CA   and  CB  
REMARK    5  A    between atoms: CB   and  CG  
REMARK    6  A    between atoms: CZ   and  OH  
ROOT
ATOM     13  CA  TYR A 338     -41.631 124.950   6.058  1.00 38.23     0.164 C 
ENDROOT
BRANCH  13  14
ATOM     14  CB  TYR A 338     -41.621 126.456   6.339  1.00 39.15     0.058 C 
BRANCH  14  15
ATOM     15  CG  TYR A 338     -40.428 127.215   5.805  1.00 39.03    -0.020 A 
ATOM     16  CD2 TYR A 338     -40.263 128.558   6.100  1.00 40.65    -0.002 A 
ATOM     17  CE2 TYR A 338     -39.190 129.289   5.614  1.00 40.91     0.024 A 
ATOM     18  CZ  TYR A 338     -38.249 128.674   4.809  1.00 42.33     0.089 A 
ATOM     19  CE1 TYR A 338     -38.390 127.332   4.504  1.00 40.63     0.024 A 
ATOM     20  CD1 TYR A 338     -39.478 126.622   4.989  1.00 39.27    -0.002 A 
BRANCH  18  21
ATOM     21  OH  TYR A 338     -37.184 129.384   4.328  1.00 43.36    -0.359 OA
ATOM     22  HH  TYR A 338     -36.790 130.072   4.851  1.00  0.00     0.217 HD
ENDBRANCH  18  21
ENDBRANCH  14  15
ENDBRANCH  13  14
END_RES TYR A 338
ENDMDL
