MODEL 1
REMARK VINA RESULT:   -10.700      0.000      0.000
REMARK INTER + INTRA:         -11.025
REMARK INTER:                 -10.700
REMARK INTRA:                  -0.325
REMARK UNBOUND:                -0.325
REMARK  0 active torsions:
REMARK  status: ('A' for Active; 'I' for Inactive)
REMARK       I    between atoms: C3_3  and  O3_21 
REMARK       I    between atoms: C6_6  and  C7_7 
REMARK       I    between atoms: C8_8  and  C9_9 
REMARK       I    between atoms: C10_10  and  C11_11 
REMARK       I    between atoms: C12_12  and  C13_13 
REMARK       I    between atoms: C14_14  and  C15_15 
REMARK       I    between atoms: C23_25  and  O23_43 
REMARK       I    between atoms: C26_28  and  C27_29 
REMARK       I    between atoms: C28_30  and  C29_31 
REMARK       I    between atoms: C30_32  and  C31_33 
REMARK       I    between atoms: C32_34  and  C33_35 
REMARK       I    between atoms: C34_36  and  C35_37 
ROOT
HETATM    1  C1  STQ 4 620     -50.221 145.107  11.088  1.00 98.00    -0.022 C 
HETATM    2  C2  STQ 4 620     -51.348 146.120  11.269  1.00 98.00     0.045 C 
HETATM    3  C3  STQ 4 620     -50.920 147.422  11.938  1.00 98.00     0.119 C 
HETATM    4  C4  STQ 4 620     -49.711 148.024  11.239  1.00 98.00     0.040 C 
HETATM    5  C5  STQ 4 620     -48.641 146.969  11.191  1.00 98.00     0.013 C 
HETATM    6  C6  STQ 4 620     -48.938 145.784  10.683  1.00 98.00    -0.068 C 
HETATM    7  C7  STQ 4 620     -48.041 145.149   9.707  1.00 98.00     0.004 C 
HETATM    8  C8  STQ 4 620     -46.821 144.799  10.097  1.00 98.00     0.007 C 
HETATM    9  C9  STQ 4 620     -45.899 144.134   9.167  1.00 98.00    -0.062 C 
HETATM   10  C10 STQ 4 620     -44.918 143.402   9.700  1.00 98.00     0.007 C 
HETATM   11  C11 STQ 4 620     -43.960 142.668   8.890  1.00 98.00     0.001 C 
HETATM   12  C12 STQ 4 620     -43.359 141.667   9.514  1.00 98.00     0.007 C 
HETATM   13  C13 STQ 4 620     -42.380 140.791   8.861  1.00 98.00    -0.062 C 
HETATM   14  C14 STQ 4 620     -41.912 139.758   9.571  1.00 98.00     0.007 C 
HETATM   15  C15 STQ 4 620     -40.960 138.812   9.019  1.00 98.00     0.001 C 
HETATM   16  C16 STQ 4 620     -50.637 144.082  10.043  1.00 98.00     0.019 C 
HETATM   17  C17 STQ 4 620     -49.951 144.379  12.396  1.00 98.00     0.019 C 
HETATM   18  C18 STQ 4 620     -48.183 148.095  10.308  1.00 98.00     0.015 C 
HETATM   19  C19 STQ 4 620     -46.064 144.259   7.682  1.00 98.00     0.048 C 
HETATM   20  C20 STQ 4 620     -41.945 141.038   7.448  1.00 98.00     0.048 C 
HETATM   21  O3  STQ 4 620     -52.000 148.360  11.912  1.00 98.00    -0.396 OA
ATOM     22  H3  STQ 4 620     -51.734 149.171  12.328  1.00  0.00     0.210 HD
HETATM   23  C21 STQ 4 620     -34.182 128.483   7.012  1.00 98.00    -0.035 C 
HETATM   24  C22 STQ 4 620     -33.364 127.815   5.918  1.00 98.00     0.045 C 
HETATM   25  C23 STQ 4 620     -31.861 127.860   6.142  1.00 98.00     0.142 C 
HETATM   26  C24 STQ 4 620     -31.423 129.228   6.604  1.00 98.00     0.007 C 
HETATM   27  C25 STQ 4 620     -32.211 129.932   7.423  1.00 98.00    -0.077 C 
HETATM   28  C26 STQ 4 620     -33.696 129.913   7.222  1.00 98.00     0.044 C 
HETATM   29  C27 STQ 4 620     -34.421 130.526   8.387  1.00 98.00    -0.016 C 
HETATM   30  C28 STQ 4 620     -35.084 131.643   8.146  1.00 98.00     0.003 C 
HETATM   31  C29 STQ 4 620     -35.846 132.318   9.196  1.00 98.00    -0.062 C 
HETATM   32  C30 STQ 4 620     -36.856 133.085   8.795  1.00 98.00     0.007 C 
HETATM   33  C31 STQ 4 620     -37.706 133.825   9.711  1.00 98.00     0.001 C 
HETATM   34  C32 STQ 4 620     -38.314 134.854   9.150  1.00 98.00     0.007 C 
HETATM   35  C33 STQ 4 620     -39.225 135.758   9.858  1.00 98.00    -0.062 C 
HETATM   36  C34 STQ 4 620     -39.754 136.759   9.148  1.00 98.00     0.007 C 
HETATM   37  C35 STQ 4 620     -40.687 137.719   9.716  1.00 98.00     0.001 C 
HETATM   38  C36 STQ 4 620     -34.127 127.681   8.307  1.00 98.00     0.016 C 
HETATM   39  C37 STQ 4 620     -35.630 128.494   6.540  1.00 98.00     0.016 C 
HETATM   40  C38 STQ 4 620     -31.594 130.713   8.545  1.00 98.00     0.044 C 
HETATM   41  C39 STQ 4 620     -35.508 132.154  10.645  1.00 98.00     0.048 C 
HETATM   42  C40 STQ 4 620     -39.533 135.570  11.310  1.00 98.00     0.048 C 
HETATM   43  O23 STQ 4 620     -31.194 127.517   4.925  1.00 98.00    -0.392 OA
ATOM     44  H23 STQ 4 620     -30.254 127.545   5.064  1.00  0.00     0.210 HD
ENDROOT
TORSDOF 12
BEGIN_RES PHE A  61
REMARK  2 active torsions:
REMARK  status: ('A' for Active; 'I' for Inactive)
REMARK    1  A    between atoms: CA   and  CB  
REMARK    2  A    between atoms: CB   and  CG  
ROOT
ATOM      1  CA  PHE A  61     -36.237 128.293  12.768  1.00 39.40     0.164 C 
ENDROOT
BRANCH   1   2
ATOM      2  CB  PHE A  61     -36.813 128.951  11.509  1.00 39.41     0.058 C 
BRANCH   2   3
ATOM      3  CG  PHE A  61     -37.017 128.006  10.349  1.00 39.01    -0.020 A 
ATOM      4  CD2 PHE A  61     -36.256 126.855  10.227  1.00 40.32    -0.004 A 
ATOM      5  CE2 PHE A  61     -36.442 125.988   9.157  1.00 40.20    -0.000 A 
ATOM      6  CZ  PHE A  61     -37.393 126.261   8.200  1.00 40.34    -0.000 A 
ATOM      7  CE1 PHE A  61     -38.159 127.400   8.308  1.00 41.51    -0.000 A 
ATOM      8  CD1 PHE A  61     -37.969 128.270   9.374  1.00 39.94    -0.004 A 
ENDBRANCH   2   3
ENDBRANCH   1   2
END_RES PHE A  61
BEGIN_RES VAL A 134
REMARK  1 active torsions:
REMARK  status: ('A' for Active; 'I' for Inactive)
REMARK    3  A    between atoms: CA   and  CB  
ROOT
ATOM      9  CA  VAL A 134     -29.766 132.051   9.815  1.00 40.75     0.159 C 
ENDROOT
BRANCH   9  10
ATOM     10  CB  VAL A 134     -30.864 132.765   9.009  1.00 40.76     0.029 C 
ATOM     11  CG1 VAL A 134     -32.076 133.047   9.884  1.00 41.76     0.002 C 
ATOM     12  CG2 VAL A 134     -30.349 134.046   8.370  1.00 40.56     0.002 C 
ENDBRANCH   9  10
END_RES VAL A 134
BEGIN_RES TYR A 338
REMARK  3 active torsions:
REMARK  status: ('A' for Active; 'I' for Inactive)
REMARK    4  A    between atoms: CA   and  CB  
REMARK    5  A    between atoms: CB   and  CG  
REMARK    6  A    between atoms: CZ   and  OH  
ROOT
ATOM     13  CA  TYR A 338     -41.631 124.950   6.058  1.00 38.23     0.164 C 
ENDROOT
BRANCH  13  14
ATOM     14  CB  TYR A 338     -41.621 126.456   6.339  1.00 39.15     0.058 C 
BRANCH  14  15
ATOM     15  CG  TYR A 338     -40.425 127.214   5.811  1.00 39.03    -0.020 A 
ATOM     16  CD2 TYR A 338     -40.265 128.559   6.098  1.00 40.65    -0.002 A 
ATOM     17  CE2 TYR A 338     -39.189 129.289   5.617  1.00 40.91     0.024 A 
ATOM     18  CZ  TYR A 338     -38.239 128.671   4.826  1.00 42.33     0.089 A 
ATOM     19  CE1 TYR A 338     -38.374 127.326   4.529  1.00 40.63     0.024 A 
ATOM     20  CD1 TYR A 338     -39.465 126.617   5.009  1.00 39.27    -0.002 A 
BRANCH  18  21
ATOM     21  OH  TYR A 338     -37.171 129.380   4.350  1.00 43.36    -0.359 OA
ATOM     22  HH  TYR A 338     -36.540 129.758   4.950  1.00  0.00     0.217 HD
ENDBRANCH  18  21
ENDBRANCH  14  15
ENDBRANCH  13  14
END_RES TYR A 338
ENDMDL
