MODEL 1
REMARK VINA RESULT:    -9.044      0.000      0.000
REMARK INTER + INTRA:          -9.720
REMARK INTER:                  -9.044
REMARK INTRA:                  -0.676
REMARK UNBOUND:                -0.676
REMARK  0 active torsions:
REMARK  status: ('A' for Active; 'I' for Inactive)
REMARK       I    between atoms: C3_3  and  O3_21 
REMARK       I    between atoms: C6_6  and  C7_7 
REMARK       I    between atoms: C8_8  and  C9_9 
REMARK       I    between atoms: C10_10  and  C11_11 
REMARK       I    between atoms: C12_12  and  C13_13 
REMARK       I    between atoms: C14_14  and  C15_15 
REMARK       I    between atoms: C23_25  and  O23_43 
REMARK       I    between atoms: C26_28  and  C27_29 
REMARK       I    between atoms: C28_30  and  C29_31 
REMARK       I    between atoms: C30_32  and  C31_33 
REMARK       I    between atoms: C32_34  and  C33_35 
REMARK       I    between atoms: C34_36  and  C35_37 
ROOT
HETATM    1  C1  STQ 6 321     -50.205 146.770   9.302  1.00 93.31    -0.018 C 
HETATM    2  C2  STQ 6 321     -51.095 147.682  10.147  1.00 93.93     0.045 C 
HETATM    3  C3  STQ 6 321     -50.400 148.413  11.288  1.00 93.98     0.123 C 
HETATM    4  C4  STQ 6 321     -49.133 149.074  10.777  1.00 93.16     0.066 C 
HETATM    5  C5  STQ 6 321     -48.227 148.029  10.184  1.00 92.19    -0.074 C 
HETATM    6  C6  STQ 6 321     -48.715 147.014   9.461  1.00 91.50    -0.048 C 
HETATM    7  C7  STQ 6 321     -47.778 146.094   8.774  1.00 98.60     0.009 C 
HETATM    8  C8  STQ 6 321     -47.203 145.068   9.407  1.00 95.09     0.007 C 
HETATM    9  C9  STQ 6 321     -46.271 144.164   8.700  1.00 91.76    -0.062 C 
HETATM   10  C10 STQ 6 321     -45.567 143.268   9.405  1.00 98.95     0.007 C 
HETATM   11  C11 STQ 6 321     -44.633 142.347   8.760  1.00 96.41     0.001 C 
HETATM   12  C12 STQ 6 321     -43.957 141.486   9.516  1.00 94.60     0.007 C 
HETATM   13  C13 STQ 6 321     -43.004 140.532   8.918  1.00 93.62    -0.062 C 
HETATM   14  C14 STQ 6 321     -42.363 139.649   9.700  1.00 93.18     0.007 C 
HETATM   15  C15 STQ 6 321     -41.422 138.698   9.114  1.00 93.10     0.001 C 
HETATM   16  C16 STQ 6 321     -50.583 146.952   7.836  1.00 93.81     0.020 C 
HETATM   17  C17 STQ 6 321     -50.476 145.325   9.709  1.00 92.50     0.020 C 
HETATM   18  C18 STQ 6 321     -46.755 148.325  10.194  1.00 91.81     0.044 C 
HETATM   19  C19 STQ 6 321     -46.116 144.248   7.210  1.00 91.57     0.048 C 
HETATM   20  C20 STQ 6 321     -42.756 140.550   7.439  1.00 93.41     0.048 C 
HETATM   21  O3  STQ 6 321     -51.276 149.420  11.810  1.00 94.06    -0.395 OA
ATOM     22  H3  STQ 6 321     -50.842 149.876  12.522  1.00  0.00     0.210 HD
HETATM   23  C21 STQ 6 321     -34.176 128.397   6.962  1.00 98.56    -0.035 C 
HETATM   24  C22 STQ 6 321     -33.298 127.746   5.899  1.00 98.19     0.045 C 
HETATM   25  C23 STQ 6 321     -31.801 127.819   6.198  1.00 98.22     0.142 C 
HETATM   26  C24 STQ 6 321     -31.404 129.156   6.780  1.00 99.27     0.007 C 
HETATM   27  C25 STQ 6 321     -32.265 129.927   7.459  1.00 99.66    -0.077 C 
HETATM   28  C26 STQ 6 321     -33.744 129.842   7.204  1.00 99.84     0.044 C 
HETATM   29  C27 STQ 6 321     -34.509 130.438   8.368  1.00 90.68    -0.016 C 
HETATM   30  C28 STQ 6 321     -35.214 131.544   8.144  1.00 92.00     0.003 C 
HETATM   31  C29 STQ 6 321     -36.006 132.232   9.182  1.00 92.38    -0.062 C 
HETATM   32  C30 STQ 6 321     -36.696 133.322   8.812  1.00 92.82     0.007 C 
HETATM   33  C31 STQ 6 321     -37.529 134.109   9.718  1.00 93.26     0.001 C 
HETATM   34  C32 STQ 6 321     -38.210 135.111   9.167  1.00 94.43     0.007 C 
HETATM   35  C33 STQ 6 321     -39.107 136.007   9.924  1.00 94.12    -0.062 C 
HETATM   36  C34 STQ 6 321     -39.826 136.907   9.234  1.00 93.68     0.007 C 
HETATM   37  C35 STQ 6 321     -40.748 137.838   9.877  1.00 93.36     0.001 C 
HETATM   38  C36 STQ 6 321     -34.126 127.597   8.259  1.00 97.63     0.016 C 
HETATM   39  C37 STQ 6 321     -35.613 128.400   6.454  1.00 98.72     0.016 C 
HETATM   40  C38 STQ 6 321     -31.739 130.884   8.487  1.00 99.28     0.044 C 
HETATM   41  C39 STQ 6 321     -36.036 131.731  10.596  1.00 91.58     0.048 C 
HETATM   42  C40 STQ 6 321     -39.210 135.909  11.417  1.00 93.59     0.048 C 
HETATM   43  O23 STQ 6 321     -31.072 127.613   4.982  1.00 97.53    -0.392 OA
ATOM     44  H23 STQ 6 321     -30.141 127.658   5.168  1.00  0.00     0.210 HD
ENDROOT
TORSDOF 12
BEGIN_RES PHE A  61
REMARK  2 active torsions:
REMARK  status: ('A' for Active; 'I' for Inactive)
REMARK    1  A    between atoms: CA   and  CB  
REMARK    2  A    between atoms: CB   and  CG  
ROOT
ATOM      1  CA  PHE A  61     -36.237 128.293  12.768  1.00 39.40     0.164 C 
ENDROOT
BRANCH   1   2
ATOM      2  CB  PHE A  61     -36.813 128.951  11.509  1.00 39.41     0.058 C 
BRANCH   2   3
ATOM      3  CG  PHE A  61     -36.989 128.013  10.339  1.00 39.01    -0.020 A 
ATOM      4  CD2 PHE A  61     -36.217 126.867  10.223  1.00 40.32    -0.004 A 
ATOM      5  CE2 PHE A  61     -36.378 126.006   9.145  1.00 40.20    -0.000 A 
ATOM      6  CZ  PHE A  61     -37.314 126.278   8.173  1.00 40.34    -0.000 A 
ATOM      7  CE1 PHE A  61     -38.090 127.412   8.275  1.00 41.51    -0.000 A 
ATOM      8  CD1 PHE A  61     -37.925 128.276   9.349  1.00 39.94    -0.004 A 
ENDBRANCH   2   3
ENDBRANCH   1   2
END_RES PHE A  61
BEGIN_RES VAL A 134
REMARK  1 active torsions:
REMARK  status: ('A' for Active; 'I' for Inactive)
REMARK    3  A    between atoms: CA   and  CB  
ROOT
ATOM      9  CA  VAL A 134     -29.766 132.051   9.815  1.00 40.75     0.159 C 
ENDROOT
BRANCH   9  10
ATOM     10  CB  VAL A 134     -30.864 132.765   9.009  1.00 40.76     0.029 C 
ATOM     11  CG1 VAL A 134     -32.094 133.007   9.872  1.00 41.76     0.002 C 
ATOM     12  CG2 VAL A 134     -30.361 134.068   8.408  1.00 40.56     0.002 C 
ENDBRANCH   9  10
END_RES VAL A 134
BEGIN_RES TYR A 338
REMARK  3 active torsions:
REMARK  status: ('A' for Active; 'I' for Inactive)
REMARK    4  A    between atoms: CA   and  CB  
REMARK    5  A    between atoms: CB   and  CG  
REMARK    6  A    between atoms: CZ   and  OH  
ROOT
ATOM     13  CA  TYR A 338     -41.631 124.950   6.058  1.00 38.23     0.164 C 
ENDROOT
BRANCH  13  14
ATOM     14  CB  TYR A 338     -41.621 126.456   6.339  1.00 39.15     0.058 C 
BRANCH  14  15
ATOM     15  CG  TYR A 338     -40.422 127.213   5.815  1.00 39.03    -0.020 A 
ATOM     16  CD2 TYR A 338     -40.266 128.559   6.098  1.00 40.65    -0.002 A 
ATOM     17  CE2 TYR A 338     -39.187 129.289   5.621  1.00 40.91     0.024 A 
ATOM     18  CZ  TYR A 338     -38.232 128.668   4.838  1.00 42.33     0.089 A 
ATOM     19  CE1 TYR A 338     -38.364 127.322   4.546  1.00 40.63     0.024 A 
ATOM     20  CD1 TYR A 338     -39.457 126.614   5.021  1.00 39.27    -0.002 A 
BRANCH  18  21
ATOM     21  OH  TYR A 338     -37.162 129.376   4.366  1.00 43.36    -0.359 OA
ATOM     22  HH  TYR A 338     -36.884 129.281   3.462  1.00  0.00     0.217 HD
ENDBRANCH  18  21
ENDBRANCH  14  15
ENDBRANCH  13  14
END_RES TYR A 338
ENDMDL
MODEL 2
REMARK VINA RESULT:    -8.504      1.961     17.104
REMARK INTER + INTRA:          -9.180
REMARK INTER:                  -9.409
REMARK INTRA:                   0.229
REMARK UNBOUND:                -0.676
REMARK  0 active torsions:
REMARK  status: ('A' for Active; 'I' for Inactive)
REMARK       I    between atoms: C3_3  and  O3_21 
REMARK       I    between atoms: C6_6  and  C7_7 
REMARK       I    between atoms: C8_8  and  C9_9 
REMARK       I    between atoms: C10_10  and  C11_11 
REMARK       I    between atoms: C12_12  and  C13_13 
REMARK       I    between atoms: C14_14  and  C15_15 
REMARK       I    between atoms: C23_25  and  O23_43 
REMARK       I    between atoms: C26_28  and  C27_29 
REMARK       I    between atoms: C28_30  and  C29_31 
REMARK       I    between atoms: C30_32  and  C31_33 
REMARK       I    between atoms: C32_34  and  C33_35 
REMARK       I    between atoms: C34_36  and  C35_37 
ROOT
HETATM    1  C1  STQ 6 321     -34.096 128.013   7.294  1.00 93.31    -0.018 C 
HETATM    2  C2  STQ 6 321     -33.245 127.284   6.254  1.00 93.93     0.045 C 
HETATM    3  C3  STQ 6 321     -32.232 128.141   5.507  1.00 93.98     0.123 C 
HETATM    4  C4  STQ 6 321     -31.436 128.974   6.496  1.00 93.16     0.066 C 
HETATM    5  C5  STQ 6 321     -32.376 129.834   7.297  1.00 92.19    -0.074 C 
HETATM    6  C6  STQ 6 321     -33.561 129.371   7.710  1.00 91.50    -0.048 C 
HETATM    7  C7  STQ 6 321     -34.388 130.200   8.619  1.00 98.60     0.009 C 
HETATM    8  C8  STQ 6 321     -35.181 131.172   8.165  1.00 95.09     0.007 C 
HETATM    9  C9  STQ 6 321     -35.996 131.985   9.092  1.00 91.76    -0.062 C 
HETATM   10  C10 STQ 6 321     -36.629 133.071   8.627  1.00 98.95     0.007 C 
HETATM   11  C11 STQ 6 321     -37.451 133.912   9.497  1.00 96.41     0.001 C 
HETATM   12  C12 STQ 6 321     -38.048 134.981   8.977  1.00 94.60     0.007 C 
HETATM   13  C13 STQ 6 321     -38.890 135.863   9.806  1.00 93.62    -0.062 C 
HETATM   14  C14 STQ 6 321     -39.511 136.913   9.248  1.00 93.18     0.007 C 
HETATM   15  C15 STQ 6 321     -40.351 137.787  10.063  1.00 93.10     0.001 C 
HETATM   16  C16 STQ 6 321     -34.213 127.127   8.528  1.00 93.81     0.020 C 
HETATM   17  C17 STQ 6 321     -35.486 128.232   6.706  1.00 92.50     0.020 C 
HETATM   18  C18 STQ 6 321     -31.816 131.113   7.849  1.00 91.81     0.044 C 
HETATM   19  C19 STQ 6 321     -36.115 131.599  10.537  1.00 91.57     0.048 C 
HETATM   20  C20 STQ 6 321     -39.054 135.579  11.270  1.00 93.41     0.048 C 
HETATM   21  O3  STQ 6 321     -31.336 127.293   4.779  1.00 94.06    -0.395 OA
ATOM     22  H3  STQ 6 321     -30.704 127.828   4.313  1.00  0.00     0.210 HD
HETATM   23  C21 STQ 6 321     -49.353 145.993  13.920  1.00 98.56    -0.035 C 
HETATM   24  C22 STQ 6 321     -49.987 146.578  15.177  1.00 98.19     0.045 C 
HETATM   25  C23 STQ 6 321     -49.596 148.029  15.453  1.00 98.22     0.142 C 
HETATM   26  C24 STQ 6 321     -48.136 148.287  15.162  1.00 99.27     0.007 C 
HETATM   27  C25 STQ 6 321     -47.441 147.560  14.276  1.00 99.66    -0.077 C 
HETATM   28  C26 STQ 6 321     -47.834 146.143  13.964  1.00 99.84     0.044 C 
HETATM   29  C27 STQ 6 321     -47.217 145.707  12.651  1.00 90.68    -0.016 C 
HETATM   30  C28 STQ 6 321     -46.307 144.738  12.686  1.00 92.00     0.003 C 
HETATM   31  C29 STQ 6 321     -45.626 144.214  11.486  1.00 92.38    -0.062 C 
HETATM   32  C30 STQ 6 321     -44.750 143.212  11.660  1.00 92.82     0.007 C 
HETATM   33  C31 STQ 6 321     -44.000 142.583  10.575  1.00 93.26     0.001 C 
HETATM   34  C32 STQ 6 321     -43.237 141.547  10.914  1.00 94.43     0.007 C 
HETATM   35  C33 STQ 6 321     -42.416 140.784   9.953  1.00 94.12    -0.062 C 
HETATM   36  C34 STQ 6 321     -41.779 139.689  10.398  1.00 93.68     0.007 C 
HETATM   37  C35 STQ 6 321     -40.946 138.857   9.536  1.00 93.36     0.001 C 
HETATM   38  C36 STQ 6 321     -49.923 146.662  12.674  1.00 97.63     0.016 C 
HETATM   39  C37 STQ 6 321     -49.692 144.508  13.865  1.00 98.72     0.016 C 
HETATM   40  C38 STQ 6 321     -46.258 148.174  13.589  1.00 99.28     0.044 C 
HETATM   41  C39 STQ 6 321     -45.902 144.782  10.125  1.00 91.58     0.048 C 
HETATM   42  C40 STQ 6 321     -42.301 141.222   8.522  1.00 93.59     0.048 C 
HETATM   43  O23 STQ 6 321     -49.848 148.326  16.832  1.00 97.53    -0.392 OA
ATOM     44  H23 STQ 6 321     -49.604 149.228  17.004  1.00  0.00     0.210 HD
ENDROOT
TORSDOF 12
BEGIN_RES PHE A  61
REMARK  2 active torsions:
REMARK  status: ('A' for Active; 'I' for Inactive)
REMARK    1  A    between atoms: CA   and  CB  
REMARK    2  A    between atoms: CB   and  CG  
ROOT
ATOM      1  CA  PHE A  61     -36.237 128.293  12.768  1.00 39.40     0.164 C 
ENDROOT
BRANCH   1   2
ATOM      2  CB  PHE A  61     -36.813 128.951  11.509  1.00 39.41     0.058 C 
BRANCH   2   3
ATOM      3  CG  PHE A  61     -37.067 127.997  10.367  1.00 39.01    -0.020 A 
ATOM      4  CD2 PHE A  61     -36.403 126.783  10.292  1.00 40.32    -0.004 A 
ATOM      5  CE2 PHE A  61     -36.635 125.907   9.239  1.00 40.20    -0.000 A 
ATOM      6  CZ  PHE A  61     -37.537 126.233   8.252  1.00 40.34    -0.000 A 
ATOM      7  CE1 PHE A  61     -38.207 127.435   8.312  1.00 41.51    -0.000 A 
ATOM      8  CD1 PHE A  61     -37.970 128.313   9.362  1.00 39.94    -0.004 A 
ENDBRANCH   2   3
ENDBRANCH   1   2
END_RES PHE A  61
BEGIN_RES VAL A 134
REMARK  1 active torsions:
REMARK  status: ('A' for Active; 'I' for Inactive)
REMARK    3  A    between atoms: CA   and  CB  
ROOT
ATOM      9  CA  VAL A 134     -29.766 132.051   9.815  1.00 40.75     0.159 C 
ENDROOT
BRANCH   9  10
ATOM     10  CB  VAL A 134     -30.864 132.765   9.009  1.00 40.76     0.029 C 
ATOM     11  CG1 VAL A 134     -32.107 132.975   9.862  1.00 41.76     0.002 C 
ATOM     12  CG2 VAL A 134     -30.371 134.085   8.437  1.00 40.56     0.002 C 
ENDBRANCH   9  10
END_RES VAL A 134
BEGIN_RES TYR A 338
REMARK  3 active torsions:
REMARK  status: ('A' for Active; 'I' for Inactive)
REMARK    4  A    between atoms: CA   and  CB  
REMARK    5  A    between atoms: CB   and  CG  
REMARK    6  A    between atoms: CZ   and  OH  
ROOT
ATOM     13  CA  TYR A 338     -41.631 124.950   6.058  1.00 38.23     0.164 C 
ENDROOT
BRANCH  13  14
ATOM     14  CB  TYR A 338     -41.621 126.456   6.339  1.00 39.15     0.058 C 
BRANCH  14  15
ATOM     15  CG  TYR A 338     -40.415 127.211   5.829  1.00 39.03    -0.020 A 
ATOM     16  CD2 TYR A 338     -40.262 128.558   6.108  1.00 40.65    -0.002 A 
ATOM     17  CE2 TYR A 338     -39.177 129.285   5.643  1.00 40.91     0.024 A 
ATOM     18  CZ  TYR A 338     -38.211 128.661   4.876  1.00 42.33     0.089 A 
ATOM     19  CE1 TYR A 338     -38.339 127.314   4.588  1.00 40.63     0.024 A 
ATOM     20  CD1 TYR A 338     -39.438 126.608   5.051  1.00 39.27    -0.002 A 
BRANCH  18  21
ATOM     21  OH  TYR A 338     -37.134 129.367   4.417  1.00 43.36    -0.359 OA
ATOM     22  HH  TYR A 338     -36.409 129.570   4.997  1.00  0.00     0.217 HD
ENDBRANCH  18  21
ENDBRANCH  14  15
ENDBRANCH  13  14
END_RES TYR A 338
ENDMDL
MODEL 3
REMARK VINA RESULT:    -8.343      1.794     17.126
REMARK INTER + INTRA:          -9.019
REMARK INTER:                  -9.018
REMARK INTRA:                  -0.000
REMARK UNBOUND:                -0.676
REMARK  0 active torsions:
REMARK  status: ('A' for Active; 'I' for Inactive)
REMARK       I    between atoms: C3_3  and  O3_21 
REMARK       I    between atoms: C6_6  and  C7_7 
REMARK       I    between atoms: C8_8  and  C9_9 
REMARK       I    between atoms: C10_10  and  C11_11 
REMARK       I    between atoms: C12_12  and  C13_13 
REMARK       I    between atoms: C14_14  and  C15_15 
REMARK       I    between atoms: C23_25  and  O23_43 
REMARK       I    between atoms: C26_28  and  C27_29 
REMARK       I    between atoms: C28_30  and  C29_31 
REMARK       I    between atoms: C30_32  and  C31_33 
REMARK       I    between atoms: C32_34  and  C33_35 
REMARK       I    between atoms: C34_36  and  C35_37 
ROOT
HETATM    1  C1  STQ 6 321     -34.109 128.003   7.256  1.00 93.31    -0.018 C 
HETATM    2  C2  STQ 6 321     -33.199 127.267   6.272  1.00 93.93     0.045 C 
HETATM    3  C3  STQ 6 321     -32.388 128.148   5.332  1.00 93.98     0.123 C 
HETATM    4  C4  STQ 6 321     -31.697 129.243   6.125  1.00 93.16     0.066 C 
HETATM    5  C5  STQ 6 321     -32.728 130.055   6.861  1.00 92.19    -0.074 C 
HETATM    6  C6  STQ 6 321     -33.794 129.478   7.427  1.00 91.50    -0.048 C 
HETATM    7  C7  STQ 6 321     -34.703 130.294   8.266  1.00 98.60     0.009 C 
HETATM    8  C8  STQ 6 321     -35.674 131.043   7.736  1.00 95.09     0.007 C 
HETATM    9  C9  STQ 6 321     -36.567 131.849   8.594  1.00 91.76    -0.062 C 
HETATM   10  C10 STQ 6 321     -37.400 132.731   8.025  1.00 98.95     0.007 C 
HETATM   11  C11 STQ 6 321     -38.308 133.554   8.822  1.00 96.41     0.001 C 
HETATM   12  C12 STQ 6 321     -39.104 134.419   8.199  1.00 94.60     0.007 C 
HETATM   13  C13 STQ 6 321     -40.042 135.272   8.952  1.00 93.62    -0.062 C 
HETATM   14  C14 STQ 6 321     -40.861 136.108   8.295  1.00 93.18     0.007 C 
HETATM   15  C15 STQ 6 321     -41.796 136.951   9.036  1.00 93.10     0.001 C 
HETATM   16  C16 STQ 6 321     -34.010 127.314   8.612  1.00 93.81     0.020 C 
HETATM   17  C17 STQ 6 321     -35.545 127.899   6.750  1.00 92.50     0.020 C 
HETATM   18  C18 STQ 6 321     -32.368 131.478   7.176  1.00 91.81     0.044 C 
HETATM   19  C19 STQ 6 321     -36.544 131.680  10.085  1.00 91.57     0.048 C 
HETATM   20  C20 STQ 6 321     -40.080 135.199  10.450  1.00 93.41     0.048 C 
HETATM   21  O3  STQ 6 321     -31.398 127.352   4.670  1.00 94.06    -0.395 OA
ATOM     22  H3  STQ 6 321     -30.892 127.902   4.084  1.00  0.00     0.210 HD
HETATM   23  C21 STQ 6 321     -51.862 144.099  12.328  1.00 98.56    -0.035 C 
HETATM   24  C22 STQ 6 321     -52.521 144.764  13.530  1.00 98.19     0.045 C 
HETATM   25  C23 STQ 6 321     -52.371 146.285  13.561  1.00 98.22     0.142 C 
HETATM   26  C24 STQ 6 321     -50.993 146.726  13.124  1.00 99.27     0.007 C 
HETATM   27  C25 STQ 6 321     -50.231 145.990  12.304  1.00 99.66    -0.077 C 
HETATM   28  C26 STQ 6 321     -50.391 144.497  12.234  1.00 99.84     0.044 C 
HETATM   29  C27 STQ 6 321     -49.776 143.966  10.955  1.00 90.68    -0.016 C 
HETATM   30  C28 STQ 6 321     -48.712 143.174  11.062  1.00 92.00     0.003 C 
HETATM   31  C29 STQ 6 321     -48.013 142.585   9.903  1.00 92.38    -0.062 C 
HETATM   32  C30 STQ 6 321     -46.972 141.777  10.154  1.00 92.82     0.007 C 
HETATM   33  C31 STQ 6 321     -46.181 141.116   9.119  1.00 93.26     0.001 C 
HETATM   34  C32 STQ 6 321     -45.235 140.283   9.546  1.00 94.43     0.007 C 
HETATM   35  C33 STQ 6 321     -44.346 139.521   8.647  1.00 94.12    -0.062 C 
HETATM   36  C34 STQ 6 321     -43.509 138.627   9.197  1.00 93.68     0.007 C 
HETATM   37  C35 STQ 6 321     -42.591 137.815   8.405  1.00 93.36     0.001 C 
HETATM   38  C36 STQ 6 321     -52.600 144.463  11.044  1.00 97.63     0.016 C 
HETATM   39  C37 STQ 6 321     -51.944 142.589  12.516  1.00 98.72     0.016 C 
HETATM   40  C38 STQ 6 321     -49.206 146.672  11.446  1.00 99.28     0.044 C 
HETATM   41  C39 STQ 6 321     -48.451 142.881   8.498  1.00 91.58     0.048 C 
HETATM   42  C40 STQ 6 321     -44.381 139.742   7.163  1.00 93.59     0.048 C 
HETATM   43  O23 STQ 6 321     -52.600 146.749  14.897  1.00 97.53    -0.392 OA
ATOM     44  H23 STQ 6 321     -52.506 147.695  14.916  1.00  0.00     0.210 HD
ENDROOT
TORSDOF 12
BEGIN_RES PHE A  61
REMARK  2 active torsions:
REMARK  status: ('A' for Active; 'I' for Inactive)
REMARK    1  A    between atoms: CA   and  CB  
REMARK    2  A    between atoms: CB   and  CG  
ROOT
ATOM      1  CA  PHE A  61     -36.237 128.293  12.768  1.00 39.40     0.164 C 
ENDROOT
BRANCH   1   2
ATOM      2  CB  PHE A  61     -36.813 128.951  11.509  1.00 39.41     0.058 C 
BRANCH   2   3
ATOM      3  CG  PHE A  61     -37.065 127.997  10.366  1.00 39.01    -0.020 A 
ATOM      4  CD2 PHE A  61     -36.374 126.799  10.273  1.00 40.32    -0.004 A 
ATOM      5  CE2 PHE A  61     -36.604 125.924   9.219  1.00 40.20    -0.000 A 
ATOM      6  CZ  PHE A  61     -37.531 126.234   8.250  1.00 40.34    -0.000 A 
ATOM      7  CE1 PHE A  61     -38.228 127.419   8.329  1.00 41.51    -0.000 A 
ATOM      8  CD1 PHE A  61     -37.993 128.298   9.379  1.00 39.94    -0.004 A 
ENDBRANCH   2   3
ENDBRANCH   1   2
END_RES PHE A  61
BEGIN_RES VAL A 134
REMARK  1 active torsions:
REMARK  status: ('A' for Active; 'I' for Inactive)
REMARK    3  A    between atoms: CA   and  CB  
ROOT
ATOM      9  CA  VAL A 134     -29.766 132.051   9.815  1.00 40.75     0.159 C 
ENDROOT
BRANCH   9  10
ATOM     10  CB  VAL A 134     -30.864 132.765   9.009  1.00 40.76     0.029 C 
ATOM     11  CG1 VAL A 134     -32.118 132.948   9.852  1.00 41.76     0.002 C 
ATOM     12  CG2 VAL A 134     -30.381 134.100   8.462  1.00 40.56     0.002 C 
ENDBRANCH   9  10
END_RES VAL A 134
BEGIN_RES TYR A 338
REMARK  3 active torsions:
REMARK  status: ('A' for Active; 'I' for Inactive)
REMARK    4  A    between atoms: CA   and  CB  
REMARK    5  A    between atoms: CB   and  CG  
REMARK    6  A    between atoms: CZ   and  OH  
ROOT
ATOM     13  CA  TYR A 338     -41.631 124.950   6.058  1.00 38.23     0.164 C 
ENDROOT
BRANCH  13  14
ATOM     14  CB  TYR A 338     -41.621 126.456   6.339  1.00 39.15     0.058 C 
BRANCH  14  15
ATOM     15  CG  TYR A 338     -40.405 127.207   5.847  1.00 39.03    -0.020 A 
ATOM     16  CD2 TYR A 338     -40.244 128.550   6.143  1.00 40.65    -0.002 A 
ATOM     17  CE2 TYR A 338     -39.150 129.274   5.695  1.00 40.91     0.024 A 
ATOM     18  CZ  TYR A 338     -38.183 128.651   4.928  1.00 42.33     0.089 A 
ATOM     19  CE1 TYR A 338     -38.319 127.309   4.623  1.00 40.63     0.024 A 
ATOM     20  CD1 TYR A 338     -39.428 126.606   5.070  1.00 39.27    -0.002 A 
BRANCH  18  21
ATOM     21  OH  TYR A 338     -37.097 129.354   4.484  1.00 43.36    -0.359 OA
ATOM     22  HH  TYR A 338     -36.833 130.156   4.920  1.00  0.00     0.217 HD
ENDBRANCH  18  21
ENDBRANCH  14  15
ENDBRANCH  13  14
END_RES TYR A 338
ENDMDL
MODEL 4
REMARK VINA RESULT:    -8.079      1.298      1.898
REMARK INTER + INTRA:          -8.755
REMARK INTER:                  -6.561
REMARK INTRA:                  -2.194
REMARK UNBOUND:                -0.676
REMARK  0 active torsions:
REMARK  status: ('A' for Active; 'I' for Inactive)
REMARK       I    between atoms: C3_3  and  O3_21 
REMARK       I    between atoms: C6_6  and  C7_7 
REMARK       I    between atoms: C8_8  and  C9_9 
REMARK       I    between atoms: C10_10  and  C11_11 
REMARK       I    between atoms: C12_12  and  C13_13 
REMARK       I    between atoms: C14_14  and  C15_15 
REMARK       I    between atoms: C23_25  and  O23_43 
REMARK       I    between atoms: C26_28  and  C27_29 
REMARK       I    between atoms: C28_30  and  C29_31 
REMARK       I    between atoms: C30_32  and  C31_33 
REMARK       I    between atoms: C32_34  and  C33_35 
REMARK       I    between atoms: C34_36  and  C35_37 
ROOT
HETATM    1  C1  STQ 6 321     -48.983 146.154  11.299  1.00 93.31    -0.018 C 
HETATM    2  C2  STQ 6 321     -49.561 147.182  12.273  1.00 93.93     0.045 C 
HETATM    3  C3  STQ 6 321     -48.544 147.988  13.068  1.00 93.98     0.123 C 
HETATM    4  C4  STQ 6 321     -47.483 148.541  12.133  1.00 93.16     0.066 C 
HETATM    5  C5  STQ 6 321     -46.814 147.404  11.408  1.00 92.19    -0.074 C 
HETATM    6  C6  STQ 6 321     -47.512 146.347  10.977  1.00 91.50    -0.048 C 
HETATM    7  C7  STQ 6 321     -46.840 145.325  10.139  1.00 98.60     0.009 C 
HETATM    8  C8  STQ 6 321     -46.113 144.341  10.673  1.00 95.09     0.007 C 
HETATM    9  C9  STQ 6 321     -45.452 143.333   9.817  1.00 91.76    -0.062 C 
HETATM   10  C10 STQ 6 321     -44.578 142.479  10.367  1.00 98.95     0.007 C 
HETATM   11  C11 STQ 6 321     -43.896 141.460   9.571  1.00 96.41     0.001 C 
HETATM   12  C12 STQ 6 321     -43.033 140.646  10.174  1.00 94.60     0.007 C 
HETATM   13  C13 STQ 6 321     -42.319 139.599   9.421  1.00 93.62    -0.062 C 
HETATM   14  C14 STQ 6 321     -41.482 138.767  10.061  1.00 93.18     0.007 C 
HETATM   15  C15 STQ 6 321     -40.776 137.724   9.322  1.00 93.10     0.001 C 
HETATM   16  C16 STQ 6 321     -49.786 146.211  10.006  1.00 93.81     0.020 C 
HETATM   17  C17 STQ 6 321     -49.135 144.769  11.918  1.00 92.50     0.020 C 
HETATM   18  C18 STQ 6 321     -45.405 147.635  10.943  1.00 91.81     0.044 C 
HETATM   19  C19 STQ 6 321     -45.756 143.266   8.349  1.00 91.57     0.048 C 
HETATM   20  C20 STQ 6 321     -42.533 139.464   7.943  1.00 93.41     0.048 C 
HETATM   21  O3  STQ 6 321     -49.206 149.077  13.722  1.00 94.06    -0.395 OA
ATOM     22  H3  STQ 6 321     -48.571 149.581  14.218  1.00  0.00     0.210 HD
HETATM   23  C21 STQ 6 321     -34.659 126.956   6.179  1.00 98.56    -0.035 C 
HETATM   24  C22 STQ 6 321     -34.154 126.168   4.976  1.00 98.19     0.045 C 
HETATM   25  C23 STQ 6 321     -32.637 126.203   4.800  1.00 98.22     0.142 C 
HETATM   26  C24 STQ 6 321     -32.065 127.571   5.092  1.00 99.27     0.007 C 
HETATM   27  C25 STQ 6 321     -32.669 128.441   5.914  1.00 99.66    -0.077 C 
HETATM   28  C26 STQ 6 321     -34.156 128.397   6.127  1.00 99.84     0.044 C 
HETATM   29  C27 STQ 6 321     -34.523 129.135   7.398  1.00 90.68    -0.016 C 
HETATM   30  C28 STQ 6 321     -35.248 130.245   7.282  1.00 92.00     0.003 C 
HETATM   31  C29 STQ 6 321     -35.678 131.063   8.432  1.00 92.38    -0.062 C 
HETATM   32  C30 STQ 6 321     -36.434 132.142   8.176  1.00 92.82     0.007 C 
HETATM   33  C31 STQ 6 321     -36.942 133.048   9.203  1.00 93.26     0.001 C 
HETATM   34  C32 STQ 6 321     -37.746 134.021   8.780  1.00 94.43     0.007 C 
HETATM   35  C33 STQ 6 321     -38.359 135.024   9.674  1.00 94.12    -0.062 C 
HETATM   36  C34 STQ 6 321     -39.242 135.885   9.143  1.00 93.68     0.007 C 
HETATM   37  C35 STQ 6 321     -39.913 136.912   9.932  1.00 93.36     0.001 C 
HETATM   38  C36 STQ 6 321     -34.228 126.283   7.477  1.00 97.63     0.016 C 
HETATM   39  C37 STQ 6 321     -36.182 126.973   6.130  1.00 98.72     0.016 C 
HETATM   40  C38 STQ 6 321     -31.842 129.468   6.630  1.00 99.28     0.044 C 
HETATM   41  C39 STQ 6 321     -35.284 130.702   9.834  1.00 91.58     0.048 C 
HETATM   42  C40 STQ 6 321     -38.004 135.075  11.131  1.00 93.59     0.048 C 
HETATM   43  O23 STQ 6 321     -32.315 125.850   3.450  1.00 97.53    -0.392 OA
ATOM     44  H23 STQ 6 321     -31.371 125.872   3.341  1.00  0.00     0.210 HD
ENDROOT
TORSDOF 12
BEGIN_RES PHE A  61
REMARK  2 active torsions:
REMARK  status: ('A' for Active; 'I' for Inactive)
REMARK    1  A    between atoms: CA   and  CB  
REMARK    2  A    between atoms: CB   and  CG  
ROOT
ATOM      1  CA  PHE A  61     -36.237 128.293  12.768  1.00 39.40     0.164 C 
ENDROOT
BRANCH   1   2
ATOM      2  CB  PHE A  61     -36.813 128.951  11.509  1.00 39.41     0.058 C 
BRANCH   2   3
ATOM      3  CG  PHE A  61     -37.077 127.995  10.370  1.00 39.01    -0.020 A 
ATOM      4  CD2 PHE A  61     -38.033 128.280   9.408  1.00 40.32    -0.004 A 
ATOM      5  CE2 PHE A  61     -38.277 127.398   8.363  1.00 40.20    -0.000 A 
ATOM      6  CZ  PHE A  61     -37.565 126.224   8.265  1.00 40.34    -0.000 A 
ATOM      7  CE1 PHE A  61     -36.610 125.927   9.212  1.00 41.51    -0.000 A 
ATOM      8  CD1 PHE A  61     -36.370 126.806  10.261  1.00 39.94    -0.004 A 
ENDBRANCH   2   3
ENDBRANCH   1   2
END_RES PHE A  61
BEGIN_RES VAL A 134
REMARK  1 active torsions:
REMARK  status: ('A' for Active; 'I' for Inactive)
REMARK    3  A    between atoms: CA   and  CB  
ROOT
ATOM      9  CA  VAL A 134     -29.766 132.051   9.815  1.00 40.75     0.159 C 
ENDROOT
BRANCH   9  10
ATOM     10  CB  VAL A 134     -30.864 132.765   9.009  1.00 40.76     0.029 C 
ATOM     11  CG1 VAL A 134     -30.943 132.206   7.596  1.00 41.76     0.002 C 
ATOM     12  CG2 VAL A 134     -32.215 132.677   9.701  1.00 40.56     0.002 C 
ENDBRANCH   9  10
END_RES VAL A 134
BEGIN_RES TYR A 338
REMARK  3 active torsions:
REMARK  status: ('A' for Active; 'I' for Inactive)
REMARK    4  A    between atoms: CA   and  CB  
REMARK    5  A    between atoms: CB   and  CG  
REMARK    6  A    between atoms: CZ   and  OH  
ROOT
ATOM     13  CA  TYR A 338     -41.631 124.950   6.058  1.00 38.23     0.164 C 
ENDROOT
BRANCH  13  14
ATOM     14  CB  TYR A 338     -41.621 126.456   6.339  1.00 39.15     0.058 C 
BRANCH  14  15
ATOM     15  CG  TYR A 338     -40.430 127.216   5.801  1.00 39.03    -0.020 A 
ATOM     16  CD2 TYR A 338     -39.523 126.593   4.961  1.00 40.65    -0.002 A 
ATOM     17  CE2 TYR A 338     -38.412 127.255   4.462  1.00 40.91     0.024 A 
ATOM     18  CZ  TYR A 338     -38.187 128.575   4.805  1.00 42.33     0.089 A 
ATOM     19  CE1 TYR A 338     -39.083 129.220   5.640  1.00 40.63     0.024 A 
ATOM     20  CD1 TYR A 338     -40.181 128.537   6.139  1.00 39.27    -0.002 A 
BRANCH  18  21
ATOM     21  OH  TYR A 338     -37.097 129.239   4.315  1.00 43.36    -0.359 OA
ATOM     22  HH  TYR A 338     -36.754 129.999   4.769  1.00  0.00     0.217 HD
ENDBRANCH  18  21
ENDBRANCH  14  15
ENDBRANCH  13  14
END_RES TYR A 338
ENDMDL
