MODEL 1
REMARK VINA RESULT:   -10.460      0.000      0.000
REMARK INTER + INTRA:         -11.579
REMARK INTER:                 -10.460
REMARK INTRA:                  -1.119
REMARK UNBOUND:                -1.119
REMARK  0 active torsions:
REMARK  status: ('A' for Active; 'I' for Inactive)
REMARK       I    between atoms: C3_3  and  O3_21 
REMARK       I    between atoms: C6_6  and  C7_7 
REMARK       I    between atoms: C8_8  and  C9_9 
REMARK       I    between atoms: C10_10  and  C11_11 
REMARK       I    between atoms: C12_12  and  C13_13 
REMARK       I    between atoms: C14_14  and  C15_15 
REMARK       I    between atoms: C23_25  and  O23_43 
REMARK       I    between atoms: C26_28  and  C27_29 
REMARK       I    between atoms: C28_30  and  C29_31 
REMARK       I    between atoms: C30_32  and  C31_33 
REMARK       I    between atoms: C32_34  and  C33_35 
REMARK       I    between atoms: C34_36  and  C35_37 
ROOT
HETATM    1  C1  STQ 11621     -34.081 128.393   6.829  1.00 87.69    -0.018 C 
HETATM    2  C2  STQ 11621     -33.242 128.102   5.598  1.00 87.69     0.045 C 
HETATM    3  C3  STQ 11621     -31.729 128.139   5.778  1.00 87.69     0.123 C 
HETATM    4  C4  STQ 11621     -31.227 129.081   6.863  1.00 87.69     0.066 C 
HETATM    5  C5  STQ 11621     -32.295 129.991   7.411  1.00 87.69    -0.074 C 
HETATM    6  C6  STQ 11621     -33.540 129.562   7.605  1.00 87.69    -0.048 C 
HETATM    7  C7  STQ 11621     -34.415 130.198   8.616  1.00 87.69     0.009 C 
HETATM    8  C8  STQ 11621     -35.074 131.319   8.341  1.00 87.69     0.007 C 
HETATM    9  C9  STQ 11621     -35.968 131.969   9.311  1.00 87.69    -0.062 C 
HETATM   10  C10 STQ 11621     -36.808 132.879   8.829  1.00 87.69     0.007 C 
HETATM   11  C11 STQ 11621     -37.791 133.631   9.595  1.00 87.69     0.001 C 
HETATM   12  C12 STQ 11621     -38.343 134.655   8.955  1.00 87.69     0.007 C 
HETATM   13  C13 STQ 11621     -39.390 135.498   9.552  1.00 87.69    -0.062 C 
HETATM   14  C14 STQ 11621     -39.955 136.431   8.782  1.00 87.69     0.007 C 
HETATM   15  C15 STQ 11621     -41.034 137.270   9.277  1.00 87.69     0.001 C 
HETATM   16  C16 STQ 11621     -34.204 127.152   7.707  1.00 87.69     0.020 C 
HETATM   17  C17 STQ 11621     -35.464 128.769   6.346  1.00 87.69     0.020 C 
HETATM   18  C18 STQ 11621     -31.556 130.738   8.476  1.00 87.69     0.044 C 
HETATM   19  C19 STQ 11621     -35.928 131.626  10.765  1.00 87.69     0.048 C 
HETATM   20  C20 STQ 11621     -39.830 135.297  10.967  1.00 87.69     0.048 C 
HETATM   21  O3  STQ 11621     -31.312 126.816   6.113  1.00 87.69    -0.395 OA
ATOM     22  H3  STQ 11621     -30.369 126.838   6.225  1.00  0.00     0.210 HD
HETATM   23  C21 STQ 11621     -50.656 145.587   9.063  1.00 87.69    -0.035 C 
HETATM   24  C22 STQ 11621     -51.827 146.318   9.690  1.00 87.69     0.045 C 
HETATM   25  C23 STQ 11621     -51.443 147.693  10.191  1.00 87.69     0.142 C 
HETATM   26  C24 STQ 11621     -50.277 147.549  11.130  1.00 87.69     0.007 C 
HETATM   27  C25 STQ 11621     -49.300 146.665  10.900  1.00 87.69    -0.077 C 
HETATM   28  C26 STQ 11621     -49.492 145.444  10.046  1.00 87.69     0.044 C 
HETATM   29  C27 STQ 11621     -48.219 145.126   9.297  1.00 87.69    -0.016 C 
HETATM   30  C28 STQ 11621     -47.666 143.938   9.468  1.00 87.69     0.003 C 
HETATM   31  C29 STQ 11621     -46.447 143.544   8.756  1.00 87.69    -0.062 C 
HETATM   32  C30 STQ 11621     -46.123 142.256   8.806  1.00 87.69     0.007 C 
HETATM   33  C31 STQ 11621     -44.969 141.677   8.145  1.00 87.69     0.001 C 
HETATM   34  C32 STQ 11621     -44.363 140.703   8.803  1.00 87.69     0.007 C 
HETATM   35  C33 STQ 11621     -43.206 139.991   8.260  1.00 87.69    -0.062 C 
HETATM   36  C34 STQ 11621     -42.691 138.975   8.960  1.00 87.69     0.007 C 
HETATM   37  C35 STQ 11621     -41.573 138.179   8.476  1.00 87.69     0.001 C 
HETATM   38  C36 STQ 11621     -50.240 146.309   7.794  1.00 87.69     0.016 C 
HETATM   39  C37 STQ 11621     -51.160 144.218   8.646  1.00 87.69     0.016 C 
HETATM   40  C38 STQ 11621     -47.968 146.902  11.536  1.00 87.69     0.044 C 
HETATM   41  C39 STQ 11621     -45.626 144.537   8.003  1.00 87.69     0.048 C 
HETATM   42  C40 STQ 11621     -42.650 140.399   6.940  1.00 87.69     0.048 C 
HETATM   43  O23 STQ 11621     -52.570 148.241  10.878  1.00 87.69    -0.392 OA
ATOM     44  H23 STQ 11621     -52.329 149.104  11.192  1.00  0.00     0.210 HD
ENDROOT
TORSDOF 12
BEGIN_RES PHE A  61
REMARK  2 active torsions:
REMARK  status: ('A' for Active; 'I' for Inactive)
REMARK    1  A    between atoms: CA   and  CB  
REMARK    2  A    between atoms: CB   and  CG  
ROOT
ATOM      1  CA  PHE A  61     -36.237 128.293  12.768  1.00 39.40     0.164 C 
ENDROOT
BRANCH   1   2
ATOM      2  CB  PHE A  61     -36.813 128.951  11.509  1.00 39.41     0.058 C 
BRANCH   2   3
ATOM      3  CG  PHE A  61     -36.961 128.019  10.330  1.00 39.01    -0.020 A 
ATOM      4  CD2 PHE A  61     -36.163 126.893  10.209  1.00 40.32    -0.004 A 
ATOM      5  CE2 PHE A  61     -36.298 126.038   9.122  1.00 40.20    -0.000 A 
ATOM      6  CZ  PHE A  61     -37.235 126.298   8.147  1.00 40.34    -0.000 A 
ATOM      7  CE1 PHE A  61     -38.037 127.412   8.254  1.00 41.51    -0.000 A 
ATOM      8  CD1 PHE A  61     -37.898 128.270   9.337  1.00 39.94    -0.004 A 
ENDBRANCH   2   3
ENDBRANCH   1   2
END_RES PHE A  61
BEGIN_RES VAL A 134
REMARK  1 active torsions:
REMARK  status: ('A' for Active; 'I' for Inactive)
REMARK    3  A    between atoms: CA   and  CB  
ROOT
ATOM      9  CA  VAL A 134     -29.766 132.051   9.815  1.00 40.75     0.159 C 
ENDROOT
BRANCH   9  10
ATOM     10  CB  VAL A 134     -30.864 132.765   9.009  1.00 40.76     0.029 C 
ATOM     11  CG1 VAL A 134     -32.104 132.981   9.864  1.00 41.76     0.002 C 
ATOM     12  CG2 VAL A 134     -30.369 134.082   8.431  1.00 40.56     0.002 C 
ENDBRANCH   9  10
END_RES VAL A 134
BEGIN_RES TYR A 338
REMARK  3 active torsions:
REMARK  status: ('A' for Active; 'I' for Inactive)
REMARK    4  A    between atoms: CA   and  CB  
REMARK    5  A    between atoms: CB   and  CG  
REMARK    6  A    between atoms: CZ   and  OH  
ROOT
ATOM     13  CA  TYR A 338     -41.631 124.950   6.058  1.00 38.23     0.164 C 
ENDROOT
BRANCH  13  14
ATOM     14  CB  TYR A 338     -41.621 126.456   6.339  1.00 39.15     0.058 C 
BRANCH  14  15
ATOM     15  CG  TYR A 338     -40.415 127.211   5.829  1.00 39.03    -0.020 A 
ATOM     16  CD2 TYR A 338     -40.256 128.555   6.118  1.00 40.65    -0.002 A 
ATOM     17  CE2 TYR A 338     -39.171 129.282   5.653  1.00 40.91     0.024 A 
ATOM     18  CZ  TYR A 338     -38.211 128.661   4.876  1.00 42.33     0.089 A 
ATOM     19  CE1 TYR A 338     -38.345 127.317   4.578  1.00 40.63     0.024 A 
ATOM     20  CD1 TYR A 338     -39.445 126.611   5.041  1.00 39.27    -0.002 A 
BRANCH  18  21
ATOM     21  OH  TYR A 338     -37.134 129.367   4.416  1.00 43.36    -0.359 OA
ATOM     22  HH  TYR A 338     -37.204 129.888   3.625  1.00  0.00     0.217 HD
ENDBRANCH  18  21
ENDBRANCH  14  15
ENDBRANCH  13  14
END_RES TYR A 338
ENDMDL
MODEL 2
REMARK VINA RESULT:    -9.433      2.204      2.806
REMARK INTER + INTRA:         -10.552
REMARK INTER:                  -7.351
REMARK INTRA:                  -3.201
REMARK UNBOUND:                -1.119
REMARK  0 active torsions:
REMARK  status: ('A' for Active; 'I' for Inactive)
REMARK       I    between atoms: C3_3  and  O3_21 
REMARK       I    between atoms: C6_6  and  C7_7 
REMARK       I    between atoms: C8_8  and  C9_9 
REMARK       I    between atoms: C10_10  and  C11_11 
REMARK       I    between atoms: C12_12  and  C13_13 
REMARK       I    between atoms: C14_14  and  C15_15 
REMARK       I    between atoms: C23_25  and  O23_43 
REMARK       I    between atoms: C26_28  and  C27_29 
REMARK       I    between atoms: C28_30  and  C29_31 
REMARK       I    between atoms: C30_32  and  C31_33 
REMARK       I    between atoms: C32_34  and  C33_35 
REMARK       I    between atoms: C34_36  and  C35_37 
ROOT
HETATM    1  C1  STQ 11621     -34.673 127.730   5.832  1.00 87.69    -0.018 C 
HETATM    2  C2  STQ 11621     -34.121 127.482   4.441  1.00 87.69     0.045 C 
HETATM    3  C3  STQ 11621     -32.612 127.297   4.328  1.00 87.69     0.123 C 
HETATM    4  C4  STQ 11621     -31.788 128.027   5.379  1.00 87.69     0.066 C 
HETATM    5  C5  STQ 11621     -32.591 128.997   6.206  1.00 87.69    -0.074 C 
HETATM    6  C6  STQ 11621     -33.832 128.715   6.596  1.00 87.69    -0.048 C 
HETATM    7  C7  STQ 11621     -34.406 129.333   7.813  1.00 87.69     0.009 C 
HETATM    8  C8  STQ 11621     -34.925 130.556   7.777  1.00 87.69     0.007 C 
HETATM    9  C9  STQ 11621     -35.523 131.196   8.959  1.00 87.69    -0.062 C 
HETATM   10  C10 STQ 11621     -36.288 132.260   8.736  1.00 87.69     0.007 C 
HETATM   11  C11 STQ 11621     -36.993 133.036   9.745  1.00 87.69     0.001 C 
HETATM   12  C12 STQ 11621     -37.488 134.194   9.324  1.00 87.69     0.007 C 
HETATM   13  C13 STQ 11621     -38.271 135.089  10.188  1.00 87.69    -0.062 C 
HETATM   14  C14 STQ 11621     -38.816 136.175   9.634  1.00 87.69     0.007 C 
HETATM   15  C15 STQ 11621     -39.650 137.082  10.405  1.00 87.69     0.001 C 
HETATM   16  C16 STQ 11621     -34.826 126.418   6.597  1.00 87.69     0.020 C 
HETATM   17  C17 STQ 11621     -36.047 128.340   5.664  1.00 87.69     0.020 C 
HETATM   18  C18 STQ 11621     -31.569 129.506   7.174  1.00 87.69     0.044 C 
HETATM   19  C19 STQ 11621     -35.278 130.677  10.339  1.00 87.69     0.048 C 
HETATM   20  C20 STQ 11621     -38.479 134.777  11.636  1.00 87.69     0.048 C 
HETATM   21  O3  STQ 11621     -32.348 125.900   4.449  1.00 87.69    -0.395 OA
ATOM     22  H3  STQ 11621     -31.407 125.785   4.378  1.00  0.00     0.210 HD
HETATM   23  C21 STQ 11621     -47.780 146.556  12.841  1.00 87.69    -0.035 C 
HETATM   24  C22 STQ 11621     -48.696 147.354  13.748  1.00 87.69     0.045 C 
HETATM   25  C23 STQ 11621     -48.025 148.595  14.293  1.00 87.69     0.142 C 
HETATM   26  C24 STQ 11621     -46.746 148.187  14.972  1.00 87.69     0.007 C 
HETATM   27  C25 STQ 11621     -45.971 147.216  14.474  1.00 87.69    -0.077 C 
HETATM   28  C26 STQ 11621     -46.496 146.144  13.562  1.00 87.69     0.044 C 
HETATM   29  C27 STQ 11621     -45.439 145.754  12.555  1.00 87.69    -0.016 C 
HETATM   30  C28 STQ 11621     -45.052 144.491  12.503  1.00 87.69     0.003 C 
HETATM   31  C29 STQ 11621     -44.053 144.030  11.534  1.00 87.69    -0.062 C 
HETATM   32  C30 STQ 11621     -43.924 142.715  11.399  1.00 87.69     0.007 C 
HETATM   33  C31 STQ 11621     -43.007 142.073  10.476  1.00 87.69     0.001 C 
HETATM   34  C32 STQ 11621     -42.449 140.955  10.909  1.00 87.69     0.007 C 
HETATM   35  C33 STQ 11621     -41.529 140.168  10.088  1.00 87.69    -0.062 C 
HETATM   36  C34 STQ 11621     -41.058 139.016  10.576  1.00 87.69     0.007 C 
HETATM   37  C35 STQ 11621     -40.179 138.144   9.812  1.00 87.69     0.001 C 
HETATM   38  C36 STQ 11621     -47.492 147.366  11.589  1.00 87.69     0.016 C 
HETATM   39  C37 STQ 11621     -48.552 145.326  12.402  1.00 87.69     0.016 C 
HETATM   40  C38 STQ 11621     -44.527 147.197  14.860  1.00 87.69     0.044 C 
HETATM   41  C39 STQ 11621     -43.237 144.991  10.734  1.00 87.69     0.048 C 
HETATM   42  C40 STQ 11621     -41.161 140.656   8.731  1.00 87.69     0.048 C 
HETATM   43  O23 STQ 11621     -48.915 149.200  15.234  1.00 87.69    -0.392 OA
ATOM     44  H23 STQ 11621     -48.494 149.980  15.575  1.00  0.00     0.210 HD
ENDROOT
TORSDOF 12
BEGIN_RES PHE A  61
REMARK  2 active torsions:
REMARK  status: ('A' for Active; 'I' for Inactive)
REMARK    1  A    between atoms: CA   and  CB  
REMARK    2  A    between atoms: CB   and  CG  
ROOT
ATOM      1  CA  PHE A  61     -36.237 128.293  12.768  1.00 39.40     0.164 C 
ENDROOT
BRANCH   1   2
ATOM      2  CB  PHE A  61     -36.813 128.951  11.509  1.00 39.41     0.058 C 
BRANCH   2   3
ATOM      3  CG  PHE A  61     -36.939 128.025  10.323  1.00 39.01    -0.020 A 
ATOM      4  CD2 PHE A  61     -37.949 128.197   9.390  1.00 40.32    -0.004 A 
ATOM      5  CE2 PHE A  61     -38.066 127.342   8.301  1.00 40.20    -0.000 A 
ATOM      6  CZ  PHE A  61     -37.172 126.310   8.130  1.00 40.34    -0.000 A 
ATOM      7  CE1 PHE A  61     -36.160 126.127   9.047  1.00 41.51    -0.000 A 
ATOM      8  CD1 PHE A  61     -36.048 126.977  10.140  1.00 39.94    -0.004 A 
ENDBRANCH   2   3
ENDBRANCH   1   2
END_RES PHE A  61
BEGIN_RES VAL A 134
REMARK  1 active torsions:
REMARK  status: ('A' for Active; 'I' for Inactive)
REMARK    3  A    between atoms: CA   and  CB  
ROOT
ATOM      9  CA  VAL A 134     -29.766 132.051   9.815  1.00 40.75     0.159 C 
ENDROOT
BRANCH   9  10
ATOM     10  CB  VAL A 134     -30.864 132.765   9.009  1.00 40.76     0.029 C 
ATOM     11  CG1 VAL A 134     -30.874 132.280   7.567  1.00 41.76     0.002 C 
ATOM     12  CG2 VAL A 134     -32.233 132.589   9.648  1.00 40.56     0.002 C 
ENDBRANCH   9  10
END_RES VAL A 134
BEGIN_RES TYR A 338
REMARK  3 active torsions:
REMARK  status: ('A' for Active; 'I' for Inactive)
REMARK    4  A    between atoms: CA   and  CB  
REMARK    5  A    between atoms: CB   and  CG  
REMARK    6  A    between atoms: CZ   and  OH  
ROOT
ATOM     13  CA  TYR A 338     -41.631 124.950   6.058  1.00 38.23     0.164 C 
ENDROOT
BRANCH  13  14
ATOM     14  CB  TYR A 338     -41.621 126.456   6.339  1.00 39.15     0.058 C 
BRANCH  14  15
ATOM     15  CG  TYR A 338     -40.454 127.224   5.761  1.00 39.03    -0.020 A 
ATOM     16  CD2 TYR A 338     -40.284 128.566   6.054  1.00 40.65    -0.002 A 
ATOM     17  CE2 TYR A 338     -39.235 129.304   5.529  1.00 40.91     0.024 A 
ATOM     18  CZ  TYR A 338     -38.323 128.698   4.686  1.00 42.33     0.089 A 
ATOM     19  CE1 TYR A 338     -38.469 127.356   4.382  1.00 40.63     0.024 A 
ATOM     20  CD1 TYR A 338     -39.533 126.638   4.907  1.00 39.27    -0.002 A 
BRANCH  18  21
ATOM     21  OH  TYR A 338     -37.282 129.415   4.167  1.00 43.36    -0.359 OA
ATOM     22  HH  TYR A 338     -37.207 130.347   4.337  1.00  0.00     0.217 HD
ENDBRANCH  18  21
ENDBRANCH  14  15
ENDBRANCH  13  14
END_RES TYR A 338
ENDMDL
