MODEL 1
REMARK VINA RESULT:   -12.162      0.000      0.000
REMARK INTER + INTRA:         -14.731
REMARK INTER:                 -12.162
REMARK INTRA:                  -2.569
REMARK UNBOUND:                -2.569
REMARK  0 active torsions:
REMARK  status: ('A' for Active; 'I' for Inactive)
REMARK       I    between atoms: C3_3  and  O3_21 
REMARK       I    between atoms: C6_6  and  C7_7 
REMARK       I    between atoms: C8_8  and  C9_9 
REMARK       I    between atoms: C10_10  and  C11_11 
REMARK       I    between atoms: C12_12  and  C13_13 
REMARK       I    between atoms: C14_14  and  C15_15 
REMARK       I    between atoms: C23_25  and  O23_43 
REMARK       I    between atoms: C26_28  and  C27_29 
REMARK       I    between atoms: C28_30  and  C29_31 
REMARK       I    between atoms: C30_32  and  C31_33 
REMARK       I    between atoms: C32_34  and  C33_35 
REMARK       I    between atoms: C34_36  and  C35_37 
ROOT
HETATM    1  C1  STQ 9 617     -34.181 127.265   6.679  1.00 40.88    -0.018 C 
HETATM    2  C2  STQ 9 617     -33.775 126.823   5.272  1.00 40.88     0.045 C 
HETATM    3  C3  STQ 9 617     -32.634 127.568   4.588  1.00 40.88     0.123 C 
HETATM    4  C4  STQ 9 617     -31.624 128.090   5.593  1.00 40.88     0.066 C 
HETATM    5  C5  STQ 9 617     -32.365 128.952   6.578  1.00 40.88    -0.074 C 
HETATM    6  C6  STQ 9 617     -33.504 128.538   7.144  1.00 40.88    -0.048 C 
HETATM    7  C7  STQ 9 617     -34.107 129.313   8.265  1.00 40.88     0.009 C 
HETATM    8  C8  STQ 9 617     -35.044 130.241   8.071  1.00 40.88     0.007 C 
HETATM    9  C9  STQ 9 617     -35.659 131.018   9.168  1.00 40.88    -0.062 C 
HETATM   10  C10 STQ 9 617     -36.504 131.991   8.816  1.00 40.88     0.007 C 
HETATM   11  C11 STQ 9 617     -37.227 132.887   9.707  1.00 40.88     0.001 C 
HETATM   12  C12 STQ 9 617     -37.739 133.946   9.095  1.00 40.88     0.007 C 
HETATM   13  C13 STQ 9 617     -38.550 134.988   9.738  1.00 40.88    -0.062 C 
HETATM   14  C14 STQ 9 617     -39.214 135.814   8.914  1.00 40.88     0.007 C 
HETATM   15  C15 STQ 9 617     -40.105 136.869   9.376  1.00 40.88     0.001 C 
HETATM   16  C16 STQ 9 617     -33.913 126.099   7.629  1.00 40.88     0.020 C 
HETATM   17  C17 STQ 9 617     -35.674 127.544   6.673  1.00 40.88     0.020 C 
HETATM   18  C18 STQ 9 617     -31.571 130.077   7.161  1.00 40.88     0.044 C 
HETATM   19  C19 STQ 9 617     -35.352 130.733  10.606  1.00 40.88     0.048 C 
HETATM   20  C20 STQ 9 617     -38.651 135.097  11.231  1.00 40.88     0.048 C 
HETATM   21  O3  STQ 9 617     -31.971 126.665   3.696  1.00 40.88    -0.395 OA
ATOM     22  H3  STQ 9 617     -32.603 126.338   3.067  1.00  0.00     0.210 HD
HETATM   23  C21 STQ 9 617     -49.628 145.514   9.136  1.00 40.88    -0.035 C 
HETATM   24  C22 STQ 9 617     -50.600 146.212  10.078  1.00 40.88     0.045 C 
HETATM   25  C23 STQ 9 617     -50.029 147.388  10.862  1.00 40.88     0.142 C 
HETATM   26  C24 STQ 9 617     -48.620 147.118  11.325  1.00 40.88     0.007 C 
HETATM   27  C25 STQ 9 617     -47.796 146.389  10.569  1.00 40.88    -0.077 C 
HETATM   28  C26 STQ 9 617     -48.314 145.183   9.842  1.00 40.88     0.044 C 
HETATM   29  C27 STQ 9 617     -47.320 144.652   8.831  1.00 40.88    -0.016 C 
HETATM   30  C28 STQ 9 617     -46.749 143.482   9.078  1.00 40.88     0.003 C 
HETATM   31  C29 STQ 9 617     -45.790 142.860   8.152  1.00 40.88    -0.062 C 
HETATM   32  C30 STQ 9 617     -45.237 141.708   8.537  1.00 40.88     0.007 C 
HETATM   33  C31 STQ 9 617     -44.292 140.929   7.747  1.00 40.88     0.001 C 
HETATM   34  C32 STQ 9 617     -43.586 140.061   8.455  1.00 40.88     0.007 C 
HETATM   35  C33 STQ 9 617     -42.592 139.125   7.925  1.00 40.88    -0.062 C 
HETATM   36  C34 STQ 9 617     -41.904 138.409   8.825  1.00 40.88     0.007 C 
HETATM   37  C35 STQ 9 617     -40.922 137.396   8.465  1.00 40.88     0.001 C 
HETATM   38  C36 STQ 9 617     -49.390 146.373   7.899  1.00 40.88     0.016 C 
HETATM   39  C37 STQ 9 617     -50.283 144.220   8.672  1.00 40.88     0.016 C 
HETATM   40  C38 STQ 9 617     -46.364 146.803  10.450  1.00 40.88     0.044 C 
HETATM   41  C39 STQ 9 617     -45.471 143.484   6.827  1.00 40.88     0.048 C 
HETATM   42  C40 STQ 9 617     -42.392 138.970   6.447  1.00 40.88     0.048 C 
HETATM   43  O23 STQ 9 617     -50.861 147.625  12.002  1.00 40.88    -0.392 OA
ATOM     44  H23 STQ 9 617     -50.505 148.359  12.490  1.00  0.00     0.210 HD
ENDROOT
TORSDOF 12
BEGIN_RES PHE A  61
REMARK  2 active torsions:
REMARK  status: ('A' for Active; 'I' for Inactive)
REMARK    1  A    between atoms: CA   and  CB  
REMARK    2  A    between atoms: CB   and  CG  
ROOT
ATOM      1  CA  PHE A  61     -36.237 128.293  12.768  1.00 39.40     0.164 C 
ENDROOT
BRANCH   1   2
ATOM      2  CB  PHE A  61     -36.813 128.951  11.509  1.00 39.41     0.058 C 
BRANCH   2   3
ATOM      3  CG  PHE A  61     -37.070 127.996  10.368  1.00 39.01    -0.020 A 
ATOM      4  CD2 PHE A  61     -36.329 126.833  10.233  1.00 40.32    -0.004 A 
ATOM      5  CE2 PHE A  61     -36.564 125.957   9.180  1.00 40.20    -0.000 A 
ATOM      6  CZ  PHE A  61     -37.544 126.232   8.254  1.00 40.34    -0.000 A 
ATOM      7  CE1 PHE A  61     -38.290 127.383   8.375  1.00 41.51    -0.000 A 
ATOM      8  CD1 PHE A  61     -38.051 128.262   9.424  1.00 39.94    -0.004 A 
ENDBRANCH   2   3
ENDBRANCH   1   2
END_RES PHE A  61
BEGIN_RES VAL A 134
REMARK  1 active torsions:
REMARK  status: ('A' for Active; 'I' for Inactive)
REMARK    3  A    between atoms: CA   and  CB  
ROOT
ATOM      9  CA  VAL A 134     -29.766 132.051   9.815  1.00 40.75     0.159 C 
ENDROOT
BRANCH   9  10
ATOM     10  CB  VAL A 134     -30.864 132.765   9.009  1.00 40.76     0.029 C 
ATOM     11  CG1 VAL A 134     -30.845 132.313   7.556  1.00 41.76     0.002 C 
ATOM     12  CG2 VAL A 134     -32.239 132.553   9.623  1.00 40.56     0.002 C 
ENDBRANCH   9  10
END_RES VAL A 134
BEGIN_RES TYR A 338
REMARK  3 active torsions:
REMARK  status: ('A' for Active; 'I' for Inactive)
REMARK    4  A    between atoms: CA   and  CB  
REMARK    5  A    between atoms: CB   and  CG  
REMARK    6  A    between atoms: CZ   and  OH  
ROOT
ATOM     13  CA  TYR A 338     -41.631 124.950   6.058  1.00 38.23     0.164 C 
ENDROOT
BRANCH  13  14
ATOM     14  CB  TYR A 338     -41.621 126.456   6.339  1.00 39.15     0.058 C 
BRANCH  14  15
ATOM     15  CG  TYR A 338     -40.413 127.210   5.832  1.00 39.03    -0.020 A 
ATOM     16  CD2 TYR A 338     -40.244 128.549   6.139  1.00 40.65    -0.002 A 
ATOM     17  CE2 TYR A 338     -39.157 129.276   5.678  1.00 40.91     0.024 A 
ATOM     18  CZ  TYR A 338     -38.205 128.660   4.887  1.00 42.33     0.089 A 
ATOM     19  CE1 TYR A 338     -38.350 127.320   4.570  1.00 40.63     0.024 A 
ATOM     20  CD1 TYR A 338     -39.451 126.615   5.030  1.00 39.27    -0.002 A 
BRANCH  18  21
ATOM     21  OH  TYR A 338     -37.127 129.365   4.430  1.00 43.36    -0.359 OA
ATOM     22  HH  TYR A 338     -36.775 130.087   4.938  1.00  0.00     0.217 HD
ENDBRANCH  18  21
ENDBRANCH  14  15
ENDBRANCH  13  14
END_RES TYR A 338
ENDMDL
MODEL 2
REMARK VINA RESULT:    -9.478      1.982     16.681
REMARK INTER + INTRA:         -12.047
REMARK INTER:                 -10.204
REMARK INTRA:                  -1.843
REMARK UNBOUND:                -2.569
REMARK  0 active torsions:
REMARK  status: ('A' for Active; 'I' for Inactive)
REMARK       I    between atoms: C3_3  and  O3_21 
REMARK       I    between atoms: C6_6  and  C7_7 
REMARK       I    between atoms: C8_8  and  C9_9 
REMARK       I    between atoms: C10_10  and  C11_11 
REMARK       I    between atoms: C12_12  and  C13_13 
REMARK       I    between atoms: C14_14  and  C15_15 
REMARK       I    between atoms: C23_25  and  O23_43 
REMARK       I    between atoms: C26_28  and  C27_29 
REMARK       I    between atoms: C28_30  and  C29_31 
REMARK       I    between atoms: C30_32  and  C31_33 
REMARK       I    between atoms: C32_34  and  C33_35 
REMARK       I    between atoms: C34_36  and  C35_37 
ROOT
HETATM    1  C1  STQ 9 617     -47.357 146.112  13.203  1.00 40.88    -0.018 C 
HETATM    2  C2  STQ 9 617     -47.785 146.241  14.665  1.00 40.88     0.045 C 
HETATM    3  C3  STQ 9 617     -46.793 146.850  15.651  1.00 40.88     0.123 C 
HETATM    4  C4  STQ 9 617     -45.891 147.869  14.980  1.00 40.88     0.066 C 
HETATM    5  C5  STQ 9 617     -45.210 147.186  13.827  1.00 40.88    -0.074 C 
HETATM    6  C6  STQ 9 617     -45.898 146.440  12.956  1.00 40.88    -0.048 C 
HETATM    7  C7  STQ 9 617     -45.243 145.946  11.712  1.00 40.88     0.009 C 
HETATM    8  C8  STQ 9 617     -44.672 144.745  11.632  1.00 40.88     0.007 C 
HETATM    9  C9  STQ 9 617     -44.021 144.233  10.407  1.00 40.88    -0.062 C 
HETATM   10  C10 STQ 9 617     -43.395 143.057  10.505  1.00 40.88     0.007 C 
HETATM   11  C11 STQ 9 617     -42.685 142.353   9.447  1.00 40.88     0.001 C 
HETATM   12  C12 STQ 9 617     -41.899 141.381   9.891  1.00 40.88     0.007 C 
HETATM   13  C13 STQ 9 617     -41.101 140.483   9.045  1.00 40.88    -0.062 C 
HETATM   14  C14 STQ 9 617     -40.603 139.391   9.647  1.00 40.88     0.007 C 
HETATM   15  C15 STQ 9 617     -39.836 138.367   8.952  1.00 40.88     0.001 C 
HETATM   16  C16 STQ 9 617     -48.286 146.988  12.365  1.00 40.88     0.020 C 
HETATM   17  C17 STQ 9 617     -47.554 144.666  12.780  1.00 40.88     0.020 C 
HETATM   18  C18 STQ 9 617     -43.843 147.701  13.501  1.00 40.88     0.044 C 
HETATM   19  C19 STQ 9 617     -44.058 144.993   9.118  1.00 40.88     0.048 C 
HETATM   20  C20 STQ 9 617     -40.886 140.761   7.587  1.00 40.88     0.048 C 
HETATM   21  O3  STQ 9 617     -47.530 147.501  16.692  1.00 40.88    -0.395 OA
ATOM     22  H3  STQ 9 617     -48.095 146.864  17.112  1.00  0.00     0.210 HD
HETATM   23  C21 STQ 9 617     -34.614 126.874   6.478  1.00 40.88    -0.035 C 
HETATM   24  C22 STQ 9 617     -34.163 126.022   5.299  1.00 40.88     0.045 C 
HETATM   25  C23 STQ 9 617     -32.798 126.372   4.716  1.00 40.88     0.142 C 
HETATM   26  C24 STQ 9 617     -32.575 127.863   4.676  1.00 40.88     0.007 C 
HETATM   27  C25 STQ 9 617     -33.084 128.641   5.634  1.00 40.88    -0.077 C 
HETATM   28  C26 STQ 9 617     -34.454 128.364   6.177  1.00 40.88     0.044 C 
HETATM   29  C27 STQ 9 617     -34.748 129.163   7.429  1.00 40.88    -0.016 C 
HETATM   30  C28 STQ 9 617     -35.655 130.126   7.353  1.00 40.88     0.003 C 
HETATM   31  C29 STQ 9 617     -36.037 130.945   8.513  1.00 40.88    -0.062 C 
HETATM   32  C30 STQ 9 617     -36.919 131.923   8.299  1.00 40.88     0.007 C 
HETATM   33  C31 STQ 9 617     -37.441 132.818   9.324  1.00 40.88     0.001 C 
HETATM   34  C32 STQ 9 617     -37.976 133.930   8.846  1.00 40.88     0.007 C 
HETATM   35  C33 STQ 9 617     -38.607 134.990   9.636  1.00 40.88    -0.062 C 
HETATM   36  C34 STQ 9 617     -38.985 136.089   8.968  1.00 40.88     0.007 C 
HETATM   37  C35 STQ 9 617     -39.676 137.209   9.592  1.00 40.88     0.001 C 
HETATM   38  C36 STQ 9 617     -33.846 126.478   7.733  1.00 40.88     0.016 C 
HETATM   39  C37 STQ 9 617     -36.085 126.572   6.729  1.00 40.88     0.016 C 
HETATM   40  C38 STQ 9 617     -32.261 129.773   6.162  1.00 40.88     0.044 C 
HETATM   41  C39 STQ 9 617     -35.475 130.674   9.876  1.00 40.88     0.048 C 
HETATM   42  C40 STQ 9 617     -38.834 134.821  11.108  1.00 40.88     0.048 C 
HETATM   43  O23 STQ 9 617     -32.721 125.850   3.386  1.00 40.88    -0.392 OA
ATOM     44  H23 STQ 9 617     -31.870 126.069   3.023  1.00  0.00     0.210 HD
ENDROOT
TORSDOF 12
BEGIN_RES PHE A  61
REMARK  2 active torsions:
REMARK  status: ('A' for Active; 'I' for Inactive)
REMARK    1  A    between atoms: CA   and  CB  
REMARK    2  A    between atoms: CB   and  CG  
ROOT
ATOM      1  CA  PHE A  61     -36.237 128.293  12.768  1.00 39.40     0.164 C 
ENDROOT
BRANCH   1   2
ATOM      2  CB  PHE A  61     -36.813 128.951  11.509  1.00 39.41     0.058 C 
BRANCH   2   3
ATOM      3  CG  PHE A  61     -37.128 127.988  10.390  1.00 39.01    -0.020 A 
ATOM      4  CD2 PHE A  61     -36.441 126.790  10.267  1.00 40.32    -0.004 A 
ATOM      5  CE2 PHE A  61     -36.729 125.906   9.235  1.00 40.20    -0.000 A 
ATOM      6  CZ  PHE A  61     -37.709 126.207   8.317  1.00 40.34    -0.000 A 
ATOM      7  CE1 PHE A  61     -38.403 127.392   8.426  1.00 41.51    -0.000 A 
ATOM      8  CD1 PHE A  61     -38.111 128.279   9.454  1.00 39.94    -0.004 A 
ENDBRANCH   2   3
ENDBRANCH   1   2
END_RES PHE A  61
BEGIN_RES VAL A 134
REMARK  1 active torsions:
REMARK  status: ('A' for Active; 'I' for Inactive)
REMARK    3  A    between atoms: CA   and  CB  
ROOT
ATOM      9  CA  VAL A 134     -29.766 132.051   9.815  1.00 40.75     0.159 C 
ENDROOT
BRANCH   9  10
ATOM     10  CB  VAL A 134     -30.864 132.765   9.009  1.00 40.76     0.029 C 
ATOM     11  CG1 VAL A 134     -30.881 132.273   7.569  1.00 41.76     0.002 C 
ATOM     12  CG2 VAL A 134     -32.232 132.598   9.653  1.00 40.56     0.002 C 
ENDBRANCH   9  10
END_RES VAL A 134
BEGIN_RES TYR A 338
REMARK  3 active torsions:
REMARK  status: ('A' for Active; 'I' for Inactive)
REMARK    4  A    between atoms: CA   and  CB  
REMARK    5  A    between atoms: CB   and  CG  
REMARK    6  A    between atoms: CZ   and  OH  
ROOT
ATOM     13  CA  TYR A 338     -41.631 124.950   6.058  1.00 38.23     0.164 C 
ENDROOT
BRANCH  13  14
ATOM     14  CB  TYR A 338     -41.621 126.456   6.339  1.00 39.15     0.058 C 
BRANCH  14  15
ATOM     15  CG  TYR A 338     -40.405 127.207   5.848  1.00 39.03    -0.020 A 
ATOM     16  CD2 TYR A 338     -40.232 128.544   6.164  1.00 40.65    -0.002 A 
ATOM     17  CE2 TYR A 338     -39.136 129.267   5.718  1.00 40.91     0.024 A 
ATOM     18  CZ  TYR A 338     -38.180 128.651   4.933  1.00 42.33     0.089 A 
ATOM     19  CE1 TYR A 338     -38.329 127.314   4.608  1.00 40.63     0.024 A 
ATOM     20  CD1 TYR A 338     -39.438 126.612   5.053  1.00 39.27    -0.002 A 
BRANCH  18  21
ATOM     21  OH  TYR A 338     -37.094 129.354   4.491  1.00 43.36    -0.359 OA
ATOM     22  HH  TYR A 338     -36.463 129.702   5.110  1.00  0.00     0.217 HD
ENDBRANCH  18  21
ENDBRANCH  14  15
ENDBRANCH  13  14
END_RES TYR A 338
ENDMDL
