MODEL 1
REMARK VINA RESULT:    -8.726      0.000      0.000
REMARK INTER + INTRA:         -11.653
REMARK INTER:                  -8.726
REMARK INTRA:                  -2.926
REMARK UNBOUND:                -2.926
REMARK  0 active torsions:
REMARK  status: ('A' for Active; 'I' for Inactive)
REMARK       I    between atoms: C3_3  and  O3_21 
REMARK       I    between atoms: C6_6  and  C7_7 
REMARK       I    between atoms: C8_8  and  C9_9 
REMARK       I    between atoms: C10_10  and  C11_11 
REMARK       I    between atoms: C12_12  and  C13_13 
REMARK       I    between atoms: C14_14  and  C15_15 
REMARK       I    between atoms: C23_25  and  O23_43 
REMARK       I    between atoms: C26_28  and  C27_29 
REMARK       I    between atoms: C28_30  and  C29_31 
REMARK       I    between atoms: C30_32  and  C31_33 
REMARK       I    between atoms: C32_34  and  C33_35 
REMARK       I    between atoms: C34_36  and  C35_37 
ROOT
HETATM    1  C1  STQ 9 616     -34.452 127.596   6.327  1.00 62.55    -0.018 C 
HETATM    2  C2  STQ 9 616     -33.826 127.202   4.991  1.00 62.55     0.045 C 
HETATM    3  C3  STQ 9 616     -32.440 127.746   4.657  1.00 62.55     0.123 C 
HETATM    4  C4  STQ 9 616     -31.592 127.893   5.906  1.00 62.55     0.066 C 
HETATM    5  C5  STQ 9 616     -32.334 128.817   6.832  1.00 62.55    -0.074 C 
HETATM    6  C6  STQ 9 616     -33.624 128.599   7.114  1.00 62.55    -0.048 C 
HETATM    7  C7  STQ 9 616     -34.254 129.332   8.236  1.00 62.55     0.009 C 
HETATM    8  C8  STQ 9 616     -34.853 130.505   8.049  1.00 62.55     0.007 C 
HETATM    9  C9  STQ 9 616     -35.474 131.241   9.157  1.00 62.55    -0.062 C 
HETATM   10  C10 STQ 9 616     -36.200 132.314   8.840  1.00 62.55     0.007 C 
HETATM   11  C11 STQ 9 616     -36.875 133.173   9.802  1.00 62.55     0.001 C 
HETATM   12  C12 STQ 9 616     -37.669 134.074   9.242  1.00 62.55     0.007 C 
HETATM   13  C13 STQ 9 616     -38.453 135.076   9.965  1.00 62.55    -0.062 C 
HETATM   14  C14 STQ 9 616     -39.208 135.928   9.247  1.00 62.55     0.007 C 
HETATM   15  C15 STQ 9 616     -40.051 136.982   9.804  1.00 62.55     0.001 C 
HETATM   16  C16 STQ 9 616     -34.688 126.310   7.121  1.00 62.55     0.020 C 
HETATM   17  C17 STQ 9 616     -35.803 128.241   6.047  1.00 62.55     0.020 C 
HETATM   18  C18 STQ 9 616     -31.433 129.563   7.774  1.00 62.55     0.044 C 
HETATM   19  C19 STQ 9 616     -35.289 130.793  10.575  1.00 62.55     0.048 C 
HETATM   20  C20 STQ 9 616     -38.359 135.107  11.453  1.00 62.55     0.048 C 
HETATM   21  O3  STQ 9 616     -31.790 126.850   3.748  1.00 62.55    -0.395 OA
ATOM     22  H3  STQ 9 616     -30.927 127.189   3.541  1.00  0.00     0.210 HD
HETATM   23  C21 STQ 9 616     -49.551 145.623  10.066  1.00 62.55    -0.035 C 
HETATM   24  C22 STQ 9 616     -50.348 146.587  10.939  1.00 62.55     0.045 C 
HETATM   25  C23 STQ 9 616     -50.005 148.060  10.748  1.00 62.55     0.142 C 
HETATM   26  C24 STQ 9 616     -48.512 148.260  10.628  1.00 62.55     0.007 C 
HETATM   27  C25 STQ 9 616     -47.723 147.342  10.052  1.00 62.55    -0.077 C 
HETATM   28  C26 STQ 9 616     -48.041 145.876  10.167  1.00 62.55     0.044 C 
HETATM   29  C27 STQ 9 616     -47.304 145.041   9.131  1.00 62.55    -0.016 C 
HETATM   30  C28 STQ 9 616     -46.357 144.195   9.539  1.00 62.55     0.003 C 
HETATM   31  C29 STQ 9 616     -45.599 143.318   8.622  1.00 62.55    -0.062 C 
HETATM   32  C30 STQ 9 616     -44.881 142.324   9.167  1.00 62.55     0.007 C 
HETATM   33  C31 STQ 9 616     -44.087 141.350   8.423  1.00 62.55     0.001 C 
HETATM   34  C32 STQ 9 616     -43.337 140.530   9.161  1.00 62.55     0.007 C 
HETATM   35  C33 STQ 9 616     -42.467 139.471   8.616  1.00 62.55    -0.062 C 
HETATM   36  C34 STQ 9 616     -41.704 138.747   9.456  1.00 62.55     0.007 C 
HETATM   37  C35 STQ 9 616     -40.826 137.681   8.970  1.00 62.55     0.001 C 
HETATM   38  C36 STQ 9 616     -50.033 145.706   8.620  1.00 62.55     0.016 C 
HETATM   39  C37 STQ 9 616     -49.842 144.222  10.584  1.00 62.55     0.016 C 
HETATM   40  C38 STQ 9 616     -46.516 147.807   9.292  1.00 62.55     0.044 C 
HETATM   41  C39 STQ 9 616     -45.637 143.526   7.137  1.00 62.55     0.048 C 
HETATM   42  C40 STQ 9 616     -42.451 139.211   7.141  1.00 62.55     0.048 C 
HETATM   43  O23 STQ 9 616     -50.487 148.787  11.884  1.00 62.55    -0.392 OA
ATOM     44  H23 STQ 9 616     -50.274 149.705  11.764  1.00  0.00     0.210 HD
ENDROOT
TORSDOF 12
BEGIN_RES PHE A  61
REMARK  2 active torsions:
REMARK  status: ('A' for Active; 'I' for Inactive)
REMARK    1  A    between atoms: CA   and  CB  
REMARK    2  A    between atoms: CB   and  CG  
ROOT
ATOM      1  CA  PHE A  61     -36.237 128.293  12.768  1.00 39.40     0.164 C 
ENDROOT
BRANCH   1   2
ATOM      2  CB  PHE A  61     -36.813 128.951  11.509  1.00 39.41     0.058 C 
BRANCH   2   3
ATOM      3  CG  PHE A  61     -37.015 128.007  10.348  1.00 39.01    -0.020 A 
ATOM      4  CD2 PHE A  61     -36.263 126.849  10.233  1.00 40.32    -0.004 A 
ATOM      5  CE2 PHE A  61     -36.448 125.982   9.163  1.00 40.20    -0.000 A 
ATOM      6  CZ  PHE A  61     -37.389 126.262   8.199  1.00 40.34    -0.000 A 
ATOM      7  CE1 PHE A  61     -38.147 127.407   8.300  1.00 41.51    -0.000 A 
ATOM      8  CD1 PHE A  61     -37.958 128.277   9.366  1.00 39.94    -0.004 A 
ENDBRANCH   2   3
ENDBRANCH   1   2
END_RES PHE A  61
BEGIN_RES VAL A 134
REMARK  1 active torsions:
REMARK  status: ('A' for Active; 'I' for Inactive)
REMARK    3  A    between atoms: CA   and  CB  
ROOT
ATOM      9  CA  VAL A 134     -29.766 132.051   9.815  1.00 40.75     0.159 C 
ENDROOT
BRANCH   9  10
ATOM     10  CB  VAL A 134     -30.864 132.765   9.009  1.00 40.76     0.029 C 
ATOM     11  CG1 VAL A 134     -30.891 132.262   7.573  1.00 41.76     0.002 C 
ATOM     12  CG2 VAL A 134     -32.229 132.611   9.661  1.00 40.56     0.002 C 
ENDBRANCH   9  10
END_RES VAL A 134
BEGIN_RES TYR A 338
REMARK  3 active torsions:
REMARK  status: ('A' for Active; 'I' for Inactive)
REMARK    4  A    between atoms: CA   and  CB  
REMARK    5  A    between atoms: CB   and  CG  
REMARK    6  A    between atoms: CZ   and  OH  
ROOT
ATOM     13  CA  TYR A 338     -41.631 124.950   6.058  1.00 38.23     0.164 C 
ENDROOT
BRANCH  13  14
ATOM     14  CB  TYR A 338     -41.621 126.456   6.339  1.00 39.15     0.058 C 
BRANCH  14  15
ATOM     15  CG  TYR A 338     -40.434 127.217   5.796  1.00 39.03    -0.020 A 
ATOM     16  CD2 TYR A 338     -40.279 128.565   6.072  1.00 40.65    -0.002 A 
ATOM     17  CE2 TYR A 338     -39.211 129.297   5.577  1.00 40.91     0.024 A 
ATOM     18  CZ  TYR A 338     -38.264 128.679   4.782  1.00 42.33     0.089 A 
ATOM     19  CE1 TYR A 338     -38.394 127.331   4.496  1.00 40.63     0.024 A 
ATOM     20  CD1 TYR A 338     -39.477 126.619   4.990  1.00 39.27    -0.002 A 
BRANCH  18  21
ATOM     21  OH  TYR A 338     -37.205 129.390   4.293  1.00 43.36    -0.359 OA
ATOM     22  HH  TYR A 338     -36.330 129.245   4.634  1.00  0.00     0.217 HD
ENDBRANCH  18  21
ENDBRANCH  14  15
ENDBRANCH  13  14
END_RES TYR A 338
ENDMDL
MODEL 2
REMARK VINA RESULT:    -6.037      1.657     16.932
REMARK INTER + INTRA:          -8.963
REMARK INTER:                  -8.568
REMARK INTRA:                  -0.395
REMARK UNBOUND:                -2.926
REMARK  0 active torsions:
REMARK  status: ('A' for Active; 'I' for Inactive)
REMARK       I    between atoms: C3_3  and  O3_21 
REMARK       I    between atoms: C6_6  and  C7_7 
REMARK       I    between atoms: C8_8  and  C9_9 
REMARK       I    between atoms: C10_10  and  C11_11 
REMARK       I    between atoms: C12_12  and  C13_13 
REMARK       I    between atoms: C14_14  and  C15_15 
REMARK       I    between atoms: C23_25  and  O23_43 
REMARK       I    between atoms: C26_28  and  C27_29 
REMARK       I    between atoms: C28_30  and  C29_31 
REMARK       I    between atoms: C30_32  and  C31_33 
REMARK       I    between atoms: C32_34  and  C33_35 
REMARK       I    between atoms: C34_36  and  C35_37 
ROOT
HETATM    1  C1  STQ 9 616     -50.503 144.457  13.330  1.00 62.55    -0.018 C 
HETATM    2  C2  STQ 9 616     -50.805 144.935  14.749  1.00 62.55     0.045 C 
HETATM    3  C3  STQ 9 616     -50.119 146.205  15.242  1.00 62.55     0.123 C 
HETATM    4  C4  STQ 9 616     -49.914 147.194  14.111  1.00 62.55     0.066 C 
HETATM    5  C5  STQ 9 616     -49.088 146.496  13.065  1.00 62.55    -0.074 C 
HETATM    6  C6  STQ 9 616     -49.439 145.283  12.625  1.00 62.55    -0.048 C 
HETATM    7  C7  STQ 9 616     -48.796 144.740  11.406  1.00 62.55     0.009 C 
HETATM    8  C8  STQ 9 616     -47.685 144.012  11.474  1.00 62.55     0.007 C 
HETATM    9  C9  STQ 9 616     -47.038 143.476  10.270  1.00 62.55    -0.062 C 
HETATM   10  C10 STQ 9 616     -46.035 142.615  10.453  1.00 62.55     0.007 C 
HETATM   11  C11 STQ 9 616     -45.268 141.994   9.383  1.00 62.55     0.001 C 
HETATM   12  C12 STQ 9 616     -44.440 141.050   9.805  1.00 62.55     0.007 C 
HETATM   13  C13 STQ 9 616     -43.536 140.277   8.952  1.00 62.55    -0.062 C 
HETATM   14  C14 STQ 9 616     -42.749 139.354   9.536  1.00 62.55     0.007 C 
HETATM   15  C15 STQ 9 616     -41.795 138.496   8.838  1.00 62.55     0.001 C 
HETATM   16  C16 STQ 9 616     -51.823 144.454  12.556  1.00 62.55     0.020 C 
HETATM   17  C17 STQ 9 616     -49.990 143.026  13.410  1.00 62.55     0.020 C 
HETATM   18  C18 STQ 9 616     -48.276 147.439  12.224  1.00 62.55     0.044 C 
HETATM   19  C19 STQ 9 616     -47.494 143.890   8.904  1.00 62.55     0.048 C 
HETATM   20  C20 STQ 9 616     -43.527 140.564   7.489  1.00 62.55     0.048 C 
HETATM   21  O3  STQ 9 616     -50.926 146.812  16.258  1.00 62.55    -0.395 OA
ATOM     22  H3  STQ 9 616     -50.500 147.603  16.565  1.00  0.00     0.210 HD
HETATM   23  C21 STQ 9 616     -34.151 128.330   7.049  1.00 62.55    -0.035 C 
HETATM   24  C22 STQ 9 616     -33.290 127.567   6.047  1.00 62.55     0.045 C 
HETATM   25  C23 STQ 9 616     -31.787 127.739   6.233  1.00 62.55     0.142 C 
HETATM   26  C24 STQ 9 616     -31.436 129.176   6.539  1.00 62.55     0.007 C 
HETATM   27  C25 STQ 9 616     -32.258 129.966   7.244  1.00 62.55    -0.077 C 
HETATM   28  C26 STQ 9 616     -33.752 129.809   7.138  1.00 62.55     0.044 C 
HETATM   29  C27 STQ 9 616     -34.487 130.478   8.288  1.00 62.55    -0.016 C 
HETATM   30  C28 STQ 9 616     -35.243 131.547   8.037  1.00 62.55     0.003 C 
HETATM   31  C29 STQ 9 616     -36.021 132.257   9.074  1.00 62.55    -0.062 C 
HETATM   32  C30 STQ 9 616     -36.950 133.134   8.660  1.00 62.55     0.007 C 
HETATM   33  C31 STQ 9 616     -37.824 133.912   9.533  1.00 62.55     0.001 C 
HETATM   34  C32 STQ 9 616     -38.580 134.828   8.928  1.00 62.55     0.007 C 
HETATM   35  C33 STQ 9 616     -39.536 135.716   9.617  1.00 62.55    -0.062 C 
HETATM   36  C34 STQ 9 616     -40.197 136.650   8.909  1.00 62.55     0.007 C 
HETATM   37  C35 STQ 9 616     -41.160 137.553   9.540  1.00 62.55     0.001 C 
HETATM   38  C36 STQ 9 616     -34.087 127.654   8.416  1.00 62.55     0.016 C 
HETATM   39  C37 STQ 9 616     -35.584 128.246   6.546  1.00 62.55     0.016 C 
HETATM   40  C38 STQ 9 616     -31.660 131.011   8.139  1.00 62.55     0.044 C 
HETATM   41  C39 STQ 9 616     -35.787 132.003  10.533  1.00 62.55     0.048 C 
HETATM   42  C40 STQ 9 616     -39.762 135.560  11.089  1.00 62.55     0.048 C 
HETATM   43  O23 STQ 9 616     -31.135 127.345   5.019  1.00 62.55    -0.392 OA
ATOM     44  H23 STQ 9 616     -30.198 127.451   5.135  1.00  0.00     0.210 HD
ENDROOT
TORSDOF 12
BEGIN_RES PHE A  61
REMARK  2 active torsions:
REMARK  status: ('A' for Active; 'I' for Inactive)
REMARK    1  A    between atoms: CA   and  CB  
REMARK    2  A    between atoms: CB   and  CG  
ROOT
ATOM      1  CA  PHE A  61     -36.237 128.293  12.768  1.00 39.40     0.164 C 
ENDROOT
BRANCH   1   2
ATOM      2  CB  PHE A  61     -36.813 128.951  11.509  1.00 39.41     0.058 C 
BRANCH   2   3
ATOM      3  CG  PHE A  61     -37.024 128.005  10.351  1.00 39.01    -0.020 A 
ATOM      4  CD2 PHE A  61     -36.275 126.844  10.235  1.00 40.32    -0.004 A 
ATOM      5  CE2 PHE A  61     -36.468 125.976   9.168  1.00 40.20    -0.000 A 
ATOM      6  CZ  PHE A  61     -37.414 126.257   8.208  1.00 40.34    -0.000 A 
ATOM      7  CE1 PHE A  61     -38.168 127.405   8.310  1.00 41.51    -0.000 A 
ATOM      8  CD1 PHE A  61     -37.970 128.276   9.373  1.00 39.94    -0.004 A 
ENDBRANCH   2   3
ENDBRANCH   1   2
END_RES PHE A  61
BEGIN_RES VAL A 134
REMARK  1 active torsions:
REMARK  status: ('A' for Active; 'I' for Inactive)
REMARK    3  A    between atoms: CA   and  CB  
ROOT
ATOM      9  CA  VAL A 134     -29.766 132.051   9.815  1.00 40.75     0.159 C 
ENDROOT
BRANCH   9  10
ATOM     10  CB  VAL A 134     -30.864 132.765   9.009  1.00 40.76     0.029 C 
ATOM     11  CG1 VAL A 134     -32.106 132.977   9.862  1.00 41.76     0.002 C 
ATOM     12  CG2 VAL A 134     -30.371 134.084   8.435  1.00 40.56     0.002 C 
ENDBRANCH   9  10
END_RES VAL A 134
BEGIN_RES TYR A 338
REMARK  3 active torsions:
REMARK  status: ('A' for Active; 'I' for Inactive)
REMARK    4  A    between atoms: CA   and  CB  
REMARK    5  A    between atoms: CB   and  CG  
REMARK    6  A    between atoms: CZ   and  OH  
ROOT
ATOM     13  CA  TYR A 338     -41.631 124.950   6.058  1.00 38.23     0.164 C 
ENDROOT
BRANCH  13  14
ATOM     14  CB  TYR A 338     -41.621 126.456   6.339  1.00 39.15     0.058 C 
BRANCH  14  15
ATOM     15  CG  TYR A 338     -40.419 127.212   5.821  1.00 39.03    -0.020 A 
ATOM     16  CD2 TYR A 338     -40.261 128.557   6.107  1.00 40.65    -0.002 A 
ATOM     17  CE2 TYR A 338     -39.180 129.286   5.636  1.00 40.91     0.024 A 
ATOM     18  CZ  TYR A 338     -38.223 128.665   4.854  1.00 42.33     0.089 A 
ATOM     19  CE1 TYR A 338     -38.357 127.320   4.558  1.00 40.63     0.024 A 
ATOM     20  CD1 TYR A 338     -39.453 126.613   5.028  1.00 39.27    -0.002 A 
BRANCH  18  21
ATOM     21  OH  TYR A 338     -37.150 129.372   4.387  1.00 43.36    -0.359 OA
ATOM     22  HH  TYR A 338     -37.079 130.305   4.556  1.00  0.00     0.217 HD
ENDBRANCH  18  21
ENDBRANCH  14  15
ENDBRANCH  13  14
END_RES TYR A 338
ENDMDL
