MODEL 1
REMARK VINA RESULT:    -7.816      0.000      0.000
REMARK INTER + INTRA:         -10.504
REMARK INTER:                  -7.816
REMARK INTRA:                  -2.688
REMARK UNBOUND:                -2.688
REMARK  0 active torsions:
REMARK  status: ('A' for Active; 'I' for Inactive)
REMARK       I    between atoms: C3_3  and  O3_21 
REMARK       I    between atoms: C6_6  and  C7_7 
REMARK       I    between atoms: C8_8  and  C9_9 
REMARK       I    between atoms: C10_10  and  C11_11 
REMARK       I    between atoms: C12_12  and  C13_13 
REMARK       I    between atoms: C14_14  and  C15_15 
REMARK       I    between atoms: C23_25  and  O23_43 
REMARK       I    between atoms: C26_28  and  C27_29 
REMARK       I    between atoms: C28_30  and  C29_31 
REMARK       I    between atoms: C30_32  and  C31_33 
REMARK       I    between atoms: C32_34  and  C33_35 
REMARK       I    between atoms: C34_36  and  C35_37 
ROOT
HETATM    1  C1  STQ I8620     -34.554 126.930   6.206  1.00 16.69    -0.018 C 
HETATM    2  C2  STQ I8620     -34.026 126.182   4.972  1.00 15.88     0.045 C 
HETATM    3  C3  STQ I8620     -32.939 126.841   4.134  1.00 15.19     0.123 C 
HETATM    4  C4  STQ I8620     -31.983 127.741   4.922  1.00 16.30     0.066 C 
HETATM    5  C5  STQ I8620     -32.534 128.512   6.079  1.00 15.97    -0.074 C 
HETATM    6  C6  STQ I8620     -33.717 128.159   6.684  1.00 16.56    -0.048 C 
HETATM    7  C7  STQ I8620     -34.245 128.939   7.804  1.00 18.44     0.009 C 
HETATM    8  C8  STQ I8620     -34.886 130.118   7.721  1.00 18.42     0.007 C 
HETATM    9  C9  STQ I8620     -35.300 130.951   8.837  1.00 20.59    -0.062 C 
HETATM   10  C10 STQ I8620     -36.026 132.055   8.561  1.00 20.51     0.007 C 
HETATM   11  C11 STQ I8620     -36.539 132.994   9.508  1.00 21.63     0.001 C 
HETATM   12  C12 STQ I8620     -37.400 133.938   9.117  1.00 21.98     0.007 C 
HETATM   13  C13 STQ I8620     -38.059 134.957   9.932  1.00 23.28    -0.062 C 
HETATM   14  C14 STQ I8620     -38.985 135.726   9.317  1.00 23.72     0.007 C 
HETATM   15  C15 STQ I8620     -39.827 136.733   9.900  1.00 25.53     0.001 C 
HETATM   16  C16 STQ I8620     -34.585 125.850   7.303  1.00 15.77     0.020 C 
HETATM   17  C17 STQ I8620     -36.012 127.332   5.911  1.00 17.40     0.020 C 
HETATM   18  C18 STQ I8620     -31.603 129.635   6.376  1.00 16.04     0.044 C 
HETATM   19  C19 STQ I8620     -34.935 130.495  10.227  1.00 19.43     0.048 C 
HETATM   20  C20 STQ I8620     -37.717 135.026  11.397  1.00 18.80     0.048 C 
HETATM   21  O3  STQ I8620     -32.207 125.857   3.432  1.00 16.64    -0.395 OA
ATOM     22  H3  STQ I8620     -31.530 126.268   2.909  1.00  0.00     0.210 HD
HETATM   23  C21 STQ I8620     -49.660 144.610  12.561  1.00 35.64    -0.035 C 
HETATM   24  C22 STQ I8620     -50.508 145.580  13.411  1.00 36.29     0.045 C 
HETATM   25  C23 STQ I8620     -50.322 147.064  13.091  1.00 35.64     0.142 C 
HETATM   26  C24 STQ I8620     -48.864 147.423  12.775  1.00 36.30     0.007 C 
HETATM   27  C25 STQ I8620     -47.921 146.506  12.463  1.00 36.39    -0.077 C 
HETATM   28  C26 STQ I8620     -48.159 145.002  12.389  1.00 35.08     0.044 C 
HETATM   29  C27 STQ I8620     -47.442 144.417  11.187  1.00 35.57    -0.016 C 
HETATM   30  C28 STQ I8620     -46.492 143.447  11.259  1.00 34.59     0.003 C 
HETATM   31  C29 STQ I8620     -45.882 142.712  10.132  1.00 33.65    -0.062 C 
HETATM   32  C30 STQ I8620     -44.948 141.777  10.411  1.00 30.63     0.007 C 
HETATM   33  C31 STQ I8620     -44.276 140.912   9.478  1.00 28.70     0.001 C 
HETATM   34  C32 STQ I8620     -43.324 140.043   9.878  1.00 25.67     0.007 C 
HETATM   35  C33 STQ I8620     -42.539 139.098   9.082  1.00 24.63    -0.062 C 
HETATM   36  C34 STQ I8620     -41.608 138.359   9.721  1.00 23.98     0.007 C 
HETATM   37  C35 STQ I8620     -40.723 137.385   9.149  1.00 25.49     0.001 C 
HETATM   38  C36 STQ I8620     -50.353 144.475  11.183  1.00 33.78     0.016 C 
HETATM   39  C37 STQ I8620     -49.753 143.248  13.252  1.00 35.48     0.016 C 
HETATM   40  C38 STQ I8620     -46.577 147.103  12.226  1.00 34.23     0.044 C 
HETATM   41  C39 STQ I8620     -46.337 143.056   8.736  1.00 33.66     0.048 C 
HETATM   42  C40 STQ I8620     -42.804 139.029   7.613  1.00 25.13     0.048 C 
HETATM   43  O23 STQ I8620     -50.811 147.860  14.161  1.00 35.00    -0.392 OA
ATOM     44  H23 STQ I8620     -50.696 148.781  13.963  1.00  0.00     0.210 HD
ENDROOT
TORSDOF 12
BEGIN_RES PHE A  61
REMARK  2 active torsions:
REMARK  status: ('A' for Active; 'I' for Inactive)
REMARK    1  A    between atoms: CA   and  CB  
REMARK    2  A    between atoms: CB   and  CG  
ROOT
ATOM      1  CA  PHE A  61     -36.237 128.293  12.768  1.00 39.40     0.164 C 
ENDROOT
BRANCH   1   2
ATOM      2  CB  PHE A  61     -36.813 128.951  11.509  1.00 39.41     0.058 C 
BRANCH   2   3
ATOM      3  CG  PHE A  61     -37.057 127.999  10.363  1.00 39.01    -0.020 A 
ATOM      4  CD2 PHE A  61     -36.338 126.818  10.254  1.00 40.32    -0.004 A 
ATOM      5  CE2 PHE A  61     -36.561 125.944   9.197  1.00 40.20    -0.000 A 
ATOM      6  CZ  PHE A  61     -37.506 126.239   8.241  1.00 40.34    -0.000 A 
ATOM      7  CE1 PHE A  61     -38.230 127.407   8.336  1.00 41.51    -0.000 A 
ATOM      8  CD1 PHE A  61     -38.003 128.284   9.389  1.00 39.94    -0.004 A 
ENDBRANCH   2   3
ENDBRANCH   1   2
END_RES PHE A  61
BEGIN_RES VAL A 134
REMARK  1 active torsions:
REMARK  status: ('A' for Active; 'I' for Inactive)
REMARK    3  A    between atoms: CA   and  CB  
ROOT
ATOM      9  CA  VAL A 134     -29.766 132.051   9.815  1.00 40.75     0.159 C 
ENDROOT
BRANCH   9  10
ATOM     10  CB  VAL A 134     -30.864 132.765   9.009  1.00 40.76     0.029 C 
ATOM     11  CG1 VAL A 134     -31.175 132.002   7.730  1.00 41.76     0.002 C 
ATOM     12  CG2 VAL A 134     -32.124 132.970   9.836  1.00 40.56     0.002 C 
ENDBRANCH   9  10
END_RES VAL A 134
BEGIN_RES TYR A 338
REMARK  3 active torsions:
REMARK  status: ('A' for Active; 'I' for Inactive)
REMARK    4  A    between atoms: CA   and  CB  
REMARK    5  A    between atoms: CB   and  CG  
REMARK    6  A    between atoms: CZ   and  OH  
ROOT
ATOM     13  CA  TYR A 338     -41.631 124.950   6.058  1.00 38.23     0.164 C 
ENDROOT
BRANCH  13  14
ATOM     14  CB  TYR A 338     -41.621 126.456   6.339  1.00 39.15     0.058 C 
BRANCH  14  15
ATOM     15  CG  TYR A 338     -40.431 127.216   5.800  1.00 39.03    -0.020 A 
ATOM     16  CD2 TYR A 338     -40.248 128.551   6.120  1.00 40.65    -0.002 A 
ATOM     17  CE2 TYR A 338     -39.177 129.282   5.632  1.00 40.91     0.024 A 
ATOM     18  CZ  TYR A 338     -38.256 128.677   4.798  1.00 42.33     0.089 A 
ATOM     19  CE1 TYR A 338     -38.414 127.343   4.468  1.00 40.63     0.024 A 
ATOM     20  CD1 TYR A 338     -39.499 126.632   4.956  1.00 39.27    -0.002 A 
BRANCH  18  21
ATOM     21  OH  TYR A 338     -37.193 129.388   4.314  1.00 43.36    -0.359 OA
ATOM     22  HH  TYR A 338     -36.308 129.058   4.416  1.00  0.00     0.217 HD
ENDBRANCH  18  21
ENDBRANCH  14  15
ENDBRANCH  13  14
END_RES TYR A 338
ENDMDL
