MODEL 1
REMARK VINA RESULT:   -10.153      0.000      0.000
REMARK INTER + INTRA:         -10.862
REMARK INTER:                 -10.153
REMARK INTRA:                  -0.709
REMARK UNBOUND:                -0.709
REMARK  0 active torsions:
REMARK  status: ('A' for Active; 'I' for Inactive)
REMARK       I    between atoms: C3_3  and  O3_21 
REMARK       I    between atoms: C6_6  and  C7_7 
REMARK       I    between atoms: C8_8  and  C9_9 
REMARK       I    between atoms: C10_10  and  C11_11 
REMARK       I    between atoms: C12_12  and  C13_13 
REMARK       I    between atoms: C14_14  and  C15_15 
REMARK       I    between atoms: C23_25  and  O23_43 
REMARK       I    between atoms: C26_28  and  C27_29 
REMARK       I    between atoms: C28_30  and  C29_31 
REMARK       I    between atoms: C30_32  and  C31_33 
REMARK       I    between atoms: C32_34  and  C33_35 
REMARK       I    between atoms: C34_36  and  C35_37 
ROOT
HETATM    1  C1  STQ 9 619     -49.830 145.440  12.725  1.00 47.88    -0.018 C 
HETATM    2  C2  STQ 9 619     -50.785 146.393  13.416  1.00 47.88     0.045 C 
HETATM    3  C3  STQ 9 619     -50.169 146.912  14.700  1.00 47.88     0.123 C 
HETATM    4  C4  STQ 9 619     -48.957 147.758  14.355  1.00 47.88     0.066 C 
HETATM    5  C5  STQ 9 619     -48.003 146.969  13.500  1.00 47.88    -0.074 C 
HETATM    6  C6  STQ 9 619     -48.428 146.015  12.662  1.00 47.88    -0.048 C 
HETATM    7  C7  STQ 9 619     -47.520 145.506  11.615  1.00 47.88     0.009 C 
HETATM    8  C8  STQ 9 619     -46.563 144.628  11.902  1.00 47.88     0.007 C 
HETATM    9  C9  STQ 9 619     -45.694 144.141  10.826  1.00 47.88    -0.062 C 
HETATM   10  C10 STQ 9 619     -44.918 143.084  11.074  1.00 47.88     0.007 C 
HETATM   11  C11 STQ 9 619     -44.027 142.504  10.081  1.00 47.88     0.001 C 
HETATM   12  C12 STQ 9 619     -43.234 141.548  10.536  1.00 47.88     0.007 C 
HETATM   13  C13 STQ 9 619     -42.284 140.810   9.694  1.00 47.88    -0.062 C 
HETATM   14  C14 STQ 9 619     -41.770 139.700  10.226  1.00 47.88     0.007 C 
HETATM   15  C15 STQ 9 619     -40.849 138.824   9.525  1.00 47.88     0.001 C 
HETATM   16  C16 STQ 9 619     -50.368 145.161  11.327  1.00 47.88     0.020 C 
HETATM   17  C17 STQ 9 619     -49.778 144.127  13.494  1.00 47.88     0.020 C 
HETATM   18  C18 STQ 9 619     -46.745 147.741  13.229  1.00 47.88     0.044 C 
HETATM   19  C19 STQ 9 619     -45.693 144.830   9.498  1.00 47.88     0.048 C 
HETATM   20  C20 STQ 9 619     -41.927 141.267   8.314  1.00 47.88     0.048 C 
HETATM   21  O3  STQ 9 619     -51.127 147.695  15.412  1.00 47.88    -0.395 OA
ATOM     22  H3  STQ 9 619     -51.885 147.166  15.628  1.00  0.00     0.210 HD
HETATM   23  C21 STQ 9 619     -34.194 128.443   6.883  1.00 47.88    -0.035 C 
HETATM   24  C22 STQ 9 619     -33.429 127.789   5.744  1.00 47.88     0.045 C 
HETATM   25  C23 STQ 9 619     -31.923 127.749   5.966  1.00 47.88     0.142 C 
HETATM   26  C24 STQ 9 619     -31.397 129.037   6.556  1.00 47.88     0.007 C 
HETATM   27  C25 STQ 9 619     -32.166 129.844   7.300  1.00 47.88    -0.077 C 
HETATM   28  C26 STQ 9 619     -33.660 129.854   7.128  1.00 47.88     0.044 C 
HETATM   29  C27 STQ 9 619     -34.345 130.435   8.343  1.00 47.88    -0.016 C 
HETATM   30  C28 STQ 9 619     -35.065 131.539   8.178  1.00 47.88     0.003 C 
HETATM   31  C29 STQ 9 619     -35.789 132.186   9.283  1.00 47.88    -0.062 C 
HETATM   32  C30 STQ 9 619     -36.770 133.023   8.943  1.00 47.88     0.007 C 
HETATM   33  C31 STQ 9 619     -37.601 133.764   9.880  1.00 47.88     0.001 C 
HETATM   34  C32 STQ 9 619     -38.233 134.804   9.351  1.00 47.88     0.007 C 
HETATM   35  C33 STQ 9 619     -39.123 135.696  10.107  1.00 47.88    -0.062 C 
HETATM   36  C34 STQ 9 619     -39.651 136.735   9.455  1.00 47.88     0.007 C 
HETATM   37  C35 STQ 9 619     -40.550 137.671  10.114  1.00 47.88     0.001 C 
HETATM   38  C36 STQ 9 619     -34.109 127.599   8.150  1.00 47.88     0.016 C 
HETATM   39  C37 STQ 9 619     -35.660 128.508   6.467  1.00 47.88     0.016 C 
HETATM   40  C38 STQ 9 619     -31.516 130.748   8.306  1.00 47.88     0.044 C 
HETATM   41  C39 STQ 9 619     -35.450 131.908  10.715  1.00 47.88     0.048 C 
HETATM   42  C40 STQ 9 619     -39.426 135.454  11.554  1.00 47.88     0.048 C 
HETATM   43  O23 STQ 9 619     -31.303 127.545   4.694  1.00 47.88    -0.392 OA
ATOM     44  H23 STQ 9 619     -30.364 127.519   4.833  1.00  0.00     0.210 HD
ENDROOT
TORSDOF 12
BEGIN_RES PHE A  61
REMARK  2 active torsions:
REMARK  status: ('A' for Active; 'I' for Inactive)
REMARK    1  A    between atoms: CA   and  CB  
REMARK    2  A    between atoms: CB   and  CG  
ROOT
ATOM      1  CA  PHE A  61     -36.237 128.293  12.768  1.00 39.40     0.164 C 
ENDROOT
BRANCH   1   2
ATOM      2  CB  PHE A  61     -36.813 128.951  11.509  1.00 39.41     0.058 C 
BRANCH   2   3
ATOM      3  CG  PHE A  61     -36.989 128.013  10.339  1.00 39.01    -0.020 A 
ATOM      4  CD2 PHE A  61     -36.193 126.886  10.205  1.00 40.32    -0.004 A 
ATOM      5  CE2 PHE A  61     -36.354 126.025   9.126  1.00 40.20    -0.000 A 
ATOM      6  CZ  PHE A  61     -37.314 126.278   8.173  1.00 40.34    -0.000 A 
ATOM      7  CE1 PHE A  61     -38.115 127.393   8.294  1.00 41.51    -0.000 A 
ATOM      8  CD1 PHE A  61     -37.950 128.257   9.368  1.00 39.94    -0.004 A 
ENDBRANCH   2   3
ENDBRANCH   1   2
END_RES PHE A  61
BEGIN_RES VAL A 134
REMARK  1 active torsions:
REMARK  status: ('A' for Active; 'I' for Inactive)
REMARK    3  A    between atoms: CA   and  CB  
ROOT
ATOM      9  CA  VAL A 134     -29.766 132.051   9.815  1.00 40.75     0.159 C 
ENDROOT
BRANCH   9  10
ATOM     10  CB  VAL A 134     -30.864 132.765   9.009  1.00 40.76     0.029 C 
ATOM     11  CG1 VAL A 134     -32.094 133.006   9.872  1.00 41.76     0.002 C 
ATOM     12  CG2 VAL A 134     -30.361 134.069   8.408  1.00 40.56     0.002 C 
ENDBRANCH   9  10
END_RES VAL A 134
BEGIN_RES TYR A 338
REMARK  3 active torsions:
REMARK  status: ('A' for Active; 'I' for Inactive)
REMARK    4  A    between atoms: CA   and  CB  
REMARK    5  A    between atoms: CB   and  CG  
REMARK    6  A    between atoms: CZ   and  OH  
ROOT
ATOM     13  CA  TYR A 338     -41.631 124.950   6.058  1.00 38.23     0.164 C 
ENDROOT
BRANCH  13  14
ATOM     14  CB  TYR A 338     -41.621 126.456   6.339  1.00 39.15     0.058 C 
BRANCH  14  15
ATOM     15  CG  TYR A 338     -40.425 127.214   5.811  1.00 39.03    -0.020 A 
ATOM     16  CD2 TYR A 338     -40.263 128.558   6.101  1.00 40.65    -0.002 A 
ATOM     17  CE2 TYR A 338     -39.187 129.288   5.621  1.00 40.91     0.024 A 
ATOM     18  CZ  TYR A 338     -38.239 128.671   4.826  1.00 42.33     0.089 A 
ATOM     19  CE1 TYR A 338     -38.377 127.327   4.525  1.00 40.63     0.024 A 
ATOM     20  CD1 TYR A 338     -39.467 126.618   5.005  1.00 39.27    -0.002 A 
BRANCH  18  21
ATOM     21  OH  TYR A 338     -37.172 129.380   4.350  1.00 43.36    -0.359 OA
ATOM     22  HH  TYR A 338     -36.626 129.882   4.943  1.00  0.00     0.217 HD
ENDBRANCH  18  21
ENDBRANCH  14  15
ENDBRANCH  13  14
END_RES TYR A 338
ENDMDL
MODEL 2
REMARK VINA RESULT:    -7.330      1.510     16.969
REMARK INTER + INTRA:          -8.039
REMARK INTER:                  -4.056
REMARK INTRA:                  -3.983
REMARK UNBOUND:                -0.709
REMARK  0 active torsions:
REMARK  status: ('A' for Active; 'I' for Inactive)
REMARK       I    between atoms: C3_3  and  O3_21 
REMARK       I    between atoms: C6_6  and  C7_7 
REMARK       I    between atoms: C8_8  and  C9_9 
REMARK       I    between atoms: C10_10  and  C11_11 
REMARK       I    between atoms: C12_12  and  C13_13 
REMARK       I    between atoms: C14_14  and  C15_15 
REMARK       I    between atoms: C23_25  and  O23_43 
REMARK       I    between atoms: C26_28  and  C27_29 
REMARK       I    between atoms: C28_30  and  C29_31 
REMARK       I    between atoms: C30_32  and  C31_33 
REMARK       I    between atoms: C32_34  and  C33_35 
REMARK       I    between atoms: C34_36  and  C35_37 
ROOT
HETATM    1  C1  STQ 9 619     -34.666 126.957   5.391  1.00 47.88    -0.018 C 
HETATM    2  C2  STQ 9 619     -33.705 126.001   4.714  1.00 47.88     0.045 C 
HETATM    3  C3  STQ 9 619     -32.734 126.766   3.837  1.00 47.88     0.123 C 
HETATM    4  C4  STQ 9 619     -31.859 127.637   4.719  1.00 47.88     0.066 C 
HETATM    5  C5  STQ 9 619     -32.716 128.518   5.588  1.00 47.88    -0.074 C 
HETATM    6  C6  STQ 9 619     -33.932 128.136   5.999  1.00 47.88    -0.048 C 
HETATM    7  C7  STQ 9 619     -34.590 128.865   7.102  1.00 47.88     0.009 C 
HETATM    8  C8  STQ 9 619     -35.184 130.036   6.895  1.00 47.88     0.007 C 
HETATM    9  C9  STQ 9 619     -35.837 130.716   8.019  1.00 47.88    -0.062 C 
HETATM   10  C10 STQ 9 619     -36.639 131.748   7.750  1.00 47.88     0.007 C 
HETATM   11  C11 STQ 9 619     -37.350 132.488   8.780  1.00 47.88     0.001 C 
HETATM   12  C12 STQ 9 619     -37.992 133.562   8.351  1.00 47.88     0.007 C 
HETATM   13  C13 STQ 9 619     -38.798 134.430   9.218  1.00 47.88    -0.062 C 
HETATM   14  C14 STQ 9 619     -39.603 135.293   8.598  1.00 47.88     0.007 C 
HETATM   15  C15 STQ 9 619     -40.501 136.198   9.293  1.00 47.88     0.001 C 
HETATM   16  C16 STQ 9 619     -35.433 126.184   6.457  1.00 47.88     0.020 C 
HETATM   17  C17 STQ 9 619     -35.661 127.486   4.367  1.00 47.88     0.020 C 
HETATM   18  C18 STQ 9 619     -31.881 129.468   6.396  1.00 47.88     0.044 C 
HETATM   19  C19 STQ 9 619     -35.590 130.248   9.418  1.00 47.88     0.048 C 
HETATM   20  C20 STQ 9 619     -38.732 134.339  10.711  1.00 47.88     0.048 C 
HETATM   21  O3  STQ 9 619     -31.927 125.850   3.098  1.00 47.88    -0.395 OA
ATOM     22  H3  STQ 9 619     -32.474 125.304   2.546  1.00  0.00     0.210 HD
HETATM   23  C21 STQ 9 619     -50.062 144.229  11.063  1.00 47.88    -0.035 C 
HETATM   24  C22 STQ 9 619     -50.906 144.833  12.173  1.00 47.88     0.045 C 
HETATM   25  C23 STQ 9 619     -50.649 146.318  12.394  1.00 47.88     0.142 C 
HETATM   26  C24 STQ 9 619     -49.179 146.661  12.324  1.00 47.88     0.007 C 
HETATM   27  C25 STQ 9 619     -48.310 145.925  11.616  1.00 47.88    -0.077 C 
HETATM   28  C26 STQ 9 619     -48.579 144.470  11.344  1.00 47.88     0.044 C 
HETATM   29  C27 STQ 9 619     -47.768 143.976  10.169  1.00 47.88    -0.016 C 
HETATM   30  C28 STQ 9 619     -46.888 143.006  10.389  1.00 47.88     0.003 C 
HETATM   31  C29 STQ 9 619     -46.055 142.433   9.321  1.00 47.88    -0.062 C 
HETATM   32  C30 STQ 9 619     -45.519 141.236   9.560  1.00 47.88     0.007 C 
HETATM   33  C31 STQ 9 619     -44.663 140.503   8.639  1.00 47.88     0.001 C 
HETATM   34  C32 STQ 9 619     -43.941 139.545   9.206  1.00 47.88     0.007 C 
HETATM   35  C33 STQ 9 619     -43.007 138.678   8.473  1.00 47.88    -0.062 C 
HETATM   36  C34 STQ 9 619     -42.306 137.789   9.182  1.00 47.88     0.007 C 
HETATM   37  C35 STQ 9 619     -41.362 136.882   8.547  1.00 47.88     0.001 C 
HETATM   38  C36 STQ 9 619     -50.460 144.799   9.706  1.00 47.88     0.016 C 
HETATM   39  C37 STQ 9 619     -50.348 142.732  11.038  1.00 47.88     0.016 C 
HETATM   40  C38 STQ 9 619     -47.057 146.570  11.102  1.00 47.88     0.044 C 
HETATM   41  C39 STQ 9 619     -45.832 143.154   8.027  1.00 47.88     0.048 C 
HETATM   42  C40 STQ 9 619     -42.842 138.787   6.987  1.00 47.88     0.048 C 
HETATM   43  O23 STQ 9 619     -51.132 146.651  13.697  1.00 47.88    -0.392 OA
ATOM     44  H23 STQ 9 619     -50.972 147.577  13.835  1.00  0.00     0.210 HD
ENDROOT
TORSDOF 12
BEGIN_RES PHE A  61
REMARK  2 active torsions:
REMARK  status: ('A' for Active; 'I' for Inactive)
REMARK    1  A    between atoms: CA   and  CB  
REMARK    2  A    between atoms: CB   and  CG  
ROOT
ATOM      1  CA  PHE A  61     -36.237 128.293  12.768  1.00 39.40     0.164 C 
ENDROOT
BRANCH   1   2
ATOM      2  CB  PHE A  61     -36.813 128.951  11.509  1.00 39.41     0.058 C 
BRANCH   2   3
ATOM      3  CG  PHE A  61     -36.963 128.019  10.331  1.00 39.01    -0.020 A 
ATOM      4  CD2 PHE A  61     -36.058 126.991  10.117  1.00 40.32    -0.004 A 
ATOM      5  CE2 PHE A  61     -36.196 126.136   9.030  1.00 40.20    -0.000 A 
ATOM      6  CZ  PHE A  61     -37.240 126.296   8.149  1.00 40.34    -0.000 A 
ATOM      7  CE1 PHE A  61     -38.149 127.312   8.349  1.00 41.51    -0.000 A 
ATOM      8  CD1 PHE A  61     -38.008 128.171   9.431  1.00 39.94    -0.004 A 
ENDBRANCH   2   3
ENDBRANCH   1   2
END_RES PHE A  61
BEGIN_RES VAL A 134
REMARK  1 active torsions:
REMARK  status: ('A' for Active; 'I' for Inactive)
REMARK    3  A    between atoms: CA   and  CB  
ROOT
ATOM      9  CA  VAL A 134     -29.766 132.051   9.815  1.00 40.75     0.159 C 
ENDROOT
BRANCH   9  10
ATOM     10  CB  VAL A 134     -30.864 132.765   9.009  1.00 40.76     0.029 C 
ATOM     11  CG1 VAL A 134     -30.885 132.268   7.571  1.00 41.76     0.002 C 
ATOM     12  CG2 VAL A 134     -32.231 132.604   9.657  1.00 40.56     0.002 C 
ENDBRANCH   9  10
END_RES VAL A 134
BEGIN_RES TYR A 338
REMARK  3 active torsions:
REMARK  status: ('A' for Active; 'I' for Inactive)
REMARK    4  A    between atoms: CA   and  CB  
REMARK    5  A    between atoms: CB   and  CG  
REMARK    6  A    between atoms: CZ   and  OH  
ROOT
ATOM     13  CA  TYR A 338     -41.631 124.950   6.058  1.00 38.23     0.164 C 
ENDROOT
BRANCH  13  14
ATOM     14  CB  TYR A 338     -41.621 126.456   6.339  1.00 39.15     0.058 C 
BRANCH  14  15
ATOM     15  CG  TYR A 338     -40.419 127.212   5.822  1.00 39.03    -0.020 A 
ATOM     16  CD2 TYR A 338     -40.238 128.546   6.144  1.00 40.65    -0.002 A 
ATOM     17  CE2 TYR A 338     -39.156 129.274   5.675  1.00 40.91     0.024 A 
ATOM     18  CZ  TYR A 338     -38.221 128.665   4.859  1.00 42.33     0.089 A 
ATOM     19  CE1 TYR A 338     -38.377 127.331   4.526  1.00 40.63     0.024 A 
ATOM     20  CD1 TYR A 338     -39.474 126.624   4.995  1.00 39.27    -0.002 A 
BRANCH  18  21
ATOM     21  OH  TYR A 338     -37.148 129.372   4.394  1.00 43.36    -0.359 OA
ATOM     22  HH  TYR A 338     -37.253 129.994   3.683  1.00  0.00     0.217 HD
ENDBRANCH  18  21
ENDBRANCH  14  15
ENDBRANCH  13  14
END_RES TYR A 338
ENDMDL
