REMARK  2 active torsions:
REMARK  status: ('A' for Active; 'I' for Inactive)
REMARK    1  A    between atoms: C6_23  and  C7_1 
REMARK       I    between atoms: C8_2  and  C9_3 
REMARK       I    between atoms: C10_4  and  C11_5 
REMARK       I    between atoms: C12_7  and  C13_8 
REMARK       I    between atoms: C14_9  and  C15_10 
REMARK       I    between atoms: C16_11  and  C17_12 
REMARK       I    between atoms: C18_13  and  C19_14 
REMARK       I    between atoms: C20_15  and  C21_16 
REMARK       I    between atoms: C22_17  and  C23_18 
REMARK    2  A    between atoms: C24_19  and  C25_32 
ROOT
HETATM    1  C7  BCR K 102     -39.181 -80.835  70.686  1.00 37.55     0.009 C 
HETATM    2  C8  BCR K 102     -40.203 -80.747  69.806  1.00 35.06     0.007 C 
HETATM    3  C9  BCR K 102     -40.137 -81.477  68.522  1.00 32.94    -0.062 C 
HETATM    4  C10 BCR K 102     -40.673 -80.894  67.412  1.00 29.26     0.007 C 
HETATM    5  C11 BCR K 102     -40.550 -81.549  66.089  1.00 31.72     0.001 C 
HETATM    6  C34 BCR K 102     -39.480 -82.854  68.417  1.00 34.26     0.048 C 
HETATM    7  C12 BCR K 102     -40.873 -80.893  64.946  1.00 31.36     0.007 C 
HETATM    8  C13 BCR K 102     -40.622 -81.377  63.547  1.00 34.21    -0.062 C 
HETATM    9  C14 BCR K 102     -40.872 -80.522  62.517  1.00 32.95     0.007 C 
HETATM   10  C15 BCR K 102     -40.700 -80.748  61.064  1.00 34.69     0.001 C 
HETATM   11  C16 BCR K 102     -41.112 -79.845  60.134  1.00 32.05     0.001 C 
HETATM   12  C17 BCR K 102     -40.938 -80.131  58.702  1.00 30.56     0.007 C 
HETATM   13  C18 BCR K 102     -41.281 -79.242  57.723  1.00 30.66    -0.062 C 
HETATM   14  C19 BCR K 102     -41.020 -79.664  56.326  1.00 30.34     0.007 C 
HETATM   15  C20 BCR K 102     -41.146 -78.908  55.226  1.00 29.93     0.001 C 
HETATM   16  C21 BCR K 102     -40.755 -79.508  53.946  1.00 31.06     0.007 C 
HETATM   17  C22 BCR K 102     -40.408 -78.766  52.874  1.00 32.58    -0.062 C 
HETATM   18  C23 BCR K 102     -39.967 -79.459  51.637  1.00 31.86     0.007 C 
HETATM   19  C24 BCR K 102     -39.724 -78.771  50.502  1.00 29.98     0.009 C 
HETATM   20  C35 BCR K 102     -39.954 -82.699  63.311  1.00 29.96     0.048 C 
HETATM   21  C36 BCR K 102     -41.786 -77.852  58.014  1.00 30.23     0.048 C 
HETATM   22  C37 BCR K 102     -40.477 -77.249  52.952  1.00 31.58     0.048 C 
ENDROOT
BRANCH   1  23
HETATM   23  C6  BCR K 102     -39.051 -80.056  71.948  1.00 35.81    -0.048 C 
HETATM   24  C1  BCR K 102     -37.659 -79.485  72.166  1.00 38.40    -0.020 C 
HETATM   25  C2  BCR K 102     -37.518 -78.768  73.501  1.00 38.88     0.014 C 
HETATM   26  C3  BCR K 102     -38.759 -77.980  73.909  1.00 36.35     0.005 C 
HETATM   27  C4  BCR K 102     -39.941 -78.928  74.027  1.00 39.30     0.034 C 
HETATM   28  C5  BCR K 102     -40.084 -79.780  72.769  1.00 38.06    -0.077 C 
HETATM   29  C33 BCR K 102     -41.445 -80.351  72.512  1.00 42.01     0.044 C 
HETATM   30  C31 BCR K 102     -36.661 -80.614  72.132  1.00 35.78     0.020 C 
HETATM   31  C32 BCR K 102     -37.254 -78.537  71.016  1.00 39.14     0.020 C 
ENDBRANCH   1  23
BRANCH  19  32
HETATM   32  C25 BCR K 102     -39.292 -79.412  49.250  1.00 30.51    -0.048 C 
HETATM   33  C26 BCR K 102     -40.194 -80.127  48.521  1.00 29.80    -0.077 C 
HETATM   34  C27 BCR K 102     -39.839 -80.812  47.241  1.00 28.84     0.034 C 
HETATM   35  C28 BCR K 102     -38.331 -80.963  47.083  1.00 30.72     0.005 C 
HETATM   36  C29 BCR K 102     -37.649 -79.589  47.377  1.00 30.97     0.014 C 
HETATM   37  C30 BCR K 102     -37.813 -79.231  48.842  1.00 30.37    -0.020 C 
HETATM   38  C38 BCR K 102     -41.636 -80.240  48.966  1.00 29.47     0.044 C 
HETATM   39  C39 BCR K 102     -37.471 -77.730  49.010  1.00 31.75     0.020 C 
HETATM   40  C40 BCR K 102     -36.885 -80.085  49.706  1.00 30.63     0.020 C 
ENDBRANCH  19  32
TORSDOF 10
