REMARK  2 active torsions:
REMARK  status: ('A' for Active; 'I' for Inactive)
REMARK    1  A    between atoms: C6_23  and  C7_1 
REMARK       I    between atoms: C8_2  and  C9_3 
REMARK       I    between atoms: C10_4  and  C11_5 
REMARK       I    between atoms: C12_7  and  C13_8 
REMARK       I    between atoms: C14_9  and  C15_10 
REMARK       I    between atoms: C16_11  and  C17_12 
REMARK       I    between atoms: C18_13  and  C19_14 
REMARK       I    between atoms: C20_15  and  C21_16 
REMARK       I    between atoms: C22_17  and  C23_18 
REMARK    2  A    between atoms: C24_19  and  C25_32 
ROOT
HETATM    1  C7  BCR K 101     -36.345 -81.293  62.979  1.00 35.69     0.009 C 
HETATM    2  C8  BCR K 101     -35.420 -81.657  62.069  1.00 32.09     0.007 C 
HETATM    3  C9  BCR K 101     -35.502 -81.263  60.632  1.00 33.32    -0.062 C 
HETATM    4  C10 BCR K 101     -34.446 -81.499  59.845  1.00 32.38     0.007 C 
HETATM    5  C11 BCR K 101     -34.345 -81.122  58.424  1.00 32.77     0.001 C 
HETATM    6  C34 BCR K 101     -36.750 -80.640  60.064  1.00 32.01     0.048 C 
HETATM    7  C12 BCR K 101     -33.121 -81.218  57.881  1.00 30.65     0.007 C 
HETATM    8  C13 BCR K 101     -32.805 -80.791  56.489  1.00 35.62    -0.062 C 
HETATM    9  C14 BCR K 101     -31.509 -80.868  56.124  1.00 31.41     0.007 C 
HETATM   10  C15 BCR K 101     -30.901 -80.454  54.841  1.00 34.91     0.001 C 
HETATM   11  C16 BCR K 101     -29.546 -80.430  54.664  1.00 32.35     0.001 C 
HETATM   12  C17 BCR K 101     -29.028 -79.958  53.361  1.00 32.64     0.007 C 
HETATM   13  C18 BCR K 101     -27.721 -79.728  53.065  1.00 35.55    -0.062 C 
HETATM   14  C19 BCR K 101     -27.347 -79.221  51.727  1.00 34.55     0.007 C 
HETATM   15  C20 BCR K 101     -26.149 -78.750  51.338  1.00 32.00     0.001 C 
HETATM   16  C21 BCR K 101     -26.004 -78.339  49.934  1.00 31.85     0.007 C 
HETATM   17  C22 BCR K 101     -24.832 -78.034  49.341  1.00 31.16    -0.062 C 
HETATM   18  C23 BCR K 101     -24.921 -77.730  47.883  1.00 35.19     0.007 C 
HETATM   19  C24 BCR K 101     -23.876 -77.834  47.043  1.00 36.06     0.009 C 
HETATM   20  C35 BCR K 101     -33.875 -80.201  55.592  1.00 33.01     0.048 C 
HETATM   21  C36 BCR K 101     -26.633 -80.054  54.047  1.00 34.61     0.048 C 
HETATM   22  C37 BCR K 101     -23.556 -78.100  50.138  1.00 31.53     0.048 C 
ENDROOT
BRANCH   1  23
HETATM   23  C6  BCR K 101     -36.239 -81.651  64.428  1.00 36.54    -0.048 C 
HETATM   24  C1  BCR K 101     -35.487 -82.917  64.831  1.00 39.81    -0.020 C 
HETATM   25  C2  BCR K 101     -35.939 -83.361  66.226  1.00 38.79     0.014 C 
HETATM   26  C3  BCR K 101     -35.896 -82.267  67.282  1.00 38.89     0.005 C 
HETATM   27  C4  BCR K 101     -36.689 -81.040  66.891  1.00 39.76     0.034 C 
HETATM   28  C5  BCR K 101     -36.762 -80.822  65.380  1.00 40.09    -0.077 C 
HETATM   29  C33 BCR K 101     -37.495 -79.565  65.036  1.00 39.28     0.044 C 
HETATM   30  C31 BCR K 101     -35.771 -84.089  63.878  1.00 37.09     0.020 C 
HETATM   31  C32 BCR K 101     -33.987 -82.599  64.871  1.00 43.36     0.020 C 
ENDBRANCH   1  23
BRANCH  19  32
HETATM   32  C25 BCR K 101     -23.957 -77.627  45.567  1.00 36.11    -0.048 C 
HETATM   33  C26 BCR K 101     -24.646 -78.506  44.824  1.00 36.27    -0.077 C 
HETATM   34  C27 BCR K 101     -24.770 -78.379  43.318  1.00 37.64     0.034 C 
HETATM   35  C28 BCR K 101     -24.577 -76.938  42.871  1.00 40.01     0.005 C 
HETATM   36  C29 BCR K 101     -23.208 -76.513  43.410  1.00 39.19     0.014 C 
HETATM   37  C30 BCR K 101     -23.235 -76.455  44.937  1.00 40.55    -0.020 C 
HETATM   38  C38 BCR K 101     -25.356 -79.666  45.492  1.00 35.26     0.044 C 
HETATM   39  C39 BCR K 101     -23.992 -75.196  45.370  1.00 41.14     0.020 C 
HETATM   40  C40 BCR K 101     -21.812 -76.498  45.499  1.00 39.16     0.020 C 
ENDBRANCH  19  32
TORSDOF 10
