REMARK  2 active torsions:
REMARK  status: ('A' for Active; 'I' for Inactive)
REMARK    1  A    between atoms: C6_23  and  C7_1 
REMARK       I    between atoms: C8_2  and  C9_3 
REMARK       I    between atoms: C10_4  and  C11_5 
REMARK       I    between atoms: C12_7  and  C13_8 
REMARK       I    between atoms: C14_9  and  C15_10 
REMARK       I    between atoms: C16_11  and  C17_12 
REMARK       I    between atoms: C18_13  and  C19_14 
REMARK       I    between atoms: C20_15  and  C21_16 
REMARK       I    between atoms: C22_17  and  C23_18 
REMARK    2  A    between atoms: C24_19  and  C25_32 
ROOT
HETATM    1  C7  BCR C 514     -47.842 -78.825  74.660  1.00 42.89     0.009 C 
HETATM    2  C8  BCR C 514     -47.877 -78.739  73.331  1.00 44.19     0.007 C 
HETATM    3  C9  BCR C 514     -49.132 -78.952  72.580  1.00 46.71    -0.062 C 
HETATM    4  C10 BCR C 514     -49.114 -78.648  71.276  1.00 41.97     0.007 C 
HETATM    5  C11 BCR C 514     -50.290 -78.782  70.409  1.00 40.92     0.001 C 
HETATM    6  C34 BCR C 514     -50.373 -79.505  73.262  1.00 44.98     0.048 C 
HETATM    7  C12 BCR C 514     -50.120 -78.823  69.082  1.00 44.53     0.007 C 
HETATM    8  C13 BCR C 514     -51.249 -78.958  68.146  1.00 45.51    -0.062 C 
HETATM    9  C14 BCR C 514     -51.051 -78.588  66.854  1.00 43.91     0.007 C 
HETATM   10  C15 BCR C 514     -52.070 -78.666  65.789  1.00 44.35     0.001 C 
HETATM   11  C16 BCR C 514     -51.725 -78.533  64.507  1.00 42.58     0.001 C 
HETATM   12  C17 BCR C 514     -52.698 -78.607  63.414  1.00 41.40     0.007 C 
HETATM   13  C18 BCR C 514     -52.594 -78.081  62.162  1.00 40.94    -0.062 C 
HETATM   14  C19 BCR C 514     -53.754 -78.287  61.247  1.00 41.16     0.007 C 
HETATM   15  C20 BCR C 514     -53.726 -78.099  59.925  1.00 41.17     0.001 C 
HETATM   16  C21 BCR C 514     -54.938 -78.299  59.120  1.00 43.08     0.007 C 
HETATM   17  C22 BCR C 514     -55.175 -77.702  57.915  1.00 46.47    -0.062 C 
HETATM   18  C23 BCR C 514     -56.471 -78.063  57.270  1.00 43.42     0.007 C 
HETATM   19  C24 BCR C 514     -56.800 -77.805  55.991  1.00 46.58     0.009 C 
HETATM   20  C35 BCR C 514     -52.547 -79.533  68.661  1.00 43.98     0.048 C 
HETATM   21  C36 BCR C 514     -51.420 -77.255  61.671  1.00 37.85     0.048 C 
HETATM   22  C37 BCR C 514     -54.180 -76.744  57.247  1.00 36.78     0.048 C 
ENDROOT
BRANCH   1  23
HETATM   23  C6  BCR C 514     -46.601 -78.578  75.439  1.00 37.46    -0.048 C 
HETATM   24  C1  BCR C 514     -46.677 -77.469  76.472  1.00 38.04    -0.020 C 
HETATM   25  C2  BCR C 514     -45.575 -77.523  77.516  1.00 38.20     0.014 C 
HETATM   26  C3  BCR C 514     -44.220 -77.834  76.909  1.00 33.25     0.005 C 
HETATM   27  C4  BCR C 514     -44.225 -79.052  76.026  1.00 36.16     0.034 C 
HETATM   28  C5  BCR C 514     -45.477 -79.292  75.229  1.00 38.48    -0.077 C 
HETATM   29  C33 BCR C 514     -45.394 -80.401  74.221  1.00 41.56     0.044 C 
HETATM   30  C31 BCR C 514     -46.582 -76.104  75.755  1.00 35.33     0.020 C 
HETATM   31  C32 BCR C 514     -47.979 -77.621  77.282  1.00 38.77     0.020 C 
ENDBRANCH   1  23
BRANCH  19  32
HETATM   32  C25 BCR C 514     -58.105 -78.211  55.366  1.00 45.04    -0.048 C 
HETATM   33  C26 BCR C 514     -58.308 -79.496  54.954  1.00 43.97    -0.077 C 
HETATM   34  C27 BCR C 514     -59.596 -80.003  54.284  1.00 42.37     0.034 C 
HETATM   35  C28 BCR C 514     -60.753 -79.013  54.436  1.00 45.24     0.005 C 
HETATM   36  C29 BCR C 514     -60.324 -77.556  54.275  1.00 45.27     0.014 C 
HETATM   37  C30 BCR C 514     -59.156 -77.126  55.164  1.00 46.36    -0.020 C 
HETATM   38  C38 BCR C 514     -57.270 -80.559  55.122  1.00 35.37     0.044 C 
HETATM   39  C39 BCR C 514     -59.684 -76.627  56.514  1.00 44.38     0.020 C 
HETATM   40  C40 BCR C 514     -58.460 -75.974  54.439  1.00 45.05     0.020 C 
ENDBRANCH  19  32
TORSDOF 10
