REMARK  2 active torsions:
REMARK  status: ('A' for Active; 'I' for Inactive)
REMARK    1  A    between atoms: C6_23  and  C7_1 
REMARK       I    between atoms: C8_2  and  C9_3 
REMARK       I    between atoms: C10_4  and  C11_5 
REMARK       I    between atoms: C12_7  and  C13_8 
REMARK       I    between atoms: C14_9  and  C15_10 
REMARK       I    between atoms: C16_11  and  C17_12 
REMARK       I    between atoms: C18_13  and  C19_14 
REMARK       I    between atoms: C20_15  and  C21_16 
REMARK       I    between atoms: C22_17  and  C23_18 
REMARK    2  A    between atoms: C24_19  and  C25_32 
ROOT
HETATM    1  C7  BCR A 411     -50.360 -33.131  27.960  1.00 26.76     0.009 C 
HETATM    2  C8  BCR A 411     -50.074 -32.545  29.156  1.00 27.28     0.007 C 
HETATM    3  C9  BCR A 411     -49.035 -31.488  29.283  1.00 28.08    -0.062 C 
HETATM    4  C10 BCR A 411     -48.857 -30.910  30.511  1.00 26.21     0.007 C 
HETATM    5  C11 BCR A 411     -47.837 -29.896  30.760  1.00 26.20     0.001 C 
HETATM    6  C34 BCR A 411     -48.195 -31.162  28.055  1.00 27.13     0.048 C 
HETATM    7  C12 BCR A 411     -47.603 -29.506  32.041  1.00 25.91     0.007 C 
HETATM    8  C13 BCR A 411     -46.610 -28.466  32.456  1.00 28.13    -0.062 C 
HETATM    9  C14 BCR A 411     -46.453 -28.204  33.771  1.00 26.80     0.007 C 
HETATM   10  C15 BCR A 411     -45.491 -27.235  34.348  1.00 23.65     0.001 C 
HETATM   11  C16 BCR A 411     -45.522 -26.953  35.665  1.00 25.01     0.001 C 
HETATM   12  C17 BCR A 411     -44.468 -26.058  36.166  1.00 24.87     0.007 C 
HETATM   13  C18 BCR A 411     -44.227 -25.745  37.464  1.00 26.74    -0.062 C 
HETATM   14  C19 BCR A 411     -43.087 -24.832  37.793  1.00 22.57     0.007 C 
HETATM   15  C20 BCR A 411     -42.985 -24.179  38.932  1.00 21.95     0.001 C 
HETATM   16  C21 BCR A 411     -41.836 -23.298  39.176  1.00 26.44     0.007 C 
HETATM   17  C22 BCR A 411     -41.765 -22.424  40.200  1.00 26.69    -0.062 C 
HETATM   18  C23 BCR A 411     -40.543 -21.582  40.316  1.00 22.74     0.007 C 
HETATM   19  C24 BCR A 411     -40.453 -20.567  41.206  1.00 21.39     0.009 C 
HETATM   20  C35 BCR A 411     -45.803 -27.669  31.440  1.00 27.87     0.048 C 
HETATM   21  C36 BCR A 411     -45.107 -26.227  38.580  1.00 23.84     0.048 C 
HETATM   22  C37 BCR A 411     -42.911 -22.246  41.197  1.00 27.51     0.048 C 
ENDROOT
BRANCH   1  23
HETATM   23  C6  BCR A 411     -51.388 -34.228  27.946  1.00 30.04    -0.048 C 
HETATM   24  C1  BCR A 411     -50.876 -35.632  27.648  1.00 34.05    -0.020 C 
HETATM   25  C2  BCR A 411     -52.028 -36.596  27.348  1.00 36.23     0.014 C 
HETATM   26  C3  BCR A 411     -53.161 -36.432  28.351  1.00 33.07     0.005 C 
HETATM   27  C4  BCR A 411     -53.773 -35.034  28.233  1.00 33.10     0.034 C 
HETATM   28  C5  BCR A 411     -52.679 -33.956  28.247  1.00 30.69    -0.077 C 
HETATM   29  C33 BCR A 411     -53.148 -32.555  28.493  1.00 31.19     0.044 C 
HETATM   30  C31 BCR A 411     -49.936 -35.577  26.421  1.00 32.76     0.020 C 
HETATM   31  C32 BCR A 411     -50.095 -36.192  28.835  1.00 29.01     0.020 C 
ENDBRANCH   1  23
BRANCH  19  32
HETATM   32  C25 BCR A 411     -39.257 -19.700  41.297  1.00 21.80    -0.048 C 
HETATM   33  C26 BCR A 411     -38.031 -20.272  41.495  1.00 24.09    -0.077 C 
HETATM   34  C27 BCR A 411     -36.687 -19.538  41.577  1.00 21.42     0.034 C 
HETATM   35  C28 BCR A 411     -36.862 -18.104  41.043  1.00 25.08     0.005 C 
HETATM   36  C29 BCR A 411     -38.173 -17.474  41.597  1.00 24.49     0.014 C 
HETATM   37  C30 BCR A 411     -39.472 -18.188  41.173  1.00 24.42    -0.020 C 
HETATM   38  C38 BCR A 411     -37.831 -21.748  41.677  1.00 22.20     0.044 C 
HETATM   39  C39 BCR A 411     -39.951 -17.827  39.739  1.00 24.11     0.020 C 
HETATM   40  C40 BCR A 411     -40.566 -17.740  42.142  1.00 24.62     0.020 C 
ENDBRANCH  19  32
TORSDOF 10
