REMARK  2 active torsions:
REMARK  status: ('A' for Active; 'I' for Inactive)
REMARK    1  A    between atoms: C6_23  and  C7_1 
REMARK       I    between atoms: C8_2  and  C9_3 
REMARK       I    between atoms: C10_4  and  C11_5 
REMARK       I    between atoms: C12_7  and  C13_8 
REMARK       I    between atoms: C14_9  and  C15_10 
REMARK       I    between atoms: C16_11  and  C17_12 
REMARK       I    between atoms: C18_13  and  C19_14 
REMARK       I    between atoms: C20_15  and  C21_16 
REMARK       I    between atoms: C22_17  and  C23_18 
REMARK    2  A    between atoms: C24_19  and  C25_32 
ROOT
HETATM    1  C7  BCR H 101     -19.109 281.329 309.114  1.00 20.66     0.009 C 
HETATM    2  C8  BCR H 101     -20.341 281.719 309.481  1.00 22.34     0.007 C 
HETATM    3  C9  BCR H 101     -21.254 280.846 310.267  1.00 34.94    -0.062 C 
HETATM    4  C10 BCR H 101     -22.170 281.435 311.065  1.00 21.22     0.007 C 
HETATM    5  C11 BCR H 101     -23.123 280.730 311.936  1.00 28.87     0.001 C 
HETATM    6  C34 BCR H 101     -21.130 279.350 310.210  1.00 27.97     0.048 C 
HETATM    7  C12 BCR H 101     -23.708 281.429 312.920  1.00 26.46     0.007 C 
HETATM    8  C13 BCR H 101     -24.684 280.886 313.900  1.00 41.86    -0.062 C 
HETATM    9  C14 BCR H 101     -25.124 281.692 314.898  1.00 35.90     0.007 C 
HETATM   10  C15 BCR H 101     -26.096 281.328 315.948  1.00 29.55     0.001 C 
HETATM   11  C16 BCR H 101     -26.342 282.184 316.965  1.00 30.73     0.001 C 
HETATM   12  C17 BCR H 101     -27.320 281.899 318.030  1.00 38.08     0.007 C 
HETATM   13  C18 BCR H 101     -27.446 282.666 319.142  1.00 36.14    -0.062 C 
HETATM   14  C19 BCR H 101     -28.458 282.337 320.177  1.00 38.04     0.007 C 
HETATM   15  C20 BCR H 101     -28.578 282.965 321.360  1.00 32.76     0.001 C 
HETATM   16  C21 BCR H 101     -29.639 282.511 322.273  1.00 37.36     0.007 C 
HETATM   17  C22 BCR H 101     -29.841 283.012 323.510  1.00 42.44    -0.062 C 
HETATM   18  C23 BCR H 101     -30.842 282.539 324.294  1.00 37.41     0.007 C 
HETATM   19  C24 BCR H 101     -31.109 283.028 325.522  1.00 28.37     0.009 C 
HETATM   20  C35 BCR H 101     -25.148 279.464 313.779  1.00 43.67     0.048 C 
HETATM   21  C36 BCR H 101     -26.558 283.858 319.343  1.00 38.66     0.048 C 
HETATM   22  C37 BCR H 101     -28.922 284.088 324.006  1.00 32.15     0.048 C 
ENDROOT
BRANCH   1  23
HETATM   23  C6  BCR H 101     -18.041 282.085 308.377  1.00 20.11    -0.048 C 
HETATM   24  C1  BCR H 101     -16.614 281.663 308.759  1.00 30.28    -0.020 C 
HETATM   25  C2  BCR H 101     -15.560 282.279 307.837  1.00 26.44     0.014 C 
HETATM   26  C3  BCR H 101     -15.828 283.750 307.536  1.00 21.67     0.005 C 
HETATM   27  C4  BCR H 101     -17.130 283.826 306.779  1.00 20.41     0.034 C 
HETATM   28  C5  BCR H 101     -18.257 283.086 307.481  1.00 27.23    -0.077 C 
HETATM   29  C33 BCR H 101     -19.624 283.568 307.057  1.00 23.66     0.044 C 
HETATM   30  C31 BCR H 101     -16.374 282.126 310.193  1.00 19.41     0.020 C 
HETATM   31  C32 BCR H 101     -16.409 280.135 308.762  1.00 20.38     0.020 C 
ENDBRANCH   1  23
BRANCH  19  32
HETATM   32  C25 BCR H 101     -32.184 282.532 326.444  1.00 39.73    -0.048 C 
HETATM   33  C26 BCR H 101     -32.041 281.353 327.087  1.00 39.78    -0.077 C 
HETATM   34  C27 BCR H 101     -33.067 280.783 328.046  1.00 29.87     0.034 C 
HETATM   35  C28 BCR H 101     -34.408 281.496 328.038  1.00 35.21     0.005 C 
HETATM   36  C29 BCR H 101     -34.223 283.002 327.907  1.00 34.71     0.014 C 
HETATM   37  C30 BCR H 101     -33.420 283.389 326.662  1.00 48.99    -0.020 C 
HETATM   38  C38 BCR H 101     -30.805 280.520 326.886  1.00 38.36     0.044 C 
HETATM   39  C39 BCR H 101     -32.975 284.837 326.836  1.00 45.00     0.020 C 
HETATM   40  C40 BCR H 101     -34.302 283.314 325.423  1.00 59.25     0.020 C 
ENDBRANCH  19  32
TORSDOF 10
