REMARK  2 active torsions:
REMARK  status: ('A' for Active; 'I' for Inactive)
REMARK    1  A    between atoms: C6_23  and  C7_1 
REMARK       I    between atoms: C8_2  and  C9_3 
REMARK       I    between atoms: C10_4  and  C11_5 
REMARK       I    between atoms: C12_7  and  C13_8 
REMARK       I    between atoms: C14_9  and  C15_10 
REMARK       I    between atoms: C16_11  and  C17_12 
REMARK       I    between atoms: C18_13  and  C19_14 
REMARK       I    between atoms: C20_15  and  C21_16 
REMARK       I    between atoms: C22_17  and  C23_18 
REMARK    2  A    between atoms: C24_19  and  C25_32 
ROOT
HETATM    1  C7  BCR T 102      39.005 260.760 311.239  1.00 26.87     0.009 C 
HETATM    2  C8  BCR T 102      37.912 259.988 311.314  1.00 27.18     0.007 C 
HETATM    3  C9  BCR T 102      37.875 258.590 310.830  1.00 30.62    -0.062 C 
HETATM    4  C10 BCR T 102      36.731 257.882 310.958  1.00 30.16     0.007 C 
HETATM    5  C11 BCR T 102      36.594 256.478 310.566  1.00 28.29     0.001 C 
HETATM    6  C34 BCR T 102      39.106 257.979 310.221  1.00 37.30     0.048 C 
HETATM    7  C12 BCR T 102      35.449 255.853 310.856  1.00 32.33     0.007 C 
HETATM    8  C13 BCR T 102      35.213 254.412 310.608  1.00 37.30    -0.062 C 
HETATM    9  C14 BCR T 102      34.061 253.906 311.099  1.00 30.82     0.007 C 
HETATM   10  C15 BCR T 102      33.611 252.510 311.115  1.00 19.09     0.001 C 
HETATM   11  C16 BCR T 102      32.320 252.127 311.195  1.00 25.22     0.001 C 
HETATM   12  C17 BCR T 102      32.005 250.696 311.336  1.00 26.84     0.007 C 
HETATM   13  C18 BCR T 102      30.762 250.140 311.399  1.00 21.71    -0.062 C 
HETATM   14  C19 BCR T 102      30.669 248.690 311.682  1.00 29.36     0.007 C 
HETATM   15  C20 BCR T 102      29.553 247.957 311.805  1.00 22.88     0.001 C 
HETATM   16  C21 BCR T 102      29.768 246.559 312.208  1.00 23.49     0.007 C 
HETATM   17  C22 BCR T 102      28.788 245.696 312.542  1.00 22.88    -0.062 C 
HETATM   18  C23 BCR T 102      29.134 244.457 312.978  1.00 19.61     0.007 C 
HETATM   19  C24 BCR T 102      28.284 243.490 313.371  1.00 16.86     0.009 C 
HETATM   20  C35 BCR T 102      36.238 253.569 309.893  1.00 22.35     0.048 C 
HETATM   21  C36 BCR T 102      29.505 250.954 311.282  1.00 20.74     0.048 C 
HETATM   22  C37 BCR T 102      27.352 246.127 312.460  1.00 18.69     0.048 C 
ENDROOT
BRANCH   1  23
HETATM   23  C6  BCR T 102      39.143 262.171 311.717  1.00 27.96    -0.048 C 
HETATM   24  C1  BCR T 102      37.969 262.971 312.291  1.00 34.19    -0.020 C 
HETATM   25  C2  BCR T 102      38.331 264.416 312.651  1.00 31.05     0.014 C 
HETATM   26  C3  BCR T 102      39.771 264.574 313.111  1.00 29.41     0.005 C 
HETATM   27  C4  BCR T 102      40.730 264.097 312.043  1.00 30.85     0.034 C 
HETATM   28  C5  BCR T 102      40.380 262.692 311.613  1.00 27.12    -0.077 C 
HETATM   29  C33 BCR T 102      41.497 261.868 311.045  1.00 35.59     0.044 C 
HETATM   30  C31 BCR T 102      36.824 263.025 311.283  1.00 18.19     0.020 C 
HETATM   31  C32 BCR T 102      37.473 262.313 313.582  1.00 42.41     0.020 C 
ENDBRANCH   1  23
BRANCH  19  32
HETATM   32  C25 BCR T 102      28.743 242.155 313.888  1.00 24.91    -0.048 C 
HETATM   33  C26 BCR T 102      29.635 241.368 313.243  1.00 26.40    -0.077 C 
HETATM   34  C27 BCR T 102      30.087 240.030 313.799  1.00 13.58     0.034 C 
HETATM   35  C28 BCR T 102      29.938 239.972 315.304  1.00 15.86     0.005 C 
HETATM   36  C29 BCR T 102      28.489 240.296 315.607  1.00 17.31     0.014 C 
HETATM   37  C30 BCR T 102      28.110 241.721 315.216  1.00 34.25    -0.020 C 
HETATM   38  C38 BCR T 102      30.257 241.736 311.913  1.00 17.22     0.044 C 
HETATM   39  C39 BCR T 102      28.477 242.709 316.325  1.00 23.16     0.020 C 
HETATM   40  C40 BCR T 102      26.589 241.718 315.069  1.00 17.04     0.020 C 
ENDBRANCH  19  32
TORSDOF 10
