REMARK  2 active torsions:
REMARK  status: ('A' for Active; 'I' for Inactive)
REMARK    1  A    between atoms: C6_23  and  C7_1 
REMARK       I    between atoms: C8_2  and  C9_3 
REMARK       I    between atoms: C10_4  and  C11_5 
REMARK       I    between atoms: C12_7  and  C13_8 
REMARK       I    between atoms: C14_9  and  C15_10 
REMARK       I    between atoms: C16_11  and  C17_12 
REMARK       I    between atoms: C18_13  and  C19_14 
REMARK       I    between atoms: C20_15  and  C21_16 
REMARK       I    between atoms: C22_17  and  C23_18 
REMARK    2  A    between atoms: C24_19  and  C25_32 
ROOT
HETATM    1  C7  BCR B 619       2.972 256.677 310.827  1.00 20.08     0.009 C 
HETATM    2  C8  BCR B 619       2.289 255.678 310.237  1.00 22.81     0.007 C 
HETATM    3  C9  BCR B 619       1.684 255.755 308.892  1.00 20.22    -0.062 C 
HETATM    4  C10 BCR B 619       1.096 254.649 308.384  1.00 19.06     0.007 C 
HETATM    5  C11 BCR B 619       0.423 254.584 307.080  1.00 16.29     0.001 C 
HETATM    6  C34 BCR B 619       1.683 257.071 308.165  1.00 16.40     0.048 C 
HETATM    7  C12 BCR B 619      -0.307 253.495 306.782  1.00 25.63     0.007 C 
HETATM    8  C13 BCR B 619      -1.050 253.301 305.505  1.00 24.60    -0.062 C 
HETATM    9  C14 BCR B 619      -1.493 252.051 305.177  1.00 21.11     0.007 C 
HETATM   10  C15 BCR B 619      -2.251 251.681 303.966  1.00 20.94     0.001 C 
HETATM   11  C16 BCR B 619      -2.530 250.408 303.598  1.00 19.81     0.001 C 
HETATM   12  C17 BCR B 619      -3.315 250.177 302.369  1.00 20.06     0.007 C 
HETATM   13  C18 BCR B 619      -3.759 248.977 301.928  1.00 27.17    -0.062 C 
HETATM   14  C19 BCR B 619      -4.547 248.906 300.673  1.00 20.29     0.007 C 
HETATM   15  C20 BCR B 619      -4.962 247.773 300.067  1.00 21.61     0.001 C 
HETATM   16  C21 BCR B 619      -5.731 247.893 298.812  1.00 24.02     0.007 C 
HETATM   17  C22 BCR B 619      -6.012 246.864 297.980  1.00 35.60    -0.062 C 
HETATM   18  C23 BCR B 619      -6.721 247.083 296.841  1.00 23.38     0.007 C 
HETATM   19  C24 BCR B 619      -7.043 246.115 295.968  1.00 28.64     0.009 C 
HETATM   20  C35 BCR B 619      -1.288 254.497 304.620  1.00 15.93     0.048 C 
HETATM   21  C36 BCR B 619      -3.451 247.705 302.658  1.00 15.91     0.048 C 
HETATM   22  C37 BCR B 619      -5.543 245.484 298.338  1.00 38.85     0.048 C 
ENDROOT
BRANCH   1  23
HETATM   23  C6  BCR B 619       3.548 256.570 312.216  1.00 20.68    -0.048 C 
HETATM   24  C1  BCR B 619       3.069 257.622 313.218  1.00 27.66    -0.020 C 
HETATM   25  C2  BCR B 619       3.832 257.637 314.541  1.00 27.98     0.014 C 
HETATM   26  C3  BCR B 619       4.150 256.228 315.005  1.00 25.52     0.005 C 
HETATM   27  C4  BCR B 619       5.009 255.520 313.964  1.00 19.63     0.034 C 
HETATM   28  C5  BCR B 619       4.435 255.611 312.563  1.00 32.40    -0.077 C 
HETATM   29  C33 BCR B 619       4.929 254.571 311.579  1.00 23.77     0.044 C 
HETATM   30  C31 BCR B 619       3.191 259.006 312.588  1.00 21.20     0.020 C 
HETATM   31  C32 BCR B 619       1.610 257.327 313.512  1.00 23.33     0.020 C 
ENDBRANCH   1  23
BRANCH  19  32
HETATM   32  C25 BCR B 619      -7.837 246.271 294.702  1.00 39.14    -0.048 C 
HETATM   33  C26 BCR B 619      -7.365 246.901 293.602  1.00 29.93    -0.077 C 
HETATM   34  C27 BCR B 619      -8.185 247.010 292.348  1.00 21.81     0.034 C 
HETATM   35  C28 BCR B 619      -9.642 247.200 292.705  1.00 31.07     0.005 C 
HETATM   36  C29 BCR B 619     -10.132 246.037 293.541  1.00 46.92     0.014 C 
HETATM   37  C30 BCR B 619      -9.220 245.641 294.704  1.00 37.04    -0.020 C 
HETATM   38  C38 BCR B 619      -6.010 247.532 293.550  1.00 32.51     0.044 C 
HETATM   39  C39 BCR B 619      -9.045 244.127 294.657  1.00 49.08     0.020 C 
HETATM   40  C40 BCR B 619      -9.924 246.010 296.000  1.00 46.61     0.020 C 
ENDBRANCH  19  32
TORSDOF 10
