REMARK  2 active torsions:
REMARK  status: ('A' for Active; 'I' for Inactive)
REMARK    1  A    between atoms: C6_23  and  C7_1 
REMARK       I    between atoms: C8_2  and  C9_3 
REMARK       I    between atoms: C10_4  and  C11_5 
REMARK       I    between atoms: C12_7  and  C13_8 
REMARK       I    between atoms: C14_9  and  C15_10 
REMARK       I    between atoms: C16_11  and  C17_12 
REMARK       I    between atoms: C18_13  and  C19_14 
REMARK       I    between atoms: C20_15  and  C21_16 
REMARK       I    between atoms: C22_17  and  C23_18 
REMARK    2  A    between atoms: C24_19  and  C25_32 
ROOT
HETATM    1  C7  BCR C 516      55.680 281.318 328.664  1.00 38.68     0.009 C 
HETATM    2  C8  BCR C 516      56.482 281.235 329.731  1.00 33.22     0.007 C 
HETATM    3  C9  BCR C 516      55.940 281.532 331.072  1.00 34.35    -0.062 C 
HETATM    4  C10 BCR C 516      56.614 281.090 332.154  1.00 32.59     0.007 C 
HETATM    5  C11 BCR C 516      56.176 281.285 333.541  1.00 23.56     0.001 C 
HETATM    6  C34 BCR C 516      54.653 282.305 331.202  1.00 29.18     0.048 C 
HETATM    7  C12 BCR C 516      57.011 280.938 334.533  1.00 32.09     0.007 C 
HETATM    8  C13 BCR C 516      56.624 281.078 335.957  1.00 33.67    -0.062 C 
HETATM    9  C14 BCR C 516      57.512 280.824 336.951  1.00 37.11     0.007 C 
HETATM   10  C15 BCR C 516      57.170 280.921 338.382  1.00 34.41     0.001 C 
HETATM   11  C16 BCR C 516      58.069 280.669 339.349  1.00 38.02     0.001 C 
HETATM   12  C17 BCR C 516      57.696 280.743 340.773  1.00 27.83     0.007 C 
HETATM   13  C18 BCR C 516      58.561 280.611 341.808  1.00 35.80    -0.062 C 
HETATM   14  C19 BCR C 516      58.048 280.678 343.202  1.00 26.49     0.007 C 
HETATM   15  C20 BCR C 516      58.810 280.607 344.308  1.00 27.29     0.001 C 
HETATM   16  C21 BCR C 516      58.135 280.656 345.613  1.00 33.51     0.007 C 
HETATM   17  C22 BCR C 516      58.699 280.556 346.839  1.00 26.55    -0.062 C 
HETATM   18  C23 BCR C 516      57.870 280.582 347.907  1.00 28.37     0.007 C 
HETATM   19  C24 BCR C 516      58.210 280.160 349.135  1.00 33.37     0.009 C 
HETATM   20  C35 BCR C 516      55.216 281.490 336.263  1.00 33.34     0.048 C 
HETATM   21  C36 BCR C 516      60.023 280.369 341.561  1.00 34.62     0.048 C 
HETATM   22  C37 BCR C 516      60.177 280.358 347.009  1.00 27.44     0.048 C 
ENDROOT
BRANCH   1  23
HETATM   23  C6  BCR C 516      56.128 281.011 327.284  1.00 42.19    -0.048 C 
HETATM   24  C1  BCR C 516      56.463 282.163 326.352  1.00 41.00    -0.020 C 
HETATM   25  C2  BCR C 516      56.744 281.724 324.919  1.00 36.95     0.014 C 
HETATM   26  C3  BCR C 516      57.509 280.412 324.910  1.00 42.64     0.005 C 
HETATM   27  C4  BCR C 516      56.654 279.317 325.522  1.00 28.32     0.034 C 
HETATM   28  C5  BCR C 516      56.215 279.720 326.908  1.00 43.02    -0.077 C 
HETATM   29  C33 BCR C 516      55.873 278.604 327.858  1.00 32.14     0.044 C 
HETATM   30  C31 BCR C 516      55.304 283.152 326.334  1.00 32.75     0.020 C 
HETATM   31  C32 BCR C 516      57.727 282.819 326.888  1.00 34.54     0.020 C 
ENDBRANCH   1  23
BRANCH  19  32
HETATM   32  C25 BCR C 516      57.269 280.142 350.294  1.00 25.44    -0.048 C 
HETATM   33  C26 BCR C 516      56.761 281.267 350.854  1.00 27.99    -0.077 C 
HETATM   34  C27 BCR C 516      55.810 281.238 352.024  1.00 38.91     0.034 C 
HETATM   35  C28 BCR C 516      55.099 279.903 352.105  1.00 37.17     0.005 C 
HETATM   36  C29 BCR C 516      56.170 278.828 352.157  1.00 25.19     0.014 C 
HETATM   37  C30 BCR C 516      56.915 278.756 350.823  1.00 25.25    -0.020 C 
HETATM   38  C38 BCR C 516      57.101 282.642 350.360  1.00 27.53     0.044 C 
HETATM   39  C39 BCR C 516      56.041 278.004 349.823  1.00 24.61     0.020 C 
HETATM   40  C40 BCR C 516      58.201 277.956 350.999  1.00 25.78     0.020 C 
ENDBRANCH  19  32
TORSDOF 10
