REMARK  2 active torsions:
REMARK  status: ('A' for Active; 'I' for Inactive)
REMARK    1  A    between atoms: C6_23  and  C7_1 
REMARK       I    between atoms: C8_2  and  C9_3 
REMARK       I    between atoms: C10_4  and  C11_5 
REMARK       I    between atoms: C12_7  and  C13_8 
REMARK       I    between atoms: C14_9  and  C15_10 
REMARK       I    between atoms: C16_11  and  C17_12 
REMARK       I    between atoms: C18_13  and  C19_14 
REMARK       I    between atoms: C20_15  and  C21_16 
REMARK       I    between atoms: C22_17  and  C23_18 
REMARK    2  A    between atoms: C24_19  and  C25_32 
ROOT
HETATM    1  C7  BCR C 530      39.462  80.772  70.835  1.00 33.72     0.009 C 
HETATM    2  C8  BCR C 530      40.167  80.411  69.760  1.00 31.52     0.007 C 
HETATM    3  C9  BCR C 530      40.191  81.220  68.527  1.00 34.03    -0.062 C 
HETATM    4  C10 BCR C 530      40.805  80.720  67.419  1.00 32.90     0.007 C 
HETATM    5  C11 BCR C 530      40.765  81.400  66.113  1.00 36.03     0.001 C 
HETATM    6  C34 BCR C 530      39.492  82.564  68.479  1.00 37.10     0.048 C 
HETATM    7  C12 BCR C 530      41.025  80.678  64.997  1.00 33.34     0.007 C 
HETATM    8  C13 BCR C 530      40.873  81.186  63.615  1.00 36.71    -0.062 C 
HETATM    9  C14 BCR C 530      41.111  80.323  62.587  1.00 36.49     0.007 C 
HETATM   10  C15 BCR C 530      40.974  80.597  61.145  1.00 36.03     0.001 C 
HETATM   11  C16 BCR C 530      41.344  79.679  60.211  1.00 34.23     0.001 C 
HETATM   12  C17 BCR C 530      41.178  79.957  58.780  1.00 30.97     0.007 C 
HETATM   13  C18 BCR C 530      41.514  79.078  57.779  1.00 31.31    -0.062 C 
HETATM   14  C19 BCR C 530      41.250  79.525  56.385  1.00 30.42     0.007 C 
HETATM   15  C20 BCR C 530      41.301  78.774  55.278  1.00 29.22     0.001 C 
HETATM   16  C21 BCR C 530      40.912  79.407  54.016  1.00 30.56     0.007 C 
HETATM   17  C22 BCR C 530      40.616  78.714  52.893  1.00 31.69    -0.062 C 
HETATM   18  C23 BCR C 530      40.209  79.448  51.671  1.00 30.90     0.007 C 
HETATM   19  C24 BCR C 530      39.856  78.744  50.595  1.00 30.96     0.009 C 
HETATM   20  C35 BCR C 530      40.345  82.575  63.369  1.00 35.96     0.048 C 
HETATM   21  C36 BCR C 530      42.067  77.687  58.041  1.00 27.59     0.048 C 
HETATM   22  C37 BCR C 530      40.681  77.195  52.875  1.00 31.85     0.048 C 
ENDROOT
BRANCH   1  23
HETATM   23  C6  BCR C 530      39.312  79.892  72.018  1.00 31.56    -0.048 C 
HETATM   24  C1  BCR C 530      37.913  79.247  72.138  1.00 33.21    -0.020 C 
HETATM   25  C2  BCR C 530      37.663  78.622  73.495  1.00 32.41     0.014 C 
HETATM   26  C3  BCR C 530      38.829  77.764  73.924  1.00 36.02     0.005 C 
HETATM   27  C4  BCR C 530      40.072  78.638  74.046  1.00 35.52     0.034 C 
HETATM   28  C5  BCR C 530      40.286  79.594  72.873  1.00 34.68    -0.077 C 
HETATM   29  C33 BCR C 530      41.662  80.227  72.741  1.00 35.42     0.044 C 
HETATM   30  C31 BCR C 530      36.796  80.264  71.989  1.00 29.78     0.020 C 
HETATM   31  C32 BCR C 530      37.771  78.171  71.045  1.00 30.50     0.020 C 
ENDBRANCH   1  23
BRANCH  19  32
HETATM   32  C25 BCR C 530      39.430  79.351  49.309  1.00 33.85    -0.048 C 
HETATM   33  C26 BCR C 530      40.338  79.997  48.531  1.00 31.45    -0.077 C 
HETATM   34  C27 BCR C 530      39.949  80.620  47.209  1.00 29.19     0.034 C 
HETATM   35  C28 BCR C 530      38.432  80.788  47.017  1.00 32.92     0.005 C 
HETATM   36  C29 BCR C 530      37.730  79.484  47.422  1.00 34.47     0.014 C 
HETATM   37  C30 BCR C 530      37.967  79.163  48.902  1.00 34.23    -0.020 C 
HETATM   38  C38 BCR C 530      41.782  80.116  48.958  1.00 30.55     0.044 C 
HETATM   39  C39 BCR C 530      37.646  77.657  49.092  1.00 34.92     0.020 C 
HETATM   40  C40 BCR C 530      37.042  80.017  49.765  1.00 32.99     0.020 C 
ENDBRANCH  19  32
TORSDOF 10
