REMARK  2 active torsions:
REMARK  status: ('A' for Active; 'I' for Inactive)
REMARK    1  A    between atoms: C6_23  and  C7_1 
REMARK       I    between atoms: C8_2  and  C9_3 
REMARK       I    between atoms: C10_4  and  C11_5 
REMARK       I    between atoms: C12_7  and  C13_8 
REMARK       I    between atoms: C14_9  and  C15_10 
REMARK       I    between atoms: C16_11  and  C17_12 
REMARK       I    between atoms: C18_13  and  C19_14 
REMARK       I    between atoms: C20_15  and  C21_16 
REMARK       I    between atoms: C22_17  and  C23_18 
REMARK    2  A    between atoms: C24_19  and  C25_32 
ROOT
HETATM    1  C7  BCR C 515      48.026  78.668  74.819  1.00 39.97     0.009 C 
HETATM    2  C8  BCR C 515      48.116  78.476  73.502  1.00 43.71     0.007 C 
HETATM    3  C9  BCR C 515      49.321  78.771  72.703  1.00 46.26    -0.062 C 
HETATM    4  C10 BCR C 515      49.287  78.394  71.408  1.00 44.64     0.007 C 
HETATM    5  C11 BCR C 515      50.408  78.604  70.476  1.00 42.43     0.001 C 
HETATM    6  C34 BCR C 515      50.513  79.490  73.305  1.00 45.26     0.048 C 
HETATM    7  C12 BCR C 515      50.174  78.602  69.163  1.00 41.87     0.007 C 
HETATM    8  C13 BCR C 515      51.245  78.800  68.172  1.00 44.10    -0.062 C 
HETATM    9  C14 BCR C 515      51.027  78.435  66.881  1.00 43.10     0.007 C 
HETATM   10  C15 BCR C 515      52.045  78.587  65.824  1.00 44.95     0.001 C 
HETATM   11  C16 BCR C 515      51.860  78.129  64.579  1.00 42.57     0.001 C 
HETATM   12  C17 BCR C 515      52.914  78.270  63.568  1.00 44.11     0.007 C 
HETATM   13  C18 BCR C 515      52.751  77.972  62.252  1.00 45.12    -0.062 C 
HETATM   14  C19 BCR C 515      53.936  78.135  61.360  1.00 42.40     0.007 C 
HETATM   15  C20 BCR C 515      53.937  77.842  60.058  1.00 44.25     0.001 C 
HETATM   16  C21 BCR C 515      55.160  78.009  59.262  1.00 44.77     0.007 C 
HETATM   17  C22 BCR C 515      55.361  77.530  58.008  1.00 45.45    -0.062 C 
HETATM   18  C23 BCR C 515      56.672  77.810  57.364  1.00 43.97     0.007 C 
HETATM   19  C24 BCR C 515      56.847  77.776  56.033  1.00 46.37     0.009 C 
HETATM   20  C35 BCR C 515      52.540  79.437  68.635  1.00 43.98     0.048 C 
HETATM   21  C36 BCR C 515      51.430  77.447  61.714  1.00 37.46     0.048 C 
HETATM   22  C37 BCR C 515      54.312  76.736  57.263  1.00 40.96     0.048 C 
ENDROOT
BRANCH   1  23
HETATM   23  C6  BCR C 515      46.773  78.347  75.571  1.00 36.93    -0.048 C 
HETATM   24  C1  BCR C 515      46.863  77.243  76.594  1.00 38.64    -0.020 C 
HETATM   25  C2  BCR C 515      45.725  77.314  77.616  1.00 35.63     0.014 C 
HETATM   26  C3  BCR C 515      44.363  77.553  76.987  1.00 36.63     0.005 C 
HETATM   27  C4  BCR C 515      44.335  78.759  76.097  1.00 37.53     0.034 C 
HETATM   28  C5  BCR C 515      45.628  79.020  75.353  1.00 37.33    -0.077 C 
HETATM   29  C33 BCR C 515      45.550  80.129  74.347  1.00 39.04     0.044 C 
HETATM   30  C31 BCR C 515      46.831  75.876  75.878  1.00 36.17     0.020 C 
HETATM   31  C32 BCR C 515      48.186  77.488  77.343  1.00 37.04     0.020 C 
ENDBRANCH   1  23
BRANCH  19  32
HETATM   32  C25 BCR C 515      58.170  78.091  55.409  1.00 44.97    -0.048 C 
HETATM   33  C26 BCR C 515      58.380  79.370  55.041  1.00 43.46    -0.077 C 
HETATM   34  C27 BCR C 515      59.665  79.869  54.394  1.00 42.55     0.034 C 
HETATM   35  C28 BCR C 515      60.816  78.859  54.434  1.00 44.37     0.005 C 
HETATM   36  C29 BCR C 515      60.329  77.423  54.245  1.00 46.88     0.014 C 
HETATM   37  C30 BCR C 515      59.210  77.006  55.210  1.00 44.50    -0.020 C 
HETATM   38  C38 BCR C 515      57.285  80.379  55.260  1.00 36.94     0.044 C 
HETATM   39  C39 BCR C 515      59.800  76.577  56.560  1.00 44.31     0.020 C 
HETATM   40  C40 BCR C 515      58.520  75.808  54.566  1.00 48.67     0.020 C 
ENDBRANCH  19  32
TORSDOF 10
