REMARK  2 active torsions:
REMARK  status: ('A' for Active; 'I' for Inactive)
REMARK    1  A    between atoms: C6_23  and  C7_1 
REMARK       I    between atoms: C8_2  and  C9_3 
REMARK       I    between atoms: C10_4  and  C11_5 
REMARK       I    between atoms: C12_7  and  C13_8 
REMARK       I    between atoms: C14_9  and  C15_10 
REMARK       I    between atoms: C16_11  and  C17_12 
REMARK       I    between atoms: C18_13  and  C19_14 
REMARK       I    between atoms: C20_15  and  C21_16 
REMARK       I    between atoms: C22_17  and  C23_18 
REMARK    2  A    between atoms: C24_19  and  C25_32 
ROOT
HETATM    1  C7  BCR B 618       4.879  18.931  23.550  1.00 26.16     0.009 C 
HETATM    2  C8  BCR B 618       4.693  19.996  22.755  1.00 23.90     0.007 C 
HETATM    3  C9  BCR B 618       3.902  19.858  21.492  1.00 22.06    -0.062 C 
HETATM    4  C10 BCR B 618       3.919  20.858  20.590  1.00 23.67     0.007 C 
HETATM    5  C11 BCR B 618       3.257  20.872  19.287  1.00 23.73     0.001 C 
HETATM    6  C34 BCR B 618       3.058  18.632  21.242  1.00 25.71     0.048 C 
HETATM    7  C12 BCR B 618       3.309  22.029  18.575  1.00 24.44     0.007 C 
HETATM    8  C13 BCR B 618       2.751  22.157  17.213  1.00 23.39    -0.062 C 
HETATM    9  C14 BCR B 618       2.967  23.346  16.524  1.00 20.98     0.007 C 
HETATM   10  C15 BCR B 618       2.553  23.487  15.115  1.00 21.06     0.001 C 
HETATM   11  C16 BCR B 618       2.926  24.593  14.434  1.00 22.19     0.001 C 
HETATM   12  C17 BCR B 618       2.550  24.746  13.022  1.00 21.58     0.007 C 
HETATM   13  C18 BCR B 618       2.939  25.771  12.195  1.00 20.96    -0.062 C 
HETATM   14  C19 BCR B 618       2.445  25.761  10.807  1.00 19.82     0.007 C 
HETATM   15  C20 BCR B 618       2.780  26.659   9.827  1.00 20.56     0.001 C 
HETATM   16  C21 BCR B 618       2.117  26.480   8.515  1.00 20.57     0.007 C 
HETATM   17  C22 BCR B 618       2.463  27.157   7.383  1.00 19.60    -0.062 C 
HETATM   18  C23 BCR B 618       1.698  26.884   6.160  1.00 22.92     0.007 C 
HETATM   19  C24 BCR B 618       1.833  27.621   5.037  1.00 24.17     0.009 C 
HETATM   20  C35 BCR B 618       2.028  20.951  16.661  1.00 23.27     0.048 C 
HETATM   21  C36 BCR B 618       3.788  26.897  12.658  1.00 21.00     0.048 C 
HETATM   22  C37 BCR B 618       3.635  28.140   7.387  1.00 20.72     0.048 C 
ENDROOT
BRANCH   1  23
HETATM   23  C6  BCR B 618       5.667  18.977  24.802  1.00 26.72    -0.048 C 
HETATM   24  C1  BCR B 618       4.997  19.511  26.041  1.00 29.97    -0.020 C 
HETATM   25  C2  BCR B 618       5.763  19.047  27.290  1.00 30.11     0.014 C 
HETATM   26  C3  BCR B 618       7.289  19.185  27.203  1.00 28.88     0.005 C 
HETATM   27  C4  BCR B 618       7.899  18.567  25.958  1.00 28.77     0.034 C 
HETATM   28  C5  BCR B 618       6.966  18.576  24.762  1.00 28.24    -0.077 C 
HETATM   29  C33 BCR B 618       7.581  18.045  23.504  1.00 30.53     0.044 C 
HETATM   30  C31 BCR B 618       4.895  21.046  25.933  1.00 30.85     0.020 C 
HETATM   31  C32 BCR B 618       3.570  18.942  26.210  1.00 30.08     0.020 C 
ENDBRANCH   1  23
BRANCH  19  32
HETATM   32  C25 BCR B 618       1.054  27.373   3.776  1.00 26.94    -0.048 C 
HETATM   33  C26 BCR B 618       0.781  26.155   3.228  1.00 28.75    -0.077 C 
HETATM   34  C27 BCR B 618      -0.020  25.965   1.924  1.00 30.75     0.034 C 
HETATM   35  C28 BCR B 618      -0.216  27.260   1.129  1.00 33.35     0.005 C 
HETATM   36  C29 BCR B 618      -0.496  28.448   2.045  1.00 31.28     0.014 C 
HETATM   37  C30 BCR B 618       0.603  28.672   3.100  1.00 29.59    -0.020 C 
HETATM   38  C38 BCR B 618       1.196  24.840   3.838  1.00 30.08     0.044 C 
HETATM   39  C39 BCR B 618      -0.007  29.610   4.146  1.00 28.53     0.020 C 
HETATM   40  C40 BCR B 618       1.836  29.310   2.470  1.00 29.57     0.020 C 
ENDBRANCH  19  32
TORSDOF 10
