REMARK  2 active torsions:
REMARK  status: ('A' for Active; 'I' for Inactive)
REMARK    1  A    between atoms: C6_23  and  C7_1 
REMARK       I    between atoms: C8_2  and  C9_3 
REMARK       I    between atoms: C10_4  and  C11_5 
REMARK       I    between atoms: C12_7  and  C13_8 
REMARK       I    between atoms: C14_9  and  C15_10 
REMARK       I    between atoms: C16_11  and  C17_12 
REMARK       I    between atoms: C18_13  and  C19_14 
REMARK       I    between atoms: C20_15  and  C21_16 
REMARK       I    between atoms: C22_17  and  C23_18 
REMARK    2  A    between atoms: C24_19  and  C25_32 
ROOT
HETATM    1  C7  BCR T 101      38.714  30.408  22.835  1.00 38.69     0.009 C 
HETATM    2  C8  BCR T 101      37.602  29.639  22.869  1.00 40.68     0.007 C 
HETATM    3  C9  BCR T 101      37.617  28.226  22.382  1.00 41.20    -0.062 C 
HETATM    4  C10 BCR T 101      36.464  27.521  22.506  1.00 40.60     0.007 C 
HETATM    5  C11 BCR T 101      36.245  26.117  22.156  1.00 39.10     0.001 C 
HETATM    6  C34 BCR T 101      38.843  27.631  21.711  1.00 36.28     0.048 C 
HETATM    7  C12 BCR T 101      35.010  25.569  22.191  1.00 37.08     0.007 C 
HETATM    8  C13 BCR T 101      34.757  24.118  21.969  1.00 38.99    -0.062 C 
HETATM    9  C14 BCR T 101      33.639  23.651  22.574  1.00 36.34     0.007 C 
HETATM   10  C15 BCR T 101      33.169  22.269  22.641  1.00 33.98     0.001 C 
HETATM   11  C16 BCR T 101      31.918  21.859  22.492  1.00 32.43     0.001 C 
HETATM   12  C17 BCR T 101      31.677  20.423  22.686  1.00 28.67     0.007 C 
HETATM   13  C18 BCR T 101      30.466  19.845  22.754  1.00 27.82    -0.062 C 
HETATM   14  C19 BCR T 101      30.405  18.395  23.054  1.00 25.96     0.007 C 
HETATM   15  C20 BCR T 101      29.273  17.704  23.180  1.00 24.20     0.001 C 
HETATM   16  C21 BCR T 101      29.429  16.309  23.616  1.00 24.32     0.007 C 
HETATM   17  C22 BCR T 101      28.375  15.502  23.941  1.00 27.00    -0.062 C 
HETATM   18  C23 BCR T 101      28.713  14.175  24.464  1.00 25.69     0.007 C 
HETATM   19  C24 BCR T 101      27.835  13.176  24.743  1.00 23.30     0.009 C 
HETATM   20  C35 BCR T 101      35.699  23.212  21.205  1.00 38.69     0.048 C 
HETATM   21  C36 BCR T 101      29.196  20.637  22.628  1.00 23.59     0.048 C 
HETATM   22  C37 BCR T 101      26.900  15.868  23.867  1.00 24.19     0.048 C 
ENDROOT
BRANCH   1  23
HETATM   23  C6  BCR T 101      38.882  31.836  23.261  1.00 35.98    -0.048 C 
HETATM   24  C1  BCR T 101      37.701  32.671  23.756  1.00 36.92    -0.020 C 
HETATM   25  C2  BCR T 101      38.047  34.145  24.048  1.00 34.03     0.014 C 
HETATM   26  C3  BCR T 101      39.495  34.273  24.551  1.00 38.91     0.005 C 
HETATM   27  C4  BCR T 101      40.424  33.799  23.461  1.00 38.67     0.034 C 
HETATM   28  C5  BCR T 101      40.114  32.367  23.108  1.00 37.96    -0.077 C 
HETATM   29  C33 BCR T 101      41.264  31.565  22.558  1.00 39.44     0.044 C 
HETATM   30  C31 BCR T 101      36.668  32.770  22.626  1.00 29.76     0.020 C 
HETATM   31  C32 BCR T 101      37.121  31.987  25.008  1.00 41.10     0.020 C 
ENDBRANCH   1  23
BRANCH  19  32
HETATM   32  C25 BCR T 101      28.387  11.919  25.359  1.00 24.05    -0.048 C 
HETATM   33  C26 BCR T 101      29.295  11.182  24.704  1.00 22.56    -0.077 C 
HETATM   34  C27 BCR T 101      29.921   9.892  25.251  1.00 22.64     0.034 C 
HETATM   35  C28 BCR T 101      29.715   9.802  26.772  1.00 22.89     0.005 C 
HETATM   36  C29 BCR T 101      28.229  10.018  27.024  1.00 23.67     0.014 C 
HETATM   37  C30 BCR T 101      27.844  11.466  26.723  1.00 24.85    -0.020 C 
HETATM   38  C38 BCR T 101      29.750  11.617  23.369  1.00 22.31     0.044 C 
HETATM   39  C39 BCR T 101      28.347  12.340  27.876  1.00 23.45     0.020 C 
HETATM   40  C40 BCR T 101      26.293  11.446  26.604  1.00 22.18     0.020 C 
ENDBRANCH  19  32
TORSDOF 10
