REMARK  2 active torsions:
REMARK  status: ('A' for Active; 'I' for Inactive)
REMARK    1  A    between atoms: C6_23  and  C7_1 
REMARK       I    between atoms: C8_2  and  C9_3 
REMARK       I    between atoms: C10_4  and  C11_5 
REMARK       I    between atoms: C12_7  and  C13_8 
REMARK       I    between atoms: C14_9  and  C15_10 
REMARK       I    between atoms: C16_11  and  C17_12 
REMARK       I    between atoms: C18_13  and  C19_14 
REMARK       I    between atoms: C20_15  and  C21_16 
REMARK       I    between atoms: C22_17  and  C23_18 
REMARK    2  A    between atoms: C24_19  and  C25_32 
ROOT
HETATM    1  C7  BCR Y 101      36.543  81.193  62.964  1.00 33.30     0.009 C 
HETATM    2  C8  BCR Y 101      35.573  81.426  62.060  1.00 34.03     0.007 C 
HETATM    3  C9  BCR Y 101      35.752  81.083  60.616  1.00 34.07    -0.062 C 
HETATM    4  C10 BCR Y 101      34.672  81.250  59.846  1.00 33.18     0.007 C 
HETATM    5  C11 BCR Y 101      34.525  80.934  58.424  1.00 32.97     0.001 C 
HETATM    6  C34 BCR Y 101      37.074  80.575  60.094  1.00 34.31     0.048 C 
HETATM    7  C12 BCR Y 101      33.278  80.985  57.936  1.00 30.70     0.007 C 
HETATM    8  C13 BCR Y 101      32.919  80.596  56.535  1.00 33.77    -0.062 C 
HETATM    9  C14 BCR Y 101      31.615  80.729  56.153  1.00 29.99     0.007 C 
HETATM   10  C15 BCR Y 101      31.033  80.344  54.860  1.00 30.27     0.001 C 
HETATM   11  C16 BCR Y 101      29.690  80.243  54.733  1.00 31.72     0.001 C 
HETATM   12  C17 BCR Y 101      29.148  79.809  53.445  1.00 30.45     0.007 C 
HETATM   13  C18 BCR Y 101      27.854  79.593  53.150  1.00 36.03    -0.062 C 
HETATM   14  C19 BCR Y 101      27.520  79.126  51.794  1.00 33.37     0.007 C 
HETATM   15  C20 BCR Y 101      26.349  78.599  51.432  1.00 32.83     0.001 C 
HETATM   16  C21 BCR Y 101      26.250  78.261  50.007  1.00 33.39     0.007 C 
HETATM   17  C22 BCR Y 101      25.082  77.984  49.359  1.00 31.42    -0.062 C 
HETATM   18  C23 BCR Y 101      25.180  77.727  47.899  1.00 32.46     0.007 C 
HETATM   19  C24 BCR Y 101      24.111  77.804  47.099  1.00 32.77     0.009 C 
HETATM   20  C35 BCR Y 101      33.993  79.979  55.660  1.00 32.93     0.048 C 
HETATM   21  C36 BCR Y 101      26.744  79.899  54.114  1.00 34.83     0.048 C 
HETATM   22  C37 BCR Y 101      23.769  77.908  50.087  1.00 32.37     0.048 C 
ENDROOT
BRANCH   1  23
HETATM   23  C6  BCR Y 101      36.376  81.495  64.422  1.00 32.74    -0.048 C 
HETATM   24  C1  BCR Y 101      35.661  82.760  64.891  1.00 33.68    -0.020 C 
HETATM   25  C2  BCR Y 101      36.189  83.092  66.293  1.00 30.72     0.014 C 
HETATM   26  C3  BCR Y 101      36.075  81.947  67.289  1.00 33.07     0.005 C 
HETATM   27  C4  BCR Y 101      36.807  80.694  66.818  1.00 35.17     0.034 C 
HETATM   28  C5  BCR Y 101      36.869  80.596  65.302  1.00 36.06    -0.077 C 
HETATM   29  C33 BCR Y 101      37.567  79.369  64.794  1.00 41.02     0.044 C 
HETATM   30  C31 BCR Y 101      36.015  83.970  64.024  1.00 33.70     0.020 C 
HETATM   31  C32 BCR Y 101      34.112  82.548  64.846  1.00 32.39     0.020 C 
ENDBRANCH   1  23
BRANCH  19  32
HETATM   32  C25 BCR Y 101      24.173  77.590  45.616  1.00 33.52    -0.048 C 
HETATM   33  C26 BCR Y 101      24.868  78.443  44.859  1.00 32.09    -0.077 C 
HETATM   34  C27 BCR Y 101      24.944  78.292  43.350  1.00 34.94     0.034 C 
HETATM   35  C28 BCR Y 101      24.639  76.870  42.875  1.00 37.49     0.005 C 
HETATM   36  C29 BCR Y 101      23.291  76.474  43.469  1.00 40.57     0.014 C 
HETATM   37  C30 BCR Y 101      23.405  76.414  44.998  1.00 38.21    -0.020 C 
HETATM   38  C38 BCR Y 101      25.590  79.619  45.491  1.00 31.76     0.044 C 
HETATM   39  C39 BCR Y 101      24.172  75.149  45.380  1.00 41.61     0.020 C 
HETATM   40  C40 BCR Y 101      21.974  76.417  45.560  1.00 38.38     0.020 C 
ENDBRANCH  19  32
TORSDOF 10
