REMARK  2 active torsions:
REMARK  status: ('A' for Active; 'I' for Inactive)
REMARK    1  A    between atoms: C6_23  and  C7_1 
REMARK       I    between atoms: C8_2  and  C9_3 
REMARK       I    between atoms: C10_4  and  C11_5 
REMARK       I    between atoms: C12_7  and  C13_8 
REMARK       I    between atoms: C14_9  and  C15_10 
REMARK       I    between atoms: C16_11  and  C17_12 
REMARK       I    between atoms: C18_13  and  C19_14 
REMARK       I    between atoms: C20_15  and  C21_16 
REMARK       I    between atoms: C22_17  and  C23_18 
REMARK    2  A    between atoms: C24_19  and  C25_32 
ROOT
HETATM    1  C7  BCR D 405      -5.613  66.476  46.246  1.00 24.92     0.009 C 
HETATM    2  C8  BCR D 405      -4.726  67.081  47.040  1.00 24.70     0.007 C 
HETATM    3  C9  BCR D 405      -3.556  67.660  46.374  1.00 24.75    -0.062 C 
HETATM    4  C10 BCR D 405      -2.491  67.920  47.136  1.00 26.58     0.007 C 
HETATM    5  C11 BCR D 405      -1.194  68.432  46.677  1.00 22.57     0.001 C 
HETATM    6  C34 BCR D 405      -3.552  67.922  44.888  1.00 25.55     0.048 C 
HETATM    7  C12 BCR D 405      -0.252  68.552  47.629  1.00 23.06     0.007 C 
HETATM    8  C13 BCR D 405       1.180  68.970  47.370  1.00 24.15    -0.062 C 
HETATM    9  C14 BCR D 405       2.064  68.951  48.416  1.00 24.94     0.007 C 
HETATM   10  C15 BCR D 405       3.506  69.214  48.333  1.00 25.20     0.001 C 
HETATM   11  C16 BCR D 405       4.358  68.991  49.339  1.00 27.04     0.001 C 
HETATM   12  C17 BCR D 405       5.816  69.118  49.134  1.00 26.38     0.007 C 
HETATM   13  C18 BCR D 405       6.757  68.825  50.064  1.00 26.16    -0.062 C 
HETATM   14  C19 BCR D 405       8.187  68.956  49.635  1.00 24.55     0.007 C 
HETATM   15  C20 BCR D 405       9.250  68.671  50.404  1.00 27.03     0.001 C 
HETATM   16  C21 BCR D 405      10.635  68.746  49.839  1.00 28.88     0.007 C 
HETATM   17  C22 BCR D 405      11.810  68.519  50.516  1.00 32.91    -0.062 C 
HETATM   18  C23 BCR D 405      13.097  68.606  49.776  1.00 38.29     0.007 C 
HETATM   19  C24 BCR D 405      14.054  67.685  50.009  1.00 46.67     0.009 C 
HETATM   20  C35 BCR D 405       1.617  69.369  45.968  1.00 28.63     0.048 C 
HETATM   21  C36 BCR D 405       6.340  68.321  51.437  1.00 26.41     0.048 C 
HETATM   22  C37 BCR D 405      11.872  68.182  51.989  1.00 31.00     0.048 C 
ENDROOT
BRANCH   1  23
HETATM   23  C6  BCR D 405      -6.853  65.807  46.746  1.00 28.25    -0.048 C 
HETATM   24  C1  BCR D 405      -8.208  66.422  46.399  1.00 30.90    -0.020 C 
HETATM   25  C2  BCR D 405      -9.400  65.498  46.664  1.00 31.78     0.014 C 
HETATM   26  C3  BCR D 405      -9.294  64.341  47.649  1.00 29.69     0.005 C 
HETATM   27  C4  BCR D 405      -7.886  63.867  48.029  1.00 26.40     0.034 C 
HETATM   28  C5  BCR D 405      -6.730  64.651  47.474  1.00 27.97    -0.077 C 
HETATM   29  C33 BCR D 405      -5.366  64.049  47.785  1.00 27.23     0.044 C 
HETATM   30  C31 BCR D 405      -8.380  67.785  47.092  1.00 32.44     0.020 C 
HETATM   31  C32 BCR D 405      -8.324  66.710  44.914  1.00 32.88     0.020 C 
ENDBRANCH   1  23
BRANCH  19  32
HETATM   32  C25 BCR D 405      15.379  67.605  49.303  1.00 51.60    -0.048 C 
HETATM   33  C26 BCR D 405      15.452  66.975  48.122  1.00 54.27    -0.077 C 
HETATM   34  C27 BCR D 405      16.747  66.849  47.345  1.00 55.15     0.034 C 
HETATM   35  C28 BCR D 405      17.607  68.071  47.615  1.00 54.99     0.005 C 
HETATM   36  C29 BCR D 405      17.900  68.030  49.100  1.00 54.48     0.014 C 
HETATM   37  C30 BCR D 405      16.623  68.164  49.932  1.00 50.68    -0.020 C 
HETATM   38  C38 BCR D 405      14.219  66.387  47.509  1.00 57.74     0.044 C 
HETATM   39  C39 BCR D 405      16.423  69.641  50.243  1.00 54.20     0.020 C 
HETATM   40  C40 BCR D 405      16.771  67.332  51.199  1.00 48.16     0.020 C 
ENDBRANCH  19  32
TORSDOF 10
