REMARK  2 active torsions:
REMARK  status: ('A' for Active; 'I' for Inactive)
REMARK    1  A    between atoms: C6_23  and  C7_1 
REMARK       I    between atoms: C8_2  and  C9_3 
REMARK       I    between atoms: C10_4  and  C11_5 
REMARK       I    between atoms: C12_7  and  C13_8 
REMARK       I    between atoms: C14_9  and  C15_10 
REMARK       I    between atoms: C16_11  and  C17_12 
REMARK       I    between atoms: C18_13  and  C19_14 
REMARK       I    between atoms: C20_15  and  C21_16 
REMARK       I    between atoms: C22_17  and  C23_18 
REMARK    2  A    between atoms: C24_19  and  C25_32 
ROOT
HETATM    1  C7  BCR B 617      11.639  31.760 -28.987  1.00 19.27     0.009 C 
HETATM    2  C8  BCR B 617      12.587  30.846 -28.786  1.00 21.60     0.007 C 
HETATM    3  C9  BCR B 617      13.599  30.983 -27.719  1.00 23.86    -0.062 C 
HETATM    4  C10 BCR B 617      14.346  29.923 -27.400  1.00 19.60     0.007 C 
HETATM    5  C11 BCR B 617      15.379  29.912 -26.378  1.00 18.33     0.001 C 
HETATM    6  C34 BCR B 617      13.793  32.294 -27.028  1.00 23.81     0.048 C 
HETATM    7  C12 BCR B 617      16.311  28.961 -26.448  1.00 17.62     0.007 C 
HETATM    8  C13 BCR B 617      17.409  28.828 -25.479  1.00 18.11    -0.062 C 
HETATM    9  C14 BCR B 617      18.211  27.742 -25.538  1.00 18.92     0.007 C 
HETATM   10  C15 BCR B 617      19.318  27.521 -24.605  1.00 19.09     0.001 C 
HETATM   11  C16 BCR B 617      19.894  26.327 -24.437  1.00 23.01     0.001 C 
HETATM   12  C17 BCR B 617      20.994  26.188 -23.482  1.00 24.11     0.007 C 
HETATM   13  C18 BCR B 617      21.688  25.065 -23.229  1.00 19.95    -0.062 C 
HETATM   14  C19 BCR B 617      22.766  25.114 -22.246  1.00 21.01     0.007 C 
HETATM   15  C20 BCR B 617      23.481  24.042 -21.926  1.00 25.10     0.001 C 
HETATM   16  C21 BCR B 617      24.551  24.234 -20.952  1.00 22.05     0.007 C 
HETATM   17  C22 BCR B 617      25.244  23.253 -20.379  1.00 21.59    -0.062 C 
HETATM   18  C23 BCR B 617      26.295  23.614 -19.422  1.00 25.46     0.007 C 
HETATM   19  C24 BCR B 617      26.871  22.692 -18.660  1.00 27.51     0.009 C 
HETATM   20  C35 BCR B 617      17.634  29.885 -24.444  1.00 15.67     0.048 C 
HETATM   21  C36 BCR B 617      21.403  23.778 -23.915  1.00 21.62     0.048 C 
HETATM   22  C37 BCR B 617      24.989  21.815 -20.702  1.00 24.04     0.048 C 
ENDROOT
BRANCH   1  23
HETATM   23  C6  BCR B 617      10.649  31.611 -30.067  1.00 26.27    -0.048 C 
HETATM   24  C1  BCR B 617      10.761  32.570 -31.213  1.00 26.29    -0.020 C 
HETATM   25  C2  BCR B 617       9.479  32.576 -32.031  1.00 24.49     0.014 C 
HETATM   26  C3  BCR B 617       9.082  31.174 -32.433  1.00 22.61     0.005 C 
HETATM   27  C4  BCR B 617       8.873  30.281 -31.235  1.00 25.50     0.034 C 
HETATM   28  C5  BCR B 617       9.692  30.670 -30.036  1.00 27.16    -0.077 C 
HETATM   29  C33 BCR B 617       9.383  29.928 -28.775  1.00 29.92     0.044 C 
HETATM   30  C31 BCR B 617      11.014  33.971 -30.681  1.00 24.31     0.020 C 
HETATM   31  C32 BCR B 617      11.924  32.090 -32.066  1.00 18.56     0.020 C 
ENDBRANCH   1  23
BRANCH  19  32
HETATM   32  C25 BCR B 617      27.955  22.977 -17.695  1.00 24.70    -0.048 C 
HETATM   33  C26 BCR B 617      27.749  23.628 -16.555  1.00 30.61    -0.077 C 
HETATM   34  C27 BCR B 617      28.863  23.794 -15.563  1.00 27.25     0.034 C 
HETATM   35  C28 BCR B 617      30.055  24.224 -16.383  1.00 25.90     0.005 C 
HETATM   36  C29 BCR B 617      30.464  23.085 -17.291  1.00 30.03     0.014 C 
HETATM   37  C30 BCR B 617      29.313  22.430 -18.042  1.00 27.09    -0.020 C 
HETATM   38  C38 BCR B 617      26.423  24.229 -16.227  1.00 30.71     0.044 C 
HETATM   39  C39 BCR B 617      29.255  20.944 -17.740  1.00 28.41     0.020 C 
HETATM   40  C40 BCR B 617      29.580  22.614 -19.524  1.00 28.54     0.020 C 
ENDBRANCH  19  32
TORSDOF 10
