REMARK  2 active torsions:
REMARK  status: ('A' for Active; 'I' for Inactive)
REMARK    1  A    between atoms: C6_23  and  C7_1 
REMARK       I    between atoms: C8_2  and  C9_3 
REMARK       I    between atoms: C10_4  and  C11_5 
REMARK       I    between atoms: C12_7  and  C13_8 
REMARK       I    between atoms: C14_9  and  C15_10 
REMARK       I    between atoms: C16_11  and  C17_12 
REMARK       I    between atoms: C18_13  and  C19_14 
REMARK       I    between atoms: C20_15  and  C21_16 
REMARK       I    between atoms: C22_17  and  C23_18 
REMARK    2  A    between atoms: C24_19  and  C25_32 
ROOT
HETATM    1  C7  BCR H 102      30.066  58.745 -35.862  1.00 27.41     0.009 C 
HETATM    2  C8  BCR H 102      31.388  58.725 -36.037  1.00 28.65     0.007 C 
HETATM    3  C9  BCR H 102      31.902  58.143 -37.289  1.00 28.29    -0.062 C 
HETATM    4  C10 BCR H 102      32.529  58.881 -38.207  1.00 25.92     0.007 C 
HETATM    5  C11 BCR H 102      33.000  58.252 -39.432  1.00 28.10     0.001 C 
HETATM    6  C34 BCR H 102      31.725  56.677 -37.525  1.00 31.23     0.048 C 
HETATM    7  C12 BCR H 102      33.239  59.023 -40.482  1.00 28.27     0.007 C 
HETATM    8  C13 BCR H 102      33.680  58.485 -41.772  1.00 27.17    -0.062 C 
HETATM    9  C14 BCR H 102      33.750  59.315 -42.818  1.00 27.77     0.007 C 
HETATM   10  C15 BCR H 102      34.159  58.908 -44.156  1.00 27.77     0.001 C 
HETATM   11  C16 BCR H 102      33.905  59.730 -45.170  1.00 27.54     0.001 C 
HETATM   12  C17 BCR H 102      34.295  59.398 -46.530  1.00 29.95     0.007 C 
HETATM   13  C18 BCR H 102      33.989  60.175 -47.573  1.00 32.47    -0.062 C 
HETATM   14  C19 BCR H 102      34.458  59.779 -48.910  1.00 38.93     0.007 C 
HETATM   15  C20 BCR H 102      34.274  60.516 -49.998  1.00 35.02     0.001 C 
HETATM   16  C21 BCR H 102      34.818  60.017 -51.258  1.00 36.49     0.007 C 
HETATM   17  C22 BCR H 102      34.652  60.627 -52.440  1.00 41.54    -0.062 C 
HETATM   18  C23 BCR H 102      35.275  60.038 -53.636  1.00 41.98     0.007 C 
HETATM   19  C24 BCR H 102      35.105  60.592 -54.833  1.00 40.47     0.009 C 
HETATM   20  C35 BCR H 102      34.001  57.035 -41.907  1.00 25.69     0.048 C 
HETATM   21  C36 BCR H 102      33.211  61.437 -47.391  1.00 32.21     0.048 C 
HETATM   22  C37 BCR H 102      33.871  61.899 -52.565  1.00 34.38     0.048 C 
ENDROOT
BRANCH   1  23
HETATM   23  C6  BCR H 102      29.229  59.246 -34.735  1.00 28.94    -0.048 C 
HETATM   24  C1  BCR H 102      27.874  58.559 -34.614  1.00 25.36    -0.020 C 
HETATM   25  C2  BCR H 102      27.137  58.874 -33.329  1.00 22.06     0.014 C 
HETATM   26  C3  BCR H 102      27.253  60.343 -33.009  1.00 25.43     0.005 C 
HETATM   27  C4  BCR H 102      28.714  60.644 -32.738  1.00 27.47     0.034 C 
HETATM   28  C5  BCR H 102      29.558  60.277 -33.931  1.00 26.86    -0.077 C 
HETATM   29  C33 BCR H 102      30.740  61.170 -34.151  1.00 26.00     0.044 C 
HETATM   30  C31 BCR H 102      27.056  59.026 -35.801  1.00 26.13     0.020 C 
HETATM   31  C32 BCR H 102      28.017  57.054 -34.697  1.00 26.25     0.020 C 
ENDBRANCH   1  23
BRANCH  19  32
HETATM   32  C25 BCR H 102      35.716  60.077 -56.079  1.00 41.05    -0.048 C 
HETATM   33  C26 BCR H 102      35.340  58.922 -56.639  1.00 39.79    -0.077 C 
HETATM   34  C27 BCR H 102      35.745  58.599 -58.050  1.00 42.14     0.034 C 
HETATM   35  C28 BCR H 102      37.207  58.941 -58.215  1.00 43.18     0.005 C 
HETATM   36  C29 BCR H 102      37.392  60.429 -57.995  1.00 42.37     0.014 C 
HETATM   37  C30 BCR H 102      36.758  60.971 -56.720  1.00 38.21    -0.020 C 
HETATM   38  C38 BCR H 102      34.511  57.897 -55.923  1.00 36.04     0.044 C 
HETATM   39  C39 BCR H 102      36.088  62.281 -57.080  1.00 40.10     0.020 C 
HETATM   40  C40 BCR H 102      37.846  61.287 -55.709  1.00 38.80     0.020 C 
ENDBRANCH  19  32
TORSDOF 10
