REMARK  2 active torsions:
REMARK  status: ('A' for Active; 'I' for Inactive)
REMARK    1  A    between atoms: C6_23  and  C7_1 
REMARK       I    between atoms: C8_2  and  C9_3 
REMARK       I    between atoms: C10_4  and  C11_5 
REMARK       I    between atoms: C12_7  and  C13_8 
REMARK       I    between atoms: C14_9  and  C15_10 
REMARK       I    between atoms: C16_11  and  C17_12 
REMARK       I    between atoms: C18_13  and  C19_14 
REMARK       I    between atoms: C20_15  and  C21_16 
REMARK       I    between atoms: C22_17  and  C23_18 
REMARK    2  A    between atoms: C24_19  and  C25_32 
ROOT
HETATM    1  C7  BCR B 618      38.301  32.083 -25.508  1.00 26.64     0.009 C 
HETATM    2  C8  BCR B 618      38.383  32.195 -24.191  1.00 26.25     0.007 C 
HETATM    3  C9  BCR B 618      37.153  32.481 -23.430  1.00 28.38    -0.062 C 
HETATM    4  C10 BCR B 618      37.082  32.166 -22.137  1.00 28.10     0.007 C 
HETATM    5  C11 BCR B 618      35.912  32.388 -21.303  1.00 22.97     0.001 C 
HETATM    6  C34 BCR B 618      35.995  33.137 -24.101  1.00 24.68     0.048 C 
HETATM    7  C12 BCR B 618      36.085  32.130 -20.017  1.00 27.25     0.007 C 
HETATM    8  C13 BCR B 618      35.053  32.246 -18.982  1.00 24.75    -0.062 C 
HETATM    9  C14 BCR B 618      35.377  31.991 -17.715  1.00 20.67     0.007 C 
HETATM   10  C15 BCR B 618      34.379  32.046 -16.665  1.00 20.47     0.001 C 
HETATM   11  C16 BCR B 618      34.670  31.561 -15.471  1.00 22.70     0.001 C 
HETATM   12  C17 BCR B 618      33.666  31.560 -14.429  1.00 22.25     0.007 C 
HETATM   13  C18 BCR B 618      33.934  31.205 -13.172  1.00 26.36    -0.062 C 
HETATM   14  C19 BCR B 618      32.838  31.190 -12.192  1.00 25.59     0.007 C 
HETATM   15  C20 BCR B 618      33.005  30.938 -10.903  1.00 24.27     0.001 C 
HETATM   16  C21 BCR B 618      31.805  30.931 -10.089  1.00 23.38     0.007 C 
HETATM   17  C22 BCR B 618      31.767  30.667  -8.781  1.00 27.07    -0.062 C 
HETATM   18  C23 BCR B 618      30.452  30.670  -8.111  1.00 25.86     0.007 C 
HETATM   19  C24 BCR B 618      30.214  30.093  -6.935  1.00 25.72     0.009 C 
HETATM   20  C35 BCR B 618      33.651  32.608 -19.346  1.00 18.72     0.048 C 
HETATM   21  C36 BCR B 618      35.314  30.805 -12.768  1.00 23.59     0.048 C 
HETATM   22  C37 BCR B 618      33.018  30.364  -8.028  1.00 34.23     0.048 C 
ENDROOT
BRANCH   1  23
HETATM   23  C6  BCR B 618      39.448  31.801 -26.387  1.00 29.52    -0.048 C 
HETATM   24  C1  BCR B 618      39.245  30.963 -27.610  1.00 32.08    -0.020 C 
HETATM   25  C2  BCR B 618      40.520  30.966 -28.447  1.00 32.02     0.014 C 
HETATM   26  C3  BCR B 618      41.765  30.607 -27.656  1.00 30.00     0.005 C 
HETATM   27  C4  BCR B 618      41.818  31.274 -26.293  1.00 29.70     0.034 C 
HETATM   28  C5  BCR B 618      40.678  32.243 -26.167  1.00 32.08    -0.077 C 
HETATM   29  C33 BCR B 618      40.966  33.676 -25.862  1.00 36.33     0.044 C 
HETATM   30  C31 BCR B 618      38.848  29.560 -27.177  1.00 29.12     0.020 C 
HETATM   31  C32 BCR B 618      38.140  31.583 -28.435  1.00 31.50     0.020 C 
ENDBRANCH   1  23
BRANCH  19  32
HETATM   32  C25 BCR B 618      28.865  30.081  -6.317  1.00 30.28    -0.048 C 
HETATM   33  C26 BCR B 618      27.964  29.199  -6.752  1.00 31.25    -0.077 C 
HETATM   34  C27 BCR B 618      26.748  28.885  -5.934  1.00 29.22     0.034 C 
HETATM   35  C28 BCR B 618      26.160  30.201  -5.493  1.00 25.82     0.005 C 
HETATM   36  C29 BCR B 618      27.150  30.845  -4.555  1.00 26.07     0.014 C 
HETATM   37  C30 BCR B 618      28.530  31.027  -5.183  1.00 28.46    -0.020 C 
HETATM   38  C38 BCR B 618      28.108  28.485  -8.057  1.00 29.70     0.044 C 
HETATM   39  C39 BCR B 618      29.539  30.810  -4.072  1.00 35.43     0.020 C 
HETATM   40  C40 BCR B 618      28.619  32.440  -5.716  1.00 25.20     0.020 C 
ENDBRANCH  19  32
TORSDOF 10
