REMARK  2 active torsions:
REMARK  status: ('A' for Active; 'I' for Inactive)
REMARK    1  A    between atoms: C6_23  and  C7_1 
REMARK       I    between atoms: C8_2  and  C9_3 
REMARK       I    between atoms: C10_4  and  C11_5 
REMARK       I    between atoms: C12_7  and  C13_8 
REMARK       I    between atoms: C14_9  and  C15_10 
REMARK       I    between atoms: C16_11  and  C17_12 
REMARK       I    between atoms: C18_13  and  C19_14 
REMARK       I    between atoms: C20_15  and  C21_16 
REMARK       I    between atoms: C22_17  and  C23_18 
REMARK    2  A    between atoms: C24_19  and  C25_32 
ROOT
HETATM    1  C7  BCR K 101     -40.679  81.632 -54.976  1.00 48.65     0.009 C 
HETATM    2  C8  BCR K 101     -39.382  81.526 -54.687  1.00 52.02     0.007 C 
HETATM    3  C9  BCR K 101     -38.840  81.379 -53.320  1.00 47.61    -0.062 C 
HETATM    4  C10 BCR K 101     -37.523  81.537 -53.129  1.00 50.88     0.007 C 
HETATM    5  C11 BCR K 101     -36.866  81.387 -51.833  1.00 48.28     0.001 C 
HETATM    6  C34 BCR K 101     -39.735  81.058 -52.168  1.00 45.70     0.048 C 
HETATM    7  C12 BCR K 101     -35.538  81.424 -51.848  1.00 55.39     0.007 C 
HETATM    8  C13 BCR K 101     -34.668  81.247 -50.668  1.00 52.90    -0.062 C 
HETATM    9  C14 BCR K 101     -33.340  81.394 -50.829  1.00 52.56     0.007 C 
HETATM   10  C15 BCR K 101     -32.368  81.206 -49.751  1.00 51.27     0.001 C 
HETATM   11  C16 BCR K 101     -31.067  81.154 -50.048  1.00 51.24     0.001 C 
HETATM   12  C17 BCR K 101     -30.069  80.943 -48.999  1.00 52.13     0.007 C 
HETATM   13  C18 BCR K 101     -28.751  80.829 -49.237  1.00 46.79    -0.062 C 
HETATM   14  C19 BCR K 101     -27.861  80.596 -48.089  1.00 43.89     0.007 C 
HETATM   15  C20 BCR K 101     -26.636  80.079 -48.191  1.00 44.27     0.001 C 
HETATM   16  C21 BCR K 101     -25.901  79.893 -46.941  1.00 43.76     0.007 C 
HETATM   17  C22 BCR K 101     -24.578  79.682 -46.816  1.00 47.16    -0.062 C 
HETATM   18  C23 BCR K 101     -24.067  79.529 -45.448  1.00 46.79     0.007 C 
HETATM   19  C24 BCR K 101     -22.800  79.778 -45.150  1.00 42.76     0.009 C 
HETATM   20  C35 BCR K 101     -35.246  80.858 -49.342  1.00 46.59     0.048 C 
HETATM   21  C36 BCR K 101     -28.192  80.923 -50.621  1.00 47.08     0.048 C 
HETATM   22  C37 BCR K 101     -23.635  79.618 -47.982  1.00 37.98     0.048 C 
ENDROOT
BRANCH   1  23
HETATM   23  C6  BCR K 101     -41.124  81.773 -56.381  1.00 51.74    -0.048 C 
HETATM   24  C1  BCR K 101     -41.073  83.128 -57.036  1.00 53.78    -0.020 C 
HETATM   25  C2  BCR K 101     -41.878  83.117 -58.321  1.00 52.63     0.014 C 
HETATM   26  C3  BCR K 101     -41.413  81.965 -59.189  1.00 48.62     0.005 C 
HETATM   27  C4  BCR K 101     -41.738  80.641 -58.531  1.00 47.69     0.034 C 
HETATM   28  C5  BCR K 101     -41.571  80.706 -57.034  1.00 49.41    -0.077 C 
HETATM   29  C33 BCR K 101     -41.934  79.497 -56.247  1.00 47.21     0.044 C 
HETATM   30  C31 BCR K 101     -41.609  84.150 -56.047  1.00 51.09     0.020 C 
HETATM   31  C32 BCR K 101     -39.639  83.467 -57.408  1.00 55.13     0.020 C 
ENDBRANCH   1  23
BRANCH  19  32
HETATM   32  C25 BCR K 101     -22.346  79.630 -43.757  1.00 46.43    -0.048 C 
HETATM   33  C26 BCR K 101     -22.875  80.380 -42.782  1.00 46.40    -0.077 C 
HETATM   34  C27 BCR K 101     -22.882  79.948 -41.339  1.00 46.16     0.034 C 
HETATM   35  C28 BCR K 101     -22.086  78.668 -41.156  1.00 49.08     0.005 C 
HETATM   36  C29 BCR K 101     -20.842  78.687 -42.025  1.00 48.65     0.014 C 
HETATM   37  C30 BCR K 101     -21.263  78.621 -43.481  1.00 50.07    -0.020 C 
HETATM   38  C38 BCR K 101     -23.472  81.720 -43.079  1.00 46.50     0.044 C 
HETATM   39  C39 BCR K 101     -21.817  77.244 -43.811  1.00 51.74     0.020 C 
HETATM   40  C40 BCR K 101     -20.079  78.921 -44.383  1.00 46.40     0.020 C 
ENDBRANCH  19  32
TORSDOF 10
