REMARK  2 active torsions:
REMARK  status: ('A' for Active; 'I' for Inactive)
REMARK    1  A    between atoms: C6_23  and  C7_1 
REMARK       I    between atoms: C8_2  and  C9_3 
REMARK       I    between atoms: C10_4  and  C11_5 
REMARK       I    between atoms: C12_7  and  C13_8 
REMARK       I    between atoms: C14_9  and  C15_10 
REMARK       I    between atoms: C16_11  and  C17_12 
REMARK       I    between atoms: C18_13  and  C19_14 
REMARK       I    between atoms: C20_15  and  C21_16 
REMARK       I    between atoms: C22_17  and  C23_18 
REMARK    2  A    between atoms: C24_19  and  C25_32 
ROOT
HETATM    1  C7  BCR B 619      -2.636 -26.592 165.561  1.00 27.16     0.009 C 
HETATM    2  C8  BCR B 619      -2.237 -25.546 164.841  1.00 26.20     0.007 C 
HETATM    3  C9  BCR B 619      -1.525 -25.655 163.588  1.00 20.49    -0.062 C 
HETATM    4  C10 BCR B 619      -1.046 -24.517 163.052  1.00 22.41     0.007 C 
HETATM    5  C11 BCR B 619      -0.227 -24.430 161.851  1.00 20.79     0.001 C 
HETATM    6  C34 BCR B 619      -1.390 -27.026 162.980  1.00 20.53     0.048 C 
HETATM    7  C12 BCR B 619       0.326 -23.253 161.467  1.00 22.97     0.007 C 
HETATM    8  C13 BCR B 619       1.165 -23.103 160.235  1.00 24.26    -0.062 C 
HETATM    9  C14 BCR B 619       1.649 -21.866 159.895  1.00 21.19     0.007 C 
HETATM   10  C15 BCR B 619       2.438 -21.541 158.684  1.00 24.01     0.001 C 
HETATM   11  C16 BCR B 619       2.810 -20.258 158.389  1.00 22.73     0.001 C 
HETATM   12  C17 BCR B 619       3.535 -20.002 157.148  1.00 24.34     0.007 C 
HETATM   13  C18 BCR B 619       3.941 -18.749 156.695  1.00 23.72    -0.062 C 
HETATM   14  C19 BCR B 619       4.694 -18.659 155.402  1.00 24.63     0.007 C 
HETATM   15  C20 BCR B 619       5.092 -17.496 154.833  1.00 25.42     0.001 C 
HETATM   16  C21 BCR B 619       5.771 -17.482 153.542  1.00 24.42     0.007 C 
HETATM   17  C22 BCR B 619       6.118 -16.419 152.792  1.00 28.11    -0.062 C 
HETATM   18  C23 BCR B 619       6.772 -16.707 151.496  1.00 27.88     0.007 C 
HETATM   19  C24 BCR B 619       7.330 -15.750 150.715  1.00 48.58     0.009 C 
HETATM   20  C35 BCR B 619       1.364 -24.368 159.355  1.00 23.42     0.048 C 
HETATM   21  C36 BCR B 619       3.653 -17.443 157.428  1.00 23.31     0.048 C 
HETATM   22  C37 BCR B 619       5.835 -14.985 153.266  1.00 31.17     0.048 C 
ENDROOT
BRANCH   1  23
HETATM   23  C6  BCR B 619      -3.291 -26.521 166.889  1.00 26.75    -0.048 C 
HETATM   24  C1  BCR B 619      -2.886 -27.579 167.922  1.00 29.78    -0.020 C 
HETATM   25  C2  BCR B 619      -3.762 -27.547 169.168  1.00 32.88     0.014 C 
HETATM   26  C3  BCR B 619      -3.993 -26.141 169.651  1.00 32.12     0.005 C 
HETATM   27  C4  BCR B 619      -4.682 -25.280 168.628  1.00 29.37     0.034 C 
HETATM   28  C5  BCR B 619      -4.154 -25.519 167.217  1.00 26.51    -0.077 C 
HETATM   29  C33 BCR B 619      -4.754 -24.591 166.175  1.00 26.02     0.044 C 
HETATM   30  C31 BCR B 619      -2.985 -28.955 167.334  1.00 32.38     0.020 C 
HETATM   31  C32 BCR B 619      -1.433 -27.274 168.307  1.00 28.82     0.020 C 
ENDBRANCH   1  23
BRANCH  19  32
HETATM   32  C25 BCR B 619       8.137 -15.967 149.422  1.00 40.96    -0.048 C 
HETATM   33  C26 BCR B 619       7.811 -16.810 148.435  1.00 43.15    -0.077 C 
HETATM   34  C27 BCR B 619       8.711 -17.119 147.243  1.00 40.16     0.034 C 
HETATM   35  C28 BCR B 619      10.129 -16.673 147.452  1.00 50.45     0.005 C 
HETATM   36  C29 BCR B 619       9.988 -15.247 147.875  1.00 52.86     0.014 C 
HETATM   37  C30 BCR B 619       9.382 -15.108 149.267  1.00 49.52    -0.020 C 
HETATM   38  C38 BCR B 619       6.452 -17.434 148.348  1.00 48.43     0.044 C 
HETATM   39  C39 BCR B 619       9.171 -13.591 149.504  1.00 62.11     0.020 C 
HETATM   40  C40 BCR B 619      10.328 -15.717 150.273  1.00 46.92     0.020 C 
ENDBRANCH  19  32
TORSDOF 10
