REMARK  2 active torsions:
REMARK  status: ('A' for Active; 'I' for Inactive)
REMARK    1  A    between atoms: C6_23  and  C7_1 
REMARK       I    between atoms: C8_2  and  C9_3 
REMARK       I    between atoms: C10_4  and  C11_5 
REMARK       I    between atoms: C12_7  and  C13_8 
REMARK       I    between atoms: C14_9  and  C15_10 
REMARK       I    between atoms: C16_11  and  C17_12 
REMARK       I    between atoms: C18_13  and  C19_14 
REMARK       I    between atoms: C20_15  and  C21_16 
REMARK       I    between atoms: C22_17  and  C23_18 
REMARK    2  A    between atoms: C24_19  and  C25_32 
ROOT
HETATM    1  C7  BCR B 618      -4.858 -18.816 166.617  1.00 27.12     0.009 C 
HETATM    2  C8  BCR B 618      -4.712 -19.927 165.833  1.00 26.98     0.007 C 
HETATM    3  C9  BCR B 618      -3.978 -19.842 164.542  1.00 24.53    -0.062 C 
HETATM    4  C10 BCR B 618      -3.981 -20.854 163.634  1.00 24.97     0.007 C 
HETATM    5  C11 BCR B 618      -3.318 -20.895 162.345  1.00 25.62     0.001 C 
HETATM    6  C34 BCR B 618      -3.223 -18.603 164.256  1.00 33.15     0.048 C 
HETATM    7  C12 BCR B 618      -3.421 -22.040 161.587  1.00 26.13     0.007 C 
HETATM    8  C13 BCR B 618      -2.824 -22.135 160.239  1.00 22.67    -0.062 C 
HETATM    9  C14 BCR B 618      -3.032 -23.265 159.482  1.00 24.59     0.007 C 
HETATM   10  C15 BCR B 618      -2.531 -23.440 158.104  1.00 24.70     0.001 C 
HETATM   11  C16 BCR B 618      -2.931 -24.562 157.449  1.00 24.56     0.001 C 
HETATM   12  C17 BCR B 618      -2.552 -24.775 156.089  1.00 24.82     0.007 C 
HETATM   13  C18 BCR B 618      -2.924 -25.789 155.240  1.00 24.84    -0.062 C 
HETATM   14  C19 BCR B 618      -2.377 -25.786 153.852  1.00 26.41     0.007 C 
HETATM   15  C20 BCR B 618      -2.717 -26.657 152.832  1.00 24.04     0.001 C 
HETATM   16  C21 BCR B 618      -2.120 -26.440 151.531  1.00 21.42     0.007 C 
HETATM   17  C22 BCR B 618      -2.468 -27.132 150.421  1.00 21.83    -0.062 C 
HETATM   18  C23 BCR B 618      -1.751 -26.780 149.191  1.00 24.43     0.007 C 
HETATM   19  C24 BCR B 618      -1.897 -27.473 148.062  1.00 24.88     0.009 C 
HETATM   20  C35 BCR B 618      -2.013 -20.988 159.703  1.00 24.37     0.048 C 
HETATM   21  C36 BCR B 618      -3.811 -26.918 155.618  1.00 25.76     0.048 C 
HETATM   22  C37 BCR B 618      -3.554 -28.138 150.436  1.00 22.43     0.048 C 
ENDROOT
BRANCH   1  23
HETATM   23  C6  BCR B 618      -5.710 -18.925 167.824  1.00 26.24    -0.048 C 
HETATM   24  C1  BCR B 618      -5.061 -19.537 169.049  1.00 25.69    -0.020 C 
HETATM   25  C2  BCR B 618      -5.831 -19.128 170.274  1.00 30.07     0.014 C 
HETATM   26  C3  BCR B 618      -7.330 -19.262 170.081  1.00 28.38     0.005 C 
HETATM   27  C4  BCR B 618      -7.902 -18.516 168.906  1.00 25.71     0.034 C 
HETATM   28  C5  BCR B 618      -6.992 -18.582 167.722  1.00 24.46    -0.077 C 
HETATM   29  C33 BCR B 618      -7.552 -18.052 166.442  1.00 29.99     0.044 C 
HETATM   30  C31 BCR B 618      -4.959 -21.033 168.944  1.00 31.89     0.020 C 
HETATM   31  C32 BCR B 618      -3.655 -18.909 169.252  1.00 28.38     0.020 C 
ENDBRANCH   1  23
BRANCH  19  32
HETATM   32  C25 BCR B 618      -1.078 -27.301 146.843  1.00 27.45    -0.048 C 
HETATM   33  C26 BCR B 618      -0.689 -26.119 146.359  1.00 30.30    -0.077 C 
HETATM   34  C27 BCR B 618       0.136 -25.964 145.080  1.00 34.06     0.034 C 
HETATM   35  C28 BCR B 618       0.250 -27.227 144.271  1.00 34.26     0.005 C 
HETATM   36  C29 BCR B 618       0.481 -28.434 145.184  1.00 31.13     0.014 C 
HETATM   37  C30 BCR B 618      -0.643 -28.612 146.186  1.00 27.47    -0.020 C 
HETATM   38  C38 BCR B 618      -1.136 -24.815 146.922  1.00 29.80     0.044 C 
HETATM   39  C39 BCR B 618      -0.011 -29.547 147.228  1.00 24.87     0.020 C 
HETATM   40  C40 BCR B 618      -1.870 -29.296 145.584  1.00 29.70     0.020 C 
ENDBRANCH  19  32
TORSDOF 10
