REMARK  2 active torsions:
REMARK  status: ('A' for Active; 'I' for Inactive)
REMARK    1  A    between atoms: C6_23  and  C7_1 
REMARK       I    between atoms: C8_2  and  C9_3 
REMARK       I    between atoms: C10_4  and  C11_5 
REMARK       I    between atoms: C12_7  and  C13_8 
REMARK       I    between atoms: C14_9  and  C15_10 
REMARK       I    between atoms: C16_11  and  C17_12 
REMARK       I    between atoms: C18_13  and  C19_14 
REMARK       I    between atoms: C20_15  and  C21_16 
REMARK       I    between atoms: C22_17  and  C23_18 
REMARK    2  A    between atoms: C24_19  and  C25_32 
ROOT
HETATM    1  C7  BCR K 101     -36.410 -81.387 206.102  1.00 34.80     0.009 C 
HETATM    2  C8  BCR K 101     -35.487 -81.673 205.160  1.00 30.57     0.007 C 
HETATM    3  C9  BCR K 101     -35.619 -81.265 203.732  1.00 32.13    -0.062 C 
HETATM    4  C10 BCR K 101     -34.529 -81.503 202.962  1.00 32.81     0.007 C 
HETATM    5  C11 BCR K 101     -34.350 -81.118 201.557  1.00 29.90     0.001 C 
HETATM    6  C34 BCR K 101     -36.932 -80.687 203.252  1.00 34.60     0.048 C 
HETATM    7  C12 BCR K 101     -33.123 -81.203 201.070  1.00 27.83     0.007 C 
HETATM    8  C13 BCR K 101     -32.774 -80.805 199.697  1.00 32.22    -0.062 C 
HETATM    9  C14 BCR K 101     -31.452 -80.863 199.344  1.00 33.89     0.007 C 
HETATM   10  C15 BCR K 101     -30.880 -80.469 198.054  1.00 31.94     0.001 C 
HETATM   11  C16 BCR K 101     -29.538 -80.424 197.852  1.00 39.08     0.001 C 
HETATM   12  C17 BCR K 101     -29.039 -79.981 196.548  1.00 33.76     0.007 C 
HETATM   13  C18 BCR K 101     -27.744 -79.741 196.255  1.00 31.16    -0.062 C 
HETATM   14  C19 BCR K 101     -27.349 -79.259 194.905  1.00 38.37     0.007 C 
HETATM   15  C20 BCR K 101     -26.145 -78.745 194.547  1.00 30.97     0.001 C 
HETATM   16  C21 BCR K 101     -25.992 -78.393 193.145  1.00 34.12     0.007 C 
HETATM   17  C22 BCR K 101     -24.816 -78.056 192.540  1.00 31.09    -0.062 C 
HETATM   18  C23 BCR K 101     -24.851 -77.879 191.056  1.00 35.26     0.007 C 
HETATM   19  C24 BCR K 101     -23.739 -77.754 190.266  1.00 36.95     0.009 C 
HETATM   20  C35 BCR K 101     -33.865 -80.262 198.837  1.00 33.34     0.048 C 
HETATM   21  C36 BCR K 101     -26.690 -80.077 197.236  1.00 38.68     0.048 C 
HETATM   22  C37 BCR K 101     -23.559 -78.022 193.379  1.00 36.05     0.048 C 
ENDROOT
BRANCH   1  23
HETATM   23  C6  BCR K 101     -36.251 -81.672 207.544  1.00 38.56    -0.048 C 
HETATM   24  C1  BCR K 101     -35.449 -82.902 207.976  1.00 40.94    -0.020 C 
HETATM   25  C2  BCR K 101     -35.873 -83.303 209.401  1.00 37.77     0.014 C 
HETATM   26  C3  BCR K 101     -35.725 -82.151 210.372  1.00 38.82     0.005 C 
HETATM   27  C4  BCR K 101     -36.532 -80.940 209.958  1.00 37.64     0.034 C 
HETATM   28  C5  BCR K 101     -36.748 -80.814 208.454  1.00 40.78    -0.077 C 
HETATM   29  C33 BCR K 101     -37.568 -79.619 208.110  1.00 40.24     0.044 C 
HETATM   30  C31 BCR K 101     -35.839 -84.113 207.074  1.00 39.98     0.020 C 
HETATM   31  C32 BCR K 101     -33.934 -82.621 207.976  1.00 47.94     0.020 C 
ENDBRANCH   1  23
BRANCH  19  32
HETATM   32  C25 BCR K 101     -23.862 -77.621 188.794  1.00 37.34    -0.048 C 
HETATM   33  C26 BCR K 101     -24.684 -78.415 188.057  1.00 39.16    -0.077 C 
HETATM   34  C27 BCR K 101     -25.000 -78.156 186.610  1.00 44.81     0.034 C 
HETATM   35  C28 BCR K 101     -24.365 -76.926 186.034  1.00 41.82     0.005 C 
HETATM   36  C29 BCR K 101     -22.998 -76.670 186.630  1.00 38.72     0.014 C 
HETATM   37  C30 BCR K 101     -23.099 -76.512 188.133  1.00 39.55    -0.020 C 
HETATM   38  C38 BCR K 101     -25.198 -79.734 188.596  1.00 35.63     0.044 C 
HETATM   39  C39 BCR K 101     -23.862 -75.218 188.506  1.00 47.34     0.020 C 
HETATM   40  C40 BCR K 101     -21.692 -76.495 188.683  1.00 45.01     0.020 C 
ENDBRANCH  19  32
TORSDOF 10
