REMARK  2 active torsions:
REMARK  status: ('A' for Active; 'I' for Inactive)
REMARK    1  A    between atoms: C6_23  and  C7_1 
REMARK       I    between atoms: C8_2  and  C9_3 
REMARK       I    between atoms: C10_4  and  C11_5 
REMARK       I    between atoms: C12_7  and  C13_8 
REMARK       I    between atoms: C14_9  and  C15_10 
REMARK       I    between atoms: C16_11  and  C17_12 
REMARK       I    between atoms: C18_13  and  C19_14 
REMARK       I    between atoms: C20_15  and  C21_16 
REMARK       I    between atoms: C22_17  and  C23_18 
REMARK    2  A    between atoms: C24_19  and  C25_32 
ROOT
HETATM    1  C7  BCR A 610     -50.309 -33.145 171.204  1.00 25.66     0.009 C 
HETATM    2  C8  BCR A 610     -50.219 -32.371 172.303  1.00 28.04     0.007 C 
HETATM    3  C9  BCR A 610     -49.077 -31.429 172.485  1.00 26.85    -0.062 C 
HETATM    4  C10 BCR A 610     -48.856 -30.852 173.691  1.00 26.33     0.007 C 
HETATM    5  C11 BCR A 610     -47.731 -29.947 173.964  1.00 27.36     0.001 C 
HETATM    6  C34 BCR A 610     -48.195 -31.182 171.282  1.00 29.30     0.048 C 
HETATM    7  C12 BCR A 610     -47.632 -29.381 175.189  1.00 26.07     0.007 C 
HETATM    8  C13 BCR A 610     -46.596 -28.416 175.624  1.00 27.88    -0.062 C 
HETATM    9  C14 BCR A 610     -46.561 -28.082 176.952  1.00 26.29     0.007 C 
HETATM   10  C15 BCR A 610     -45.547 -27.204 177.551  1.00 24.17     0.001 C 
HETATM   11  C16 BCR A 610     -45.492 -26.959 178.870  1.00 25.06     0.001 C 
HETATM   12  C17 BCR A 610     -44.414 -26.114 179.374  1.00 23.08     0.007 C 
HETATM   13  C18 BCR A 610     -44.199 -25.752 180.673  1.00 25.47    -0.062 C 
HETATM   14  C19 BCR A 610     -43.065 -24.868 181.039  1.00 24.27     0.007 C 
HETATM   15  C20 BCR A 610     -43.018 -24.125 182.132  1.00 22.34     0.001 C 
HETATM   16  C21 BCR A 610     -41.830 -23.255 182.387  1.00 26.05     0.007 C 
HETATM   17  C22 BCR A 610     -41.764 -22.359 183.447  1.00 27.30    -0.062 C 
HETATM   18  C23 BCR A 610     -40.517 -21.521 183.578  1.00 23.16     0.007 C 
HETATM   19  C24 BCR A 610     -40.419 -20.547 184.470  1.00 21.54     0.009 C 
HETATM   20  C35 BCR A 610     -45.722 -27.829 174.541  1.00 33.62     0.048 C 
HETATM   21  C36 BCR A 610     -45.085 -26.226 181.764  1.00 23.31     0.048 C 
HETATM   22  C37 BCR A 610     -42.924 -22.257 184.430  1.00 28.25     0.048 C 
ENDROOT
BRANCH   1  23
HETATM   23  C6  BCR A 610     -51.387 -34.192 171.116  1.00 25.73    -0.048 C 
HETATM   24  C1  BCR A 610     -50.939 -35.595 170.766  1.00 29.59    -0.020 C 
HETATM   25  C2  BCR A 610     -52.061 -36.560 170.465  1.00 31.72     0.014 C 
HETATM   26  C3  BCR A 610     -53.133 -36.436 171.509  1.00 27.94     0.005 C 
HETATM   27  C4  BCR A 610     -53.699 -35.019 171.498  1.00 32.43     0.034 C 
HETATM   28  C5  BCR A 610     -52.635 -33.945 171.485  1.00 29.29    -0.077 C 
HETATM   29  C33 BCR A 610     -53.156 -32.587 171.722  1.00 35.13     0.044 C 
HETATM   30  C31 BCR A 610     -50.081 -35.558 169.546  1.00 31.88     0.020 C 
HETATM   31  C32 BCR A 610     -50.151 -36.138 171.965  1.00 31.60     0.020 C 
ENDBRANCH   1  23
BRANCH  19  32
HETATM   32  C25 BCR A 610     -39.255 -19.685 184.515  1.00 21.54    -0.048 C 
HETATM   33  C26 BCR A 610     -38.030 -20.250 184.624  1.00 20.62    -0.077 C 
HETATM   34  C27 BCR A 610     -36.726 -19.467 184.693  1.00 20.11     0.034 C 
HETATM   35  C28 BCR A 610     -36.958 -18.042 184.237  1.00 24.80     0.005 C 
HETATM   36  C29 BCR A 610     -38.244 -17.469 184.852  1.00 24.65     0.014 C 
HETATM   37  C30 BCR A 610     -39.502 -18.198 184.419  1.00 22.24    -0.020 C 
HETATM   38  C38 BCR A 610     -37.836 -21.700 184.900  1.00 20.57     0.044 C 
HETATM   39  C39 BCR A 610     -39.871 -17.923 182.948  1.00 24.02     0.020 C 
HETATM   40  C40 BCR A 610     -40.587 -17.797 185.348  1.00 22.78     0.020 C 
ENDBRANCH  19  32
TORSDOF 10
