REMARK  2 active torsions:
REMARK  status: ('A' for Active; 'I' for Inactive)
REMARK    1  A    between atoms: C6_23  and  C7_1 
REMARK       I    between atoms: C8_2  and  C9_3 
REMARK       I    between atoms: C10_4  and  C11_5 
REMARK       I    between atoms: C12_7  and  C13_8 
REMARK       I    between atoms: C14_9  and  C15_10 
REMARK       I    between atoms: C16_11  and  C17_12 
REMARK       I    between atoms: C18_13  and  C19_14 
REMARK       I    between atoms: C20_15  and  C21_16 
REMARK       I    between atoms: C22_17  and  C23_18 
REMARK    2  A    between atoms: C24_19  and  C25_32 
ROOT
HETATM    1  C7  BCR C 515     -55.326 -51.219 183.123  1.00 38.26     0.009 C 
HETATM    2  C8  BCR C 515     -55.971 -50.855 184.272  1.00 38.22     0.007 C 
HETATM    3  C9  BCR C 515     -55.457 -51.264 185.595  1.00 35.71    -0.062 C 
HETATM    4  C10 BCR C 515     -56.101 -50.818 186.727  1.00 34.83     0.007 C 
HETATM    5  C11 BCR C 515     -55.712 -51.056 188.115  1.00 34.31     0.001 C 
HETATM    6  C34 BCR C 515     -54.181 -52.055 185.659  1.00 33.98     0.048 C 
HETATM    7  C12 BCR C 515     -56.454 -50.530 189.162  1.00 35.08     0.007 C 
HETATM    8  C13 BCR C 515     -56.117 -50.733 190.613  1.00 29.52    -0.062 C 
HETATM    9  C14 BCR C 515     -57.035 -50.512 191.575  1.00 31.26     0.007 C 
HETATM   10  C15 BCR C 515     -56.860 -50.695 193.002  1.00 33.53     0.001 C 
HETATM   11  C16 BCR C 515     -57.837 -50.443 193.889  1.00 33.16     0.001 C 
HETATM   12  C17 BCR C 515     -57.509 -50.640 195.283  1.00 28.73     0.007 C 
HETATM   13  C18 BCR C 515     -58.384 -50.476 196.311  1.00 39.95    -0.062 C 
HETATM   14  C19 BCR C 515     -57.846 -50.687 197.687  1.00 34.36     0.007 C 
HETATM   15  C20 BCR C 515     -58.495 -50.369 198.804  1.00 34.09     0.001 C 
HETATM   16  C21 BCR C 515     -57.876 -50.577 200.091  1.00 39.52     0.007 C 
HETATM   17  C22 BCR C 515     -58.437 -50.296 201.289  1.00 32.90    -0.062 C 
HETATM   18  C23 BCR C 515     -57.619 -50.495 202.488  1.00 33.38     0.007 C 
HETATM   19  C24 BCR C 515     -57.843 -49.798 203.608  1.00 33.00     0.009 C 
HETATM   20  C35 BCR C 515     -54.713 -51.221 190.888  1.00 32.99     0.048 C 
HETATM   21  C36 BCR C 515     -59.805 -50.065 196.049  1.00 36.35     0.048 C 
HETATM   22  C37 BCR C 515     -59.823 -49.763 201.463  1.00 35.38     0.048 C 
ENDROOT
BRANCH   1  23
HETATM   23  C6  BCR C 515     -55.879 -50.856 181.805  1.00 39.14    -0.048 C 
HETATM   24  C1  BCR C 515     -56.107 -51.916 180.759  1.00 32.23    -0.020 C 
HETATM   25  C2  BCR C 515     -56.400 -51.368 179.378  1.00 37.78     0.014 C 
HETATM   26  C3  BCR C 515     -56.941 -49.937 179.359  1.00 45.00     0.005 C 
HETATM   27  C4  BCR C 515     -57.392 -49.319 180.647  1.00 59.48     0.034 C 
HETATM   28  C5  BCR C 515     -56.322 -49.601 181.645  1.00 57.44    -0.077 C 
HETATM   29  C33 BCR C 515     -55.737 -48.385 182.362  1.00 52.94     0.044 C 
HETATM   30  C31 BCR C 515     -54.972 -52.895 180.650  1.00 31.56     0.020 C 
HETATM   31  C32 BCR C 515     -57.331 -52.701 181.202  1.00 40.32     0.020 C 
ENDBRANCH   1  23
BRANCH  19  32
HETATM   32  C25 BCR C 515     -56.898 -49.828 204.743  1.00 30.17    -0.048 C 
HETATM   33  C26 BCR C 515     -56.339 -50.956 205.231  1.00 29.00    -0.077 C 
HETATM   34  C27 BCR C 515     -55.309 -50.935 206.348  1.00 31.78     0.034 C 
HETATM   35  C28 BCR C 515     -54.694 -49.580 206.552  1.00 32.86     0.005 C 
HETATM   36  C29 BCR C 515     -55.752 -48.506 206.607  1.00 30.76     0.014 C 
HETATM   37  C30 BCR C 515     -56.501 -48.451 205.272  1.00 31.35    -0.020 C 
HETATM   38  C38 BCR C 515     -56.731 -52.385 204.832  1.00 28.66     0.044 C 
HETATM   39  C39 BCR C 515     -55.669 -47.813 204.171  1.00 30.19     0.020 C 
HETATM   40  C40 BCR C 515     -57.720 -47.601 205.520  1.00 33.01     0.020 C 
ENDBRANCH  19  32
TORSDOF 10
