REMARK  2 active torsions:
REMARK  status: ('A' for Active; 'I' for Inactive)
REMARK    1  A    between atoms: C6_23  and  C7_1 
REMARK       I    between atoms: C8_2  and  C9_3 
REMARK       I    between atoms: C10_4  and  C11_5 
REMARK       I    between atoms: C12_7  and  C13_8 
REMARK       I    between atoms: C14_9  and  C15_10 
REMARK       I    between atoms: C16_11  and  C17_12 
REMARK       I    between atoms: C18_13  and  C19_14 
REMARK       I    between atoms: C20_15  and  C21_16 
REMARK       I    between atoms: C22_17  and  C23_18 
REMARK    2  A    between atoms: C24_19  and  C25_32 
ROOT
HETATM    1  C7  BCR B 620      21.282 -23.877 153.004  1.00 32.23     0.009 C 
HETATM    2  C8  BCR B 620      20.810 -24.015 151.770  1.00 34.61     0.007 C 
HETATM    3  C9  BCR B 620      19.411 -24.396 151.472  1.00 31.92    -0.062 C 
HETATM    4  C10 BCR B 620      18.925 -24.255 150.212  1.00 31.22     0.007 C 
HETATM    5  C11 BCR B 620      17.516 -24.513 149.830  1.00 31.10     0.001 C 
HETATM    6  C34 BCR B 620      18.593 -24.932 152.581  1.00 35.43     0.048 C 
HETATM    7  C12 BCR B 620      17.175 -24.306 148.583  1.00 29.25     0.007 C 
HETATM    8  C13 BCR B 620      15.838 -24.473 148.028  1.00 26.81    -0.062 C 
HETATM    9  C14 BCR B 620      15.634 -24.179 146.699  1.00 28.71     0.007 C 
HETATM   10  C15 BCR B 620      14.307 -24.218 146.014  1.00 30.34     0.001 C 
HETATM   11  C16 BCR B 620      14.195 -23.859 144.723  1.00 27.99     0.001 C 
HETATM   12  C17 BCR B 620      12.937 -23.856 144.075  1.00 26.90     0.007 C 
HETATM   13  C18 BCR B 620      12.705 -23.492 142.787  1.00 28.89    -0.062 C 
HETATM   14  C19 BCR B 620      11.297 -23.483 142.295  1.00 22.77     0.007 C 
HETATM   15  C20 BCR B 620      10.909 -23.234 141.028  1.00 22.75     0.001 C 
HETATM   16  C21 BCR B 620       9.499 -23.252 140.695  1.00 23.82     0.007 C 
HETATM   17  C22 BCR B 620       9.011 -23.063 139.446  1.00 27.13    -0.062 C 
HETATM   18  C23 BCR B 620       7.504 -23.071 139.339  1.00 29.91     0.007 C 
HETATM   19  C24 BCR B 620       6.824 -22.761 138.218  1.00 28.77     0.009 C 
HETATM   20  C35 BCR B 620      14.733 -24.933 148.916  1.00 27.35     0.048 C 
HETATM   21  C36 BCR B 620      13.808 -23.048 141.912  1.00 25.88     0.048 C 
HETATM   22  C37 BCR B 620       9.923 -22.741 138.254  1.00 25.34     0.048 C 
ENDROOT
BRANCH   1  23
HETATM   23  C6  BCR B 620      22.633 -23.316 153.321  1.00 39.21    -0.048 C 
HETATM   24  C1  BCR B 620      22.664 -22.503 154.594  1.00 38.40    -0.020 C 
HETATM   25  C2  BCR B 620      24.047 -22.050 155.009  1.00 47.49     0.014 C 
HETATM   26  C3  BCR B 620      24.856 -21.536 153.847  1.00 50.89     0.005 C 
HETATM   27  C4  BCR B 620      25.016 -22.608 152.764  1.00 46.16     0.034 C 
HETATM   28  C5  BCR B 620      23.724 -23.385 152.536  1.00 38.82    -0.077 C 
HETATM   29  C33 BCR B 620      23.820 -24.310 151.365  1.00 45.14     0.044 C 
HETATM   30  C31 BCR B 620      21.702 -21.299 154.372  1.00 38.78     0.020 C 
HETATM   31  C32 BCR B 620      22.158 -23.362 155.726  1.00 41.66     0.020 C 
ENDBRANCH   1  23
BRANCH  19  32
HETATM   32  C25 BCR B 620       5.356 -22.811 138.143  1.00 30.94    -0.048 C 
HETATM   33  C26 BCR B 620       4.582 -22.160 139.025  1.00 34.73    -0.077 C 
HETATM   34  C27 BCR B 620       3.050 -22.156 139.019  1.00 33.71     0.034 C 
HETATM   35  C28 BCR B 620       2.495 -23.330 138.213  1.00 33.02     0.005 C 
HETATM   36  C29 BCR B 620       3.233 -23.392 136.944  1.00 35.61     0.014 C 
HETATM   37  C30 BCR B 620       4.744 -23.675 137.067  1.00 35.27    -0.020 C 
HETATM   38  C38 BCR B 620       5.176 -21.250 140.039  1.00 34.43     0.044 C 
HETATM   39  C39 BCR B 620       5.383 -23.369 135.695  1.00 41.91     0.020 C 
HETATM   40  C40 BCR B 620       5.001 -25.153 137.443  1.00 32.72     0.020 C 
ENDBRANCH  19  32
TORSDOF 10
