REMARK  2 active torsions:
REMARK  status: ('A' for Active; 'I' for Inactive)
REMARK    1  A    between atoms: C6_23  and  C7_1 
REMARK       I    between atoms: C8_2  and  C9_3 
REMARK       I    between atoms: C10_4  and  C11_5 
REMARK       I    between atoms: C12_7  and  C13_8 
REMARK       I    between atoms: C14_9  and  C15_10 
REMARK       I    between atoms: C16_11  and  C17_12 
REMARK       I    between atoms: C18_13  and  C19_14 
REMARK       I    between atoms: C20_15  and  C21_16 
REMARK       I    between atoms: C22_17  and  C23_18 
REMARK    2  A    between atoms: C24_19  and  C25_32 
ROOT
HETATM    1  C7  BCR D 406       5.933 -66.574 189.147  1.00 27.31     0.009 C 
HETATM    2  C8  BCR D 406       4.870 -66.902 189.949  1.00 25.87     0.007 C 
HETATM    3  C9  BCR D 406       3.708 -67.636 189.390  1.00 25.23    -0.062 C 
HETATM    4  C10 BCR D 406       2.627 -67.859 190.179  1.00 26.35     0.007 C 
HETATM    5  C11 BCR D 406       1.349 -68.478 189.764  1.00 25.76     0.001 C 
HETATM    6  C34 BCR D 406       3.722 -67.984 187.930  1.00 31.19     0.048 C 
HETATM    7  C12 BCR D 406       0.342 -68.471 190.684  1.00 26.79     0.007 C 
HETATM    8  C13 BCR D 406      -1.042 -68.937 190.462  1.00 28.80    -0.062 C 
HETATM    9  C14 BCR D 406      -1.970 -68.877 191.491  1.00 26.58     0.007 C 
HETATM   10  C15 BCR D 406      -3.391 -69.183 191.399  1.00 25.31     0.001 C 
HETATM   11  C16 BCR D 406      -4.212 -68.924 192.443  1.00 28.29     0.001 C 
HETATM   12  C17 BCR D 406      -5.633 -69.135 192.277  1.00 27.45     0.007 C 
HETATM   13  C18 BCR D 406      -6.600 -68.820 193.187  1.00 25.52    -0.062 C 
HETATM   14  C19 BCR D 406      -8.016 -69.019 192.767  1.00 27.83     0.007 C 
HETATM   15  C20 BCR D 406      -9.097 -68.652 193.515  1.00 27.64     0.001 C 
HETATM   16  C21 BCR D 406     -10.397 -68.869 192.938  1.00 25.60     0.007 C 
HETATM   17  C22 BCR D 406     -11.560 -68.532 193.513  1.00 28.71    -0.062 C 
HETATM   18  C23 BCR D 406     -12.765 -68.841 192.754  1.00 39.72     0.007 C 
HETATM   19  C24 BCR D 406     -14.001 -68.567 193.193  1.00 52.86     0.009 C 
HETATM   20  C35 BCR D 406      -1.357 -69.366 189.041  1.00 28.96     0.048 C 
HETATM   21  C36 BCR D 406      -6.277 -68.243 194.545  1.00 29.06     0.048 C 
HETATM   22  C37 BCR D 406     -11.559 -68.056 194.929  1.00 30.82     0.048 C 
ENDROOT
BRANCH   1  23
HETATM   23  C6  BCR D 406       7.126 -65.841 189.692  1.00 28.11    -0.048 C 
HETATM   24  C1  BCR D 406       8.477 -66.349 189.342  1.00 34.32    -0.020 C 
HETATM   25  C2  BCR D 406       9.551 -65.304 189.627  1.00 36.65     0.014 C 
HETATM   26  C3  BCR D 406       9.507 -64.517 190.862  1.00 27.32     0.005 C 
HETATM   27  C4  BCR D 406       8.090 -63.938 191.022  1.00 23.31     0.034 C 
HETATM   28  C5  BCR D 406       6.958 -64.742 190.486  1.00 29.15    -0.077 C 
HETATM   29  C33 BCR D 406       5.614 -64.108 190.710  1.00 29.35     0.044 C 
HETATM   30  C31 BCR D 406       8.693 -67.690 190.093  1.00 43.12     0.020 C 
HETATM   31  C32 BCR D 406       8.733 -66.632 187.877  1.00 36.56     0.020 C 
ENDBRANCH   1  23
BRANCH  19  32
HETATM   32  C25 BCR D 406     -15.251 -68.847 192.385  1.00 59.77    -0.048 C 
HETATM   33  C26 BCR D 406     -15.435 -69.873 191.485  1.00 62.92    -0.077 C 
HETATM   34  C27 BCR D 406     -16.563 -69.881 190.448  1.00 65.12     0.034 C 
HETATM   35  C28 BCR D 406     -17.393 -68.601 190.373  1.00 55.08     0.005 C 
HETATM   36  C29 BCR D 406     -17.577 -68.094 191.779  1.00 51.89     0.014 C 
HETATM   37  C30 BCR D 406     -16.260 -67.780 192.450  1.00 47.10    -0.020 C 
HETATM   38  C38 BCR D 406     -14.600 -71.144 191.469  1.00 60.49     0.044 C 
HETATM   39  C39 BCR D 406     -16.673 -67.506 193.881  1.00 46.30     0.020 C 
HETATM   40  C40 BCR D 406     -15.493 -66.690 191.643  1.00 54.93     0.020 C 
ENDBRANCH  19  32
TORSDOF 10
