REMARK  2 active torsions:
REMARK  status: ('A' for Active; 'I' for Inactive)
REMARK    1  A    between atoms: C6_23  and  C7_1 
REMARK       I    between atoms: C8_2  and  C9_3 
REMARK       I    between atoms: C10_4  and  C11_5 
REMARK       I    between atoms: C12_7  and  C13_8 
REMARK       I    between atoms: C14_9  and  C15_10 
REMARK       I    between atoms: C16_11  and  C17_12 
REMARK       I    between atoms: C18_13  and  C19_14 
REMARK       I    between atoms: C20_15  and  C21_16 
REMARK       I    between atoms: C22_17  and  C23_18 
REMARK    2  A    between atoms: C24_19  and  C25_32 
ROOT
HETATM    1  C7  BCR B 619       2.665 -26.504 -22.485  1.00 41.21     0.009 C 
HETATM    2  C8  BCR B 619       1.881 -25.576 -21.927  1.00 35.08     0.007 C 
HETATM    3  C9  BCR B 619       1.294 -25.675 -20.576  1.00 45.29    -0.062 C 
HETATM    4  C10 BCR B 619       0.784 -24.542 -20.027  1.00 31.51     0.007 C 
HETATM    5  C11 BCR B 619       0.103 -24.407 -18.724  1.00 35.87     0.001 C 
HETATM    6  C34 BCR B 619       1.234 -27.031 -19.912  1.00 32.59     0.048 C 
HETATM    7  C12 BCR B 619      -0.620 -23.290 -18.456  1.00 32.79     0.007 C 
HETATM    8  C13 BCR B 619      -1.351 -23.091 -17.166  1.00 41.33    -0.062 C 
HETATM    9  C14 BCR B 619      -1.844 -21.862 -16.839  1.00 31.13     0.007 C 
HETATM   10  C15 BCR B 619      -2.590 -21.476 -15.617  1.00 39.90     0.001 C 
HETATM   11  C16 BCR B 619      -2.985 -20.208 -15.325  1.00 29.90     0.001 C 
HETATM   12  C17 BCR B 619      -3.737 -19.939 -14.078  1.00 33.57     0.007 C 
HETATM   13  C18 BCR B 619      -4.146 -18.727 -13.608  1.00 38.90    -0.062 C 
HETATM   14  C19 BCR B 619      -4.902 -18.677 -12.329  1.00 36.01     0.007 C 
HETATM   15  C20 BCR B 619      -5.202 -17.559 -11.638  1.00 41.69     0.001 C 
HETATM   16  C21 BCR B 619      -5.964 -17.693 -10.383  1.00 46.52     0.007 C 
HETATM   17  C22 BCR B 619      -6.424 -16.661  -9.639  1.00 47.59    -0.062 C 
HETATM   18  C23 BCR B 619      -7.126 -16.892  -8.497  1.00 54.77     0.007 C 
HETATM   19  C24 BCR B 619      -7.522 -15.916  -7.656  1.00 45.04     0.009 C 
HETATM   20  C35 BCR B 619      -1.523 -24.290 -16.258  1.00 33.87     0.048 C 
HETATM   21  C36 BCR B 619      -3.852 -17.443 -14.353  1.00 33.91     0.048 C 
HETATM   22  C37 BCR B 619      -6.162 -15.261 -10.107  1.00 55.50     0.048 C 
ENDROOT
BRANCH   1  23
HETATM   23  C6  BCR B 619       3.202 -26.384 -23.875  1.00 43.37    -0.048 C 
HETATM   24  C1  BCR B 619       2.663 -27.399 -24.877  1.00 43.68    -0.020 C 
HETATM   25  C2  BCR B 619       3.415 -27.468 -26.212  1.00 34.01     0.014 C 
HETATM   26  C3  BCR B 619       3.796 -26.070 -26.681  1.00 39.82     0.005 C 
HETATM   27  C4  BCR B 619       4.642 -25.331 -25.639  1.00 35.97     0.034 C 
HETATM   28  C5  BCR B 619       4.104 -25.444 -24.224  1.00 51.08    -0.077 C 
HETATM   29  C33 BCR B 619       4.634 -24.450 -23.222  1.00 49.04     0.044 C 
HETATM   30  C31 BCR B 619       2.725 -28.751 -24.192  1.00 38.43     0.020 C 
HETATM   31  C32 BCR B 619       1.217 -27.033 -25.186  1.00 45.87     0.020 C 
ENDBRANCH   1  23
BRANCH  19  32
HETATM   32  C25 BCR B 619      -8.303 -16.066  -6.376  1.00 40.91    -0.048 C 
HETATM   33  C26 BCR B 619      -7.808 -16.627  -5.259  1.00 51.20    -0.077 C 
HETATM   34  C27 BCR B 619      -8.643 -16.724  -4.015  1.00 53.77     0.034 C 
HETATM   35  C28 BCR B 619     -10.041 -17.122  -4.422  1.00 56.12     0.005 C 
HETATM   36  C29 BCR B 619     -10.611 -15.984  -5.241  1.00 60.15     0.014 C 
HETATM   37  C30 BCR B 619      -9.708 -15.507  -6.382  1.00 51.25    -0.020 C 
HETATM   38  C38 BCR B 619      -6.426 -17.197  -5.178  1.00 45.25     0.044 C 
HETATM   39  C39 BCR B 619      -9.590 -13.980  -6.352  1.00 56.99     0.020 C 
HETATM   40  C40 BCR B 619     -10.363 -15.917  -7.688  1.00 53.04     0.020 C 
ENDBRANCH  19  32
TORSDOF 10
