REMARK  2 active torsions:
REMARK  status: ('A' for Active; 'I' for Inactive)
REMARK    1  A    between atoms: C6_23  and  C7_1 
REMARK       I    between atoms: C8_2  and  C9_3 
REMARK       I    between atoms: C10_4  and  C11_5 
REMARK       I    between atoms: C12_7  and  C13_8 
REMARK       I    between atoms: C14_9  and  C15_10 
REMARK       I    between atoms: C16_11  and  C17_12 
REMARK       I    between atoms: C18_13  and  C19_14 
REMARK       I    between atoms: C20_15  and  C21_16 
REMARK       I    between atoms: C22_17  and  C23_18 
REMARK    2  A    between atoms: C24_19  and  C25_32 
ROOT
HETATM    1  C7  BCR D 404      -5.770 -66.366 -46.415  1.00 51.33     0.009 C 
HETATM    2  C8  BCR D 404      -5.003 -67.198 -47.147  1.00 42.68     0.007 C 
HETATM    3  C9  BCR D 404      -3.727 -67.696 -46.576  1.00 49.43    -0.062 C 
HETATM    4  C10 BCR D 404      -2.714 -67.989 -47.416  1.00 48.79     0.007 C 
HETATM    5  C11 BCR D 404      -1.380 -68.432 -46.994  1.00 45.83     0.001 C 
HETATM    6  C34 BCR D 404      -3.562 -67.856 -45.088  1.00 48.18     0.048 C 
HETATM    7  C12 BCR D 404      -0.443 -68.547 -47.944  1.00 46.75     0.007 C 
HETATM    8  C13 BCR D 404       0.969 -68.899 -47.671  1.00 48.81    -0.062 C 
HETATM    9  C14 BCR D 404       1.883 -68.883 -48.679  1.00 49.17     0.007 C 
HETATM   10  C15 BCR D 404       3.322 -69.129 -48.498  1.00 46.20     0.001 C 
HETATM   11  C16 BCR D 404       4.201 -68.953 -49.503  1.00 44.61     0.001 C 
HETATM   12  C17 BCR D 404       5.658 -69.115 -49.307  1.00 52.55     0.007 C 
HETATM   13  C18 BCR D 404       6.597 -68.821 -50.246  1.00 48.76    -0.062 C 
HETATM   14  C19 BCR D 404       8.042 -68.927 -49.927  1.00 42.03     0.007 C 
HETATM   15  C20 BCR D 404       9.054 -68.692 -50.784  1.00 44.86     0.001 C 
HETATM   16  C21 BCR D 404      10.413 -68.774 -50.222  1.00 53.52     0.007 C 
HETATM   17  C22 BCR D 404      11.571 -68.419 -50.824  1.00 55.83    -0.062 C 
HETATM   18  C23 BCR D 404      12.723 -68.502 -50.115  1.00 57.08     0.007 C 
HETATM   19  C24 BCR D 404      13.715 -67.610 -50.317  1.00 83.14     0.009 C 
HETATM   20  C35 BCR D 404       1.358 -69.187 -46.254  1.00 41.10     0.048 C 
HETATM   21  C36 BCR D 404       6.205 -68.315 -51.602  1.00 43.88     0.048 C 
HETATM   22  C37 BCR D 404      11.569 -67.921 -52.241  1.00 57.34     0.048 C 
ENDROOT
BRANCH   1  23
HETATM   23  C6  BCR D 404      -7.053 -65.710 -46.822  1.00 49.41    -0.048 C 
HETATM   24  C1  BCR D 404      -8.411 -66.306 -46.474  1.00 52.80    -0.020 C 
HETATM   25  C2  BCR D 404      -9.558 -65.352 -46.788  1.00 67.63     0.014 C 
HETATM   26  C3  BCR D 404      -9.354 -64.623 -48.100  1.00 57.68     0.005 C 
HETATM   27  C4  BCR D 404      -8.129 -63.742 -47.990  1.00 46.23     0.034 C 
HETATM   28  C5  BCR D 404      -6.948 -64.551 -47.510  1.00 56.25    -0.077 C 
HETATM   29  C33 BCR D 404      -5.595 -63.983 -47.825  1.00 38.15     0.044 C 
HETATM   30  C31 BCR D 404      -8.584 -67.591 -47.266  1.00 54.77     0.020 C 
HETATM   31  C32 BCR D 404      -8.522 -66.613 -44.986  1.00 49.36     0.020 C 
ENDBRANCH   1  23
BRANCH  19  32
HETATM   32  C25 BCR D 404      15.013 -67.547 -49.572  1.00 93.70    -0.048 C 
HETATM   33  C26 BCR D 404      15.043 -66.914 -48.389  1.00 98.17    -0.077 C 
HETATM   34  C27 BCR D 404      16.311 -66.800 -47.577  1.00 88.54     0.034 C 
HETATM   35  C28 BCR D 404      17.139 -68.054 -47.787  1.00 81.02     0.005 C 
HETATM   36  C29 BCR D 404      17.500 -68.112 -49.258  1.00 74.51     0.014 C 
HETATM   37  C30 BCR D 404      16.270 -68.167 -50.156  1.00 76.53    -0.020 C 
HETATM   38  C38 BCR D 404      13.797 -66.294 -47.824  1.00 99.96     0.044 C 
HETATM   39  C39 BCR D 404      15.953 -69.627 -50.427  1.00 71.47     0.020 C 
HETATM   40  C40 BCR D 404      16.618 -67.420 -51.432  1.00 72.90     0.020 C 
ENDBRANCH  19  32
TORSDOF 10
