REMARK  2 active torsions:
REMARK  status: ('A' for Active; 'I' for Inactive)
REMARK    1  A    between atoms: C6_23  and  C7_1 
REMARK       I    between atoms: C8_2  and  C9_3 
REMARK       I    between atoms: C10_4  and  C11_5 
REMARK       I    between atoms: C12_7  and  C13_8 
REMARK       I    between atoms: C14_9  and  C15_10 
REMARK       I    between atoms: C16_11  and  C17_12 
REMARK       I    between atoms: C18_13  and  C19_14 
REMARK       I    between atoms: C20_15  and  C21_16 
REMARK       I    between atoms: C22_17  and  C23_18 
REMARK    2  A    between atoms: C24_19  and  C25_32 
ROOT
HETATM    1  C7  BCR B 620     -21.403 -24.010  -9.955  1.00 54.02     0.009 C 
HETATM    2  C8  BCR B 620     -20.780 -23.903  -8.776  1.00 65.68     0.007 C 
HETATM    3  C9  BCR B 620     -19.459 -24.490  -8.475  1.00 53.63    -0.062 C 
HETATM    4  C10 BCR B 620     -18.967 -24.273  -7.240  1.00 46.58     0.007 C 
HETATM    5  C11 BCR B 620     -17.661 -24.705  -6.738  1.00 41.79     0.001 C 
HETATM    6  C34 BCR B 620     -18.710 -25.266  -9.519  1.00 45.21     0.048 C 
HETATM    7  C12 BCR B 620     -17.323 -24.198  -5.545  1.00 45.96     0.007 C 
HETATM    8  C13 BCR B 620     -16.030 -24.439  -4.878  1.00 40.88    -0.062 C 
HETATM    9  C14 BCR B 620     -15.880 -24.211  -3.555  1.00 41.01     0.007 C 
HETATM   10  C15 BCR B 620     -14.573 -24.377  -2.907  1.00 42.22     0.001 C 
HETATM   11  C16 BCR B 620     -14.348 -23.794  -1.716  1.00 44.26     0.001 C 
HETATM   12  C17 BCR B 620     -13.030 -23.861  -1.068  1.00 36.26     0.007 C 
HETATM   13  C18 BCR B 620     -12.794 -23.580   0.224  1.00 40.60    -0.062 C 
HETATM   14  C19 BCR B 620     -11.391 -23.642   0.715  1.00 46.29     0.007 C 
HETATM   15  C20 BCR B 620     -11.010 -23.300   1.956  1.00 50.06     0.001 C 
HETATM   16  C21 BCR B 620      -9.584 -23.370   2.305  1.00 37.91     0.007 C 
HETATM   17  C22 BCR B 620      -9.067 -23.137   3.530  1.00 42.97    -0.062 C 
HETATM   18  C23 BCR B 620      -7.731 -23.217   3.686  1.00 48.87     0.007 C 
HETATM   19  C24 BCR B 620      -7.068 -22.710   4.746  1.00 45.55     0.009 C 
HETATM   20  C35 BCR B 620     -14.878 -24.911  -5.723  1.00 35.11     0.048 C 
HETATM   21  C36 BCR B 620     -13.933 -23.211   1.135  1.00 37.84     0.048 C 
HETATM   22  C37 BCR B 620      -9.947 -22.801   4.704  1.00 32.11     0.048 C 
ENDROOT
BRANCH   1  23
HETATM   23  C6  BCR B 620     -22.722 -23.386 -10.251  1.00 59.07    -0.048 C 
HETATM   24  C1  BCR B 620     -22.749 -22.519 -11.500  1.00 59.21    -0.020 C 
HETATM   25  C2  BCR B 620     -24.124 -21.941 -11.818  1.00 51.24     0.014 C 
HETATM   26  C3  BCR B 620     -24.883 -21.611 -10.554  1.00 59.98     0.005 C 
HETATM   27  C4  BCR B 620     -25.133 -22.913  -9.821  1.00 63.95     0.034 C 
HETATM   28  C5  BCR B 620     -23.816 -23.566  -9.484  1.00 56.60    -0.077 C 
HETATM   29  C33 BCR B 620     -23.818 -24.422  -8.256  1.00 51.12     0.044 C 
HETATM   30  C31 BCR B 620     -21.756 -21.358 -11.372  1.00 43.92     0.020 C 
HETATM   31  C32 BCR B 620     -22.336 -23.441 -12.638  1.00 55.12     0.020 C 
ENDBRANCH   1  23
BRANCH  19  32
HETATM   32  C25 BCR B 620      -5.584 -22.807   4.851  1.00 43.88    -0.048 C 
HETATM   33  C26 BCR B 620      -4.804 -22.043   4.055  1.00 47.72    -0.077 C 
HETATM   34  C27 BCR B 620      -3.295 -22.074   4.088  1.00 52.50     0.034 C 
HETATM   35  C28 BCR B 620      -2.818 -23.402   4.638  1.00 49.92     0.005 C 
HETATM   36  C29 BCR B 620      -3.469 -23.582   5.993  1.00 50.61     0.014 C 
HETATM   37  C30 BCR B 620      -4.979 -23.761   5.861  1.00 54.77    -0.020 C 
HETATM   38  C38 BCR B 620      -5.401 -21.090   3.069  1.00 42.60     0.044 C 
HETATM   39  C39 BCR B 620      -5.605 -23.516   7.238  1.00 50.58     0.020 C 
HETATM   40  C40 BCR B 620      -5.260 -25.197   5.422  1.00 40.99     0.020 C 
ENDBRANCH  19  32
TORSDOF 10
