REMARK  2 active torsions:
REMARK  status: ('A' for Active; 'I' for Inactive)
REMARK    1  A    between atoms: C6_23  and  C7_1 
REMARK       I    between atoms: C8_2  and  C9_3 
REMARK       I    between atoms: C10_4  and  C11_5 
REMARK       I    between atoms: C12_7  and  C13_8 
REMARK       I    between atoms: C14_9  and  C15_10 
REMARK       I    between atoms: C16_11  and  C17_12 
REMARK       I    between atoms: C18_13  and  C19_14 
REMARK       I    between atoms: C20_15  and  C21_16 
REMARK       I    between atoms: C22_17  and  C23_18 
REMARK    2  A    between atoms: C24_19  and  C25_32 
ROOT
HETATM    1  C7  BCR Y 101      36.471 -81.398 -63.220  1.00 68.86     0.009 C 
HETATM    2  C8  BCR Y 101      35.425 -81.418 -62.386  1.00 51.04     0.007 C 
HETATM    3  C9  BCR Y 101      35.520 -81.175 -60.924  1.00 63.66    -0.062 C 
HETATM    4  C10 BCR Y 101      34.408 -81.346 -60.179  1.00 61.96     0.007 C 
HETATM    5  C11 BCR Y 101      34.293 -81.120 -58.737  1.00 54.93     0.001 C 
HETATM    6  C34 BCR Y 101      36.825 -80.761 -60.313  1.00 45.87     0.048 C 
HETATM    7  C12 BCR Y 101      33.041 -81.007 -58.276  1.00 54.93     0.007 C 
HETATM    8  C13 BCR Y 101      32.642 -80.703 -56.881  1.00 62.36    -0.062 C 
HETATM    9  C14 BCR Y 101      31.336 -80.762 -56.544  1.00 57.29     0.007 C 
HETATM   10  C15 BCR Y 101      30.838 -80.409 -55.208  1.00 58.51     0.001 C 
HETATM   11  C16 BCR Y 101      29.529 -80.196 -55.005  1.00 44.78     0.001 C 
HETATM   12  C17 BCR Y 101      29.056 -79.811 -53.674  1.00 61.60     0.007 C 
HETATM   13  C18 BCR Y 101      27.761 -79.627 -53.351  1.00 60.54    -0.062 C 
HETATM   14  C19 BCR Y 101      27.430 -79.207 -51.972  1.00 57.38     0.007 C 
HETATM   15  C20 BCR Y 101      26.251 -78.691 -51.616  1.00 55.43     0.001 C 
HETATM   16  C21 BCR Y 101      26.087 -78.326 -50.208  1.00 63.11     0.007 C 
HETATM   17  C22 BCR Y 101      24.930 -77.965 -49.629  1.00 68.09    -0.062 C 
HETATM   18  C23 BCR Y 101      24.977 -77.697 -48.311  1.00 69.35     0.007 C 
HETATM   19  C24 BCR Y 101      23.915 -77.812 -47.505  1.00 58.02     0.009 C 
HETATM   20  C35 BCR Y 101      33.672 -80.247 -55.884  1.00 63.39     0.048 C 
HETATM   21  C36 BCR Y 101      26.662 -79.859 -54.343  1.00 55.72     0.048 C 
HETATM   22  C37 BCR Y 101      23.650 -77.917 -50.414  1.00 50.13     0.048 C 
ENDROOT
BRANCH   1  23
HETATM   23  C6  BCR Y 101      36.343 -81.638 -64.688  1.00 71.08    -0.048 C 
HETATM   24  C1  BCR Y 101      35.726 -82.930 -65.187  1.00 69.68    -0.020 C 
HETATM   25  C2  BCR Y 101      36.208 -83.240 -66.600  1.00 67.04     0.014 C 
HETATM   26  C3  BCR Y 101      35.967 -82.054 -67.524  1.00 62.62     0.005 C 
HETATM   27  C4  BCR Y 101      36.715 -80.811 -67.055  1.00 59.69     0.034 C 
HETATM   28  C5  BCR Y 101      36.779 -80.697 -65.543  1.00 56.78    -0.077 C 
HETATM   29  C33 BCR Y 101      37.382 -79.446 -64.990  1.00 61.67     0.044 C 
HETATM   30  C31 BCR Y 101      36.111 -84.093 -64.273  1.00 54.66     0.020 C 
HETATM   31  C32 BCR Y 101      34.210 -82.737 -65.212  1.00 70.38     0.020 C 
ENDBRANCH   1  23
BRANCH  19  32
HETATM   32  C25 BCR Y 101      24.004 -77.582 -46.038  1.00 63.78    -0.048 C 
HETATM   33  C26 BCR Y 101      24.649 -78.476 -45.249  1.00 62.05    -0.077 C 
HETATM   34  C27 BCR Y 101      24.754 -78.287 -43.754  1.00 53.38     0.034 C 
HETATM   35  C28 BCR Y 101      24.653 -76.813 -43.412  1.00 58.62     0.005 C 
HETATM   36  C29 BCR Y 101      23.329 -76.316 -43.953  1.00 62.11     0.014 C 
HETATM   37  C30 BCR Y 101      23.337 -76.343 -45.475  1.00 65.90    -0.020 C 
HETATM   38  C38 BCR Y 101      25.304 -79.720 -45.802  1.00 53.00     0.044 C 
HETATM   39  C39 BCR Y 101      24.086 -75.111 -45.970  1.00 60.25     0.020 C 
HETATM   40  C40 BCR Y 101      21.899 -76.355 -45.980  1.00 63.43     0.020 C 
ENDBRANCH  19  32
TORSDOF 10
