REMARK  2 active torsions:
REMARK  status: ('A' for Active; 'I' for Inactive)
REMARK    1  A    between atoms: C6_23  and  C7_1 
REMARK       I    between atoms: C8_2  and  C9_3 
REMARK       I    between atoms: C10_4  and  C11_5 
REMARK       I    between atoms: C12_7  and  C13_8 
REMARK       I    between atoms: C14_9  and  C15_10 
REMARK       I    between atoms: C16_11  and  C17_12 
REMARK       I    between atoms: C18_13  and  C19_14 
REMARK       I    between atoms: C20_15  and  C21_16 
REMARK       I    between atoms: C22_17  and  C23_18 
REMARK    2  A    between atoms: C24_19  and  C25_32 
ROOT
HETATM    1  C7  BCR C 516      55.350 -50.876 -40.129  1.00 64.37     0.009 C 
HETATM    2  C8  BCR C 516      56.129 -50.847 -41.218  1.00 59.25     0.007 C 
HETATM    3  C9  BCR C 516      55.580 -51.151 -42.557  1.00 54.91    -0.062 C 
HETATM    4  C10 BCR C 516      56.257 -50.779 -43.658  1.00 64.34     0.007 C 
HETATM    5  C11 BCR C 516      55.777 -51.013 -45.027  1.00 58.58     0.001 C 
HETATM    6  C34 BCR C 516      54.268 -51.865 -42.671  1.00 59.08     0.048 C 
HETATM    7  C12 BCR C 516      56.468 -50.477 -46.040  1.00 54.83     0.007 C 
HETATM    8  C13 BCR C 516      56.095 -50.607 -47.472  1.00 56.98    -0.062 C 
HETATM    9  C14 BCR C 516      57.044 -50.421 -48.417  1.00 63.19     0.007 C 
HETATM   10  C15 BCR C 516      56.787 -50.500 -49.859  1.00 55.13     0.001 C 
HETATM   11  C16 BCR C 516      57.777 -50.302 -50.742  1.00 53.01     0.001 C 
HETATM   12  C17 BCR C 516      57.482 -50.358 -52.176  1.00 50.24     0.007 C 
HETATM   13  C18 BCR C 516      58.369 -50.145 -53.173  1.00 50.44    -0.062 C 
HETATM   14  C19 BCR C 516      57.856 -50.222 -54.559  1.00 50.82     0.007 C 
HETATM   15  C20 BCR C 516      58.563 -50.137 -55.689  1.00 48.76     0.001 C 
HETATM   16  C21 BCR C 516      57.786 -50.217 -56.930  1.00 50.02     0.007 C 
HETATM   17  C22 BCR C 516      58.294 -50.036 -58.164  1.00 64.03    -0.062 C 
HETATM   18  C23 BCR C 516      57.455 -50.106 -59.223  1.00 59.34     0.007 C 
HETATM   19  C24 BCR C 516      57.845 -49.763 -60.453  1.00 49.95     0.009 C 
HETATM   20  C35 BCR C 516      54.670 -50.908 -47.853  1.00 47.12     0.048 C 
HETATM   21  C36 BCR C 516      59.805 -49.812 -52.892  1.00 50.52     0.048 C 
HETATM   22  C37 BCR C 516      59.756 -49.735 -58.346  1.00 47.56     0.048 C 
ENDROOT
BRANCH   1  23
HETATM   23  C6  BCR C 516      55.872 -50.556 -38.775  1.00 62.75    -0.048 C 
HETATM   24  C1  BCR C 516      56.249 -51.704 -37.858  1.00 60.14    -0.020 C 
HETATM   25  C2  BCR C 516      56.623 -51.256 -36.446  1.00 60.11     0.014 C 
HETATM   26  C3  BCR C 516      57.377 -49.938 -36.470  1.00 65.61     0.005 C 
HETATM   27  C4  BCR C 516      56.503 -48.847 -37.060  1.00 64.39     0.034 C 
HETATM   28  C5  BCR C 516      55.984 -49.267 -38.412  1.00 60.08    -0.077 C 
HETATM   29  C33 BCR C 516      55.585 -48.168 -39.358  1.00 50.21     0.044 C 
HETATM   30  C31 BCR C 516      55.062 -52.655 -37.774  1.00 59.78     0.020 C 
HETATM   31  C32 BCR C 516      57.448 -52.413 -38.464  1.00 52.24     0.020 C 
ENDBRANCH   1  23
BRANCH  19  32
HETATM   32  C25 BCR C 516      56.952 -49.780 -61.641  1.00 53.30    -0.048 C 
HETATM   33  C26 BCR C 516      56.504 -50.915 -62.235  1.00 60.66    -0.077 C 
HETATM   34  C27 BCR C 516      55.605 -50.880 -63.448  1.00 54.48     0.034 C 
HETATM   35  C28 BCR C 516      54.862 -49.563 -63.487  1.00 45.55     0.005 C 
HETATM   36  C29 BCR C 516      55.906 -48.471 -63.512  1.00 43.16     0.014 C 
HETATM   37  C30 BCR C 516      56.598 -48.391 -62.157  1.00 51.35    -0.020 C 
HETATM   38  C38 BCR C 516      56.858 -52.297 -61.747  1.00 50.70     0.044 C 
HETATM   39  C39 BCR C 516      55.714 -47.630 -61.161  1.00 39.43     0.020 C 
HETATM   40  C40 BCR C 516      57.904 -47.625 -62.308  1.00 46.79     0.020 C 
ENDBRANCH  19  32
TORSDOF 10
