REMARK  2 active torsions:
REMARK  status: ('A' for Active; 'I' for Inactive)
REMARK    1  A    between atoms: C6_23  and  C7_1 
REMARK       I    between atoms: C8_2  and  C9_3 
REMARK       I    between atoms: C10_4  and  C11_5 
REMARK       I    between atoms: C12_7  and  C13_8 
REMARK       I    between atoms: C14_9  and  C15_10 
REMARK       I    between atoms: C16_11  and  C17_12 
REMARK       I    between atoms: C18_13  and  C19_14 
REMARK       I    between atoms: C20_15  and  C21_16 
REMARK       I    between atoms: C22_17  and  C23_18 
REMARK    2  A    between atoms: C24_19  and  C25_32 
ROOT
HETATM    1  C7  BCR C 514     -11.889  51.140 335.094  1.00 37.95     0.009 C 
HETATM    2  C8  BCR C 514     -10.943  50.758 335.951  1.00 29.80     0.007 C 
HETATM    3  C9  BCR C 514     -10.935  51.109 337.386  1.00 34.42    -0.062 C 
HETATM    4  C10 BCR C 514     -10.101  50.510 338.259  1.00 30.24     0.007 C 
HETATM    5  C11 BCR C 514      -9.976  50.836 339.665  1.00 33.35     0.001 C 
HETATM    6  C34 BCR C 514     -11.889  52.124 337.873  1.00 30.46     0.048 C 
HETATM    7  C12 BCR C 514      -8.920  50.381 340.349  1.00 34.08     0.007 C 
HETATM    8  C13 BCR C 514      -8.766  50.355 341.795  1.00 43.06    -0.062 C 
HETATM    9  C14 BCR C 514      -7.551  50.075 342.316  1.00 44.33     0.007 C 
HETATM   10  C15 BCR C 514      -7.097  50.517 343.618  1.00 30.45     0.001 C 
HETATM   11  C16 BCR C 514      -6.335  49.735 344.383  1.00 31.93     0.001 C 
HETATM   12  C17 BCR C 514      -5.891  50.240 345.669  1.00 33.60     0.007 C 
HETATM   13  C18 BCR C 514      -4.730  49.937 346.285  1.00 30.74    -0.062 C 
HETATM   14  C19 BCR C 514      -4.711  49.739 347.721  1.00 33.81     0.007 C 
HETATM   15  C20 BCR C 514      -3.602  49.687 348.463  1.00 33.30     0.001 C 
HETATM   16  C21 BCR C 514      -3.738  49.774 349.903  1.00 26.27     0.007 C 
HETATM   17  C22 BCR C 514      -2.769  49.664 350.842  1.00 33.99    -0.062 C 
HETATM   18  C23 BCR C 514      -3.210  49.652 352.242  1.00 36.02     0.007 C 
HETATM   19  C24 BCR C 514      -2.464  49.295 353.299  1.00 32.82     0.009 C 
HETATM   20  C35 BCR C 514      -9.793  50.985 342.654  1.00 31.96     0.048 C 
HETATM   21  C36 BCR C 514      -3.579  49.457 345.514  1.00 34.59     0.048 C 
HETATM   22  C37 BCR C 514      -1.379  49.222 350.526  1.00 38.91     0.048 C 
ENDROOT
BRANCH   1  23
HETATM   23  C6  BCR C 514     -11.841  50.894 333.647  1.00 48.24    -0.048 C 
HETATM   24  C1  BCR C 514     -11.702  52.093 332.802  1.00 46.03    -0.020 C 
HETATM   25  C2  BCR C 514     -12.072  51.872 331.362  1.00 36.42     0.014 C 
HETATM   26  C3  BCR C 514     -11.440  50.629 330.840  1.00 38.25     0.005 C 
HETATM   27  C4  BCR C 514     -11.945  49.450 331.617  1.00 35.91     0.034 C 
HETATM   28  C5  BCR C 514     -11.963  49.700 333.077  1.00 46.41    -0.077 C 
HETATM   29  C33 BCR C 514     -12.140  48.476 333.869  1.00 46.30     0.044 C 
HETATM   30  C31 BCR C 514     -12.650  53.155 333.278  1.00 39.84     0.020 C 
HETATM   31  C32 BCR C 514     -10.267  52.575 332.877  1.00 53.07     0.020 C 
ENDBRANCH   1  23
BRANCH  19  32
HETATM   32  C25 BCR C 514      -2.904  49.409 354.692  1.00 23.72    -0.048 C 
HETATM   33  C26 BCR C 514      -3.026  50.591 355.293  1.00 28.89    -0.077 C 
HETATM   34  C27 BCR C 514      -3.462  50.805 356.696  1.00 31.77     0.034 C 
HETATM   35  C28 BCR C 514      -4.158  49.597 357.280  1.00 32.56     0.005 C 
HETATM   36  C29 BCR C 514      -3.430  48.334 356.923  1.00 35.64     0.014 C 
HETATM   37  C30 BCR C 514      -3.235  48.141 355.422  1.00 36.04    -0.020 C 
HETATM   38  C38 BCR C 514      -2.727  51.874 354.607  1.00 31.74     0.044 C 
HETATM   39  C39 BCR C 514      -4.478  47.526 354.823  1.00 32.31     0.020 C 
HETATM   40  C40 BCR C 514      -2.133  47.092 355.282  1.00 36.49     0.020 C 
ENDBRANCH  19  32
TORSDOF 10
