REMARK  2 active torsions:
REMARK  status: ('A' for Active; 'I' for Inactive)
REMARK    1  A    between atoms: C6_23  and  C7_1 
REMARK       I    between atoms: C8_2  and  C9_3 
REMARK       I    between atoms: C10_4  and  C11_5 
REMARK       I    between atoms: C12_7  and  C13_8 
REMARK       I    between atoms: C14_9  and  C15_10 
REMARK       I    between atoms: C16_11  and  C17_12 
REMARK       I    between atoms: C18_13  and  C19_14 
REMARK       I    between atoms: C20_15  and  C21_16 
REMARK       I    between atoms: C22_17  and  C23_18 
REMARK    2  A    between atoms: C24_19  and  C25_32 
ROOT
HETATM    1  C7  BCR K 102     -17.595  83.758 362.486  1.00 46.72     0.009 C 
HETATM    2  C8  BCR K 102     -18.871  83.792 362.101  1.00 49.34     0.007 C 
HETATM    3  C9  BCR K 102     -19.311  83.457 360.759  1.00 47.24    -0.062 C 
HETATM    4  C10 BCR K 102     -20.617  83.589 360.455  1.00 36.76     0.007 C 
HETATM    5  C11 BCR K 102     -21.197  83.413 359.140  1.00 43.06     0.001 C 
HETATM    6  C34 BCR K 102     -18.292  82.868 359.857  1.00 47.65     0.048 C 
HETATM    7  C12 BCR K 102     -22.455  83.803 358.930  1.00 33.67     0.007 C 
HETATM    8  C13 BCR K 102     -23.337  83.360 357.870  1.00 44.06    -0.062 C 
HETATM    9  C14 BCR K 102     -24.651  83.565 358.053  1.00 42.09     0.007 C 
HETATM   10  C15 BCR K 102     -25.664  83.424 357.030  1.00 51.85     0.001 C 
HETATM   11  C16 BCR K 102     -26.953  83.451 357.381  1.00 45.37     0.001 C 
HETATM   12  C17 BCR K 102     -27.958  82.945 356.469  1.00 44.90     0.007 C 
HETATM   13  C18 BCR K 102     -29.275  82.892 356.734  1.00 39.31    -0.062 C 
HETATM   14  C19 BCR K 102     -30.167  82.524 355.649  1.00 44.19     0.007 C 
HETATM   15  C20 BCR K 102     -31.500  82.450 355.744  1.00 40.08     0.001 C 
HETATM   16  C21 BCR K 102     -32.259  82.197 354.538  1.00 43.50     0.007 C 
HETATM   17  C22 BCR K 102     -33.586  81.991 354.478  1.00 49.20    -0.062 C 
HETATM   18  C23 BCR K 102     -34.146  81.551 353.210  1.00 46.06     0.007 C 
HETATM   19  C24 BCR K 102     -35.370  81.872 352.769  1.00 49.88     0.009 C 
HETATM   20  C35 BCR K 102     -22.809  82.587 356.713  1.00 41.51     0.048 C 
HETATM   21  C36 BCR K 102     -29.812  83.618 357.904  1.00 43.42     0.048 C 
HETATM   22  C37 BCR K 102     -34.418  81.987 355.700  1.00 44.65     0.048 C 
ENDROOT
BRANCH   1  23
HETATM   23  C6  BCR K 102     -17.211  83.908 363.890  1.00 53.31    -0.048 C 
HETATM   24  C1  BCR K 102     -17.430  85.250 364.514  1.00 53.90    -0.020 C 
HETATM   25  C2  BCR K 102     -16.529  85.480 365.717  1.00 49.92     0.014 C 
HETATM   26  C3  BCR K 102     -16.615  84.329 366.681  1.00 51.27     0.005 C 
HETATM   27  C4  BCR K 102     -16.236  83.021 366.020  1.00 53.38     0.034 C 
HETATM   28  C5  BCR K 102     -16.666  82.909 364.598  1.00 51.84    -0.077 C 
HETATM   29  C33 BCR K 102     -16.407  81.571 364.005  1.00 47.87     0.044 C 
HETATM   30  C31 BCR K 102     -17.166  86.382 363.537  1.00 50.17     0.020 C 
HETATM   31  C32 BCR K 102     -18.868  85.341 364.995  1.00 54.47     0.020 C 
ENDBRANCH   1  23
BRANCH  19  32
HETATM   32  C25 BCR K 102     -35.822  81.551 351.421  1.00 51.53    -0.048 C 
HETATM   33  C26 BCR K 102     -35.359  82.206 350.353  1.00 54.34    -0.077 C 
HETATM   34  C27 BCR K 102     -35.724  81.948 348.944  1.00 56.50     0.034 C 
HETATM   35  C28 BCR K 102     -36.284  80.561 348.765  1.00 59.10     0.005 C 
HETATM   36  C29 BCR K 102     -37.304  80.295 349.840  1.00 61.75     0.014 C 
HETATM   37  C30 BCR K 102     -36.771  80.419 351.268  1.00 60.28    -0.020 C 
HETATM   38  C38 BCR K 102     -34.403  83.319 350.466  1.00 50.25     0.044 C 
HETATM   39  C39 BCR K 102     -36.054  79.159 351.728  1.00 53.78     0.020 C 
HETATM   40  C40 BCR K 102     -38.013  80.596 352.137  1.00 57.29     0.020 C 
ENDBRANCH  19  32
TORSDOF 10
