REMARK  2 active torsions:
REMARK  status: ('A' for Active; 'I' for Inactive)
REMARK    1  A    between atoms: C6_23  and  C7_1 
REMARK       I    between atoms: C8_2  and  C9_3 
REMARK       I    between atoms: C10_4  and  C11_5 
REMARK       I    between atoms: C12_7  and  C13_8 
REMARK       I    between atoms: C14_9  and  C15_10 
REMARK       I    between atoms: C16_11  and  C17_12 
REMARK       I    between atoms: C18_13  and  C19_14 
REMARK       I    between atoms: C20_15  and  C21_16 
REMARK       I    between atoms: C22_17  and  C23_18 
REMARK    2  A    between atoms: C24_19  and  C25_32 
ROOT
HETATM    1  C7  BCR B 617     -68.713  25.222 337.858  1.00 41.50     0.009 C 
HETATM    2  C8  BCR B 617     -69.083  26.279 337.113  1.00 33.63     0.007 C 
HETATM    3  C9  BCR B 617     -70.060  26.182 336.031  1.00 35.19    -0.062 C 
HETATM    4  C10 BCR B 617     -70.190  27.172 335.139  1.00 33.22     0.007 C 
HETATM    5  C11 BCR B 617     -71.422  27.492 334.436  1.00 24.33     0.001 C 
HETATM    6  C34 BCR B 617     -71.113  25.148 336.157  1.00 35.95     0.048 C 
HETATM    7  C12 BCR B 617     -71.459  28.499 333.546  1.00 33.21     0.007 C 
HETATM    8  C13 BCR B 617     -72.496  28.705 332.546  1.00 33.12    -0.062 C 
HETATM    9  C14 BCR B 617     -72.511  29.874 331.878  1.00 31.10     0.007 C 
HETATM   10  C15 BCR B 617     -73.010  30.053 330.528  1.00 35.99     0.001 C 
HETATM   11  C16 BCR B 617     -73.186  31.278 329.991  1.00 30.49     0.001 C 
HETATM   12  C17 BCR B 617     -73.808  31.399 328.697  1.00 28.48     0.007 C 
HETATM   13  C18 BCR B 617     -73.768  32.449 327.843  1.00 29.63    -0.062 C 
HETATM   14  C19 BCR B 617     -74.575  32.382 326.641  1.00 31.91     0.007 C 
HETATM   15  C20 BCR B 617     -74.719  33.399 325.791  1.00 29.87     0.001 C 
HETATM   16  C21 BCR B 617     -75.623  33.245 324.673  1.00 34.48     0.007 C 
HETATM   17  C22 BCR B 617     -75.616  33.957 323.537  1.00 29.89    -0.062 C 
HETATM   18  C23 BCR B 617     -76.755  33.778 322.655  1.00 31.70     0.007 C 
HETATM   19  C24 BCR B 617     -76.854  34.341 321.458  1.00 26.71     0.009 C 
HETATM   20  C35 BCR B 617     -73.637  27.750 332.438  1.00 35.31     0.048 C 
HETATM   21  C36 BCR B 617     -72.813  33.566 327.944  1.00 27.23     0.048 C 
HETATM   22  C37 BCR B 617     -74.469  34.831 323.152  1.00 28.60     0.048 C 
ENDROOT
BRANCH   1  23
HETATM   23  C6  BCR B 617     -67.430  25.151 338.575  1.00 38.15    -0.048 C 
HETATM   24  C1  BCR B 617     -67.416  25.637 339.988  1.00 41.49    -0.020 C 
HETATM   25  C2  BCR B 617     -66.121  25.404 340.750  1.00 45.09     0.014 C 
HETATM   26  C3  BCR B 617     -65.289  24.298 340.166  1.00 46.22     0.005 C 
HETATM   27  C4  BCR B 617     -65.033  24.557 338.710  1.00 43.15     0.034 C 
HETATM   28  C5  BCR B 617     -66.322  24.664 338.014  1.00 45.30    -0.077 C 
HETATM   29  C33 BCR B 617     -66.267  24.148 336.634  1.00 50.16     0.044 C 
HETATM   30  C31 BCR B 617     -67.706  27.125 340.039  1.00 49.85     0.020 C 
HETATM   31  C32 BCR B 617     -68.501  24.973 340.794  1.00 44.59     0.020 C 
ENDBRANCH   1  23
BRANCH  19  32
HETATM   32  C25 BCR B 617     -77.996  34.260 320.570  1.00 32.74    -0.048 C 
HETATM   33  C26 BCR B 617     -78.539  33.104 320.172  1.00 34.19    -0.077 C 
HETATM   34  C27 BCR B 617     -79.680  32.969 319.241  1.00 36.44     0.034 C 
HETATM   35  C28 BCR B 617     -80.478  34.246 319.131  1.00 33.65     0.005 C 
HETATM   36  C29 BCR B 617     -79.530  35.375 318.948  1.00 31.35     0.014 C 
HETATM   37  C30 BCR B 617     -78.517  35.558 320.059  1.00 33.77    -0.020 C 
HETATM   38  C38 BCR B 617     -78.078  31.780 320.649  1.00 33.66     0.044 C 
HETATM   39  C39 BCR B 617     -79.033  36.410 321.201  1.00 31.39     0.020 C 
HETATM   40  C40 BCR B 617     -77.444  36.398 319.397  1.00 32.27     0.020 C 
ENDBRANCH  19  32
TORSDOF 10
