REMARK  2 active torsions:
REMARK  status: ('A' for Active; 'I' for Inactive)
REMARK    1  A    between atoms: C6_23  and  C7_1 
REMARK       I    between atoms: C8_2  and  C9_3 
REMARK       I    between atoms: C10_4  and  C11_5 
REMARK       I    between atoms: C12_7  and  C13_8 
REMARK       I    between atoms: C14_9  and  C15_10 
REMARK       I    between atoms: C16_11  and  C17_12 
REMARK       I    between atoms: C18_13  and  C19_14 
REMARK       I    between atoms: C20_15  and  C21_16 
REMARK       I    between atoms: C22_17  and  C23_18 
REMARK    2  A    between atoms: C24_19  and  C25_32 
ROOT
HETATM    1  C7  BCR B 618     154.534 152.652 161.538  1.00 18.34     0.009 C 
HETATM    2  C8  BCR B 618     155.503 151.754 161.723  1.00 18.07     0.007 C 
HETATM    3  C9  BCR B 618     156.180 150.987 160.697  1.00 17.93    -0.062 C 
HETATM    4  C10 BCR B 618     157.356 150.427 161.017  1.00 17.77     0.007 C 
HETATM    5  C11 BCR B 618     157.981 149.351 160.290  1.00 17.60     0.001 C 
HETATM    6  C34 BCR B 618     155.358 150.448 159.598  1.00 17.92     0.048 C 
HETATM    7  C12 BCR B 618     159.149 148.850 160.717  1.00 17.46     0.007 C 
HETATM    8  C13 BCR B 618     159.989 147.960 159.950  1.00 17.39    -0.062 C 
HETATM    9  C14 BCR B 618     161.104 147.471 160.515  1.00 17.35     0.007 C 
HETATM   10  C15 BCR B 618     161.954 146.485 159.908  1.00 17.33     0.001 C 
HETATM   11  C16 BCR B 618     163.063 146.061 160.529  1.00 17.39     0.001 C 
HETATM   12  C17 BCR B 618     164.029 145.283 159.799  1.00 17.40     0.007 C 
HETATM   13  C18 BCR B 618     165.163 144.762 160.284  1.00 17.49    -0.062 C 
HETATM   14  C19 BCR B 618     165.893 143.850 159.433  1.00 17.57     0.007 C 
HETATM   15  C20 BCR B 618     167.138 143.447 159.668  1.00 17.71     0.001 C 
HETATM   16  C21 BCR B 618     167.747 142.501 158.775  1.00 17.85     0.007 C 
HETATM   17  C22 BCR B 618     169.011 142.073 158.828  1.00 18.00    -0.062 C 
HETATM   18  C23 BCR B 618     169.393 140.998 157.934  1.00 18.11     0.007 C 
HETATM   19  C24 BCR B 618     170.664 140.615 157.785  1.00 18.27     0.009 C 
HETATM   20  C35 BCR B 618     159.468 147.358 158.707  1.00 17.31     0.048 C 
HETATM   21  C36 BCR B 618     165.883 145.394 161.408  1.00 17.49     0.048 C 
HETATM   22  C37 BCR B 618     169.943 142.480 159.902  1.00 18.00     0.048 C 
ENDROOT
BRANCH   1  23
HETATM   23  C6  BCR B 618     153.938 153.434 162.633  1.00 18.52    -0.048 C 
HETATM   24  C1  BCR B 618     152.584 153.003 163.107  1.00 18.61    -0.020 C 
HETATM   25  C2  BCR B 618     151.854 154.085 163.870  1.00 18.63     0.014 C 
HETATM   26  C3  BCR B 618     152.747 154.684 164.914  1.00 18.62     0.005 C 
HETATM   27  C4  BCR B 618     153.955 155.321 164.281  1.00 18.60     0.034 C 
HETATM   28  C5  BCR B 618     154.538 154.505 163.188  1.00 18.57    -0.077 C 
HETATM   29  C33 BCR B 618     155.865 155.003 162.764  1.00 18.57     0.044 C 
HETATM   30  C31 BCR B 618     151.681 152.615 161.955  1.00 18.66     0.020 C 
HETATM   31  C32 BCR B 618     152.712 151.816 164.041  1.00 18.64     0.020 C 
ENDBRANCH   1  23
BRANCH  19  32
HETATM   32  C25 BCR B 618     171.170 139.536 156.935  1.00 18.38    -0.048 C 
HETATM   33  C26 BCR B 618     171.274 139.626 155.602  1.00 18.39    -0.077 C 
HETATM   34  C27 BCR B 618     171.769 138.586 154.671  1.00 18.43     0.034 C 
HETATM   35  C28 BCR B 618     172.122 137.274 155.329  1.00 18.45     0.005 C 
HETATM   36  C29 BCR B 618     171.493 137.099 156.685  1.00 18.46     0.014 C 
HETATM   37  C30 BCR B 618     171.644 138.289 157.609  1.00 18.45    -0.020 C 
HETATM   38  C38 BCR B 618     170.856 140.795 154.807  1.00 18.43     0.044 C 
HETATM   39  C39 BCR B 618     173.076 138.460 158.090  1.00 18.49     0.020 C 
HETATM   40  C40 BCR B 618     170.846 137.923 158.847  1.00 18.48     0.020 C 
ENDBRANCH  19  32
TORSDOF 10
