REMARK  2 active torsions:
REMARK  status: ('A' for Active; 'I' for Inactive)
REMARK    1  A    between atoms: C6_23  and  C7_1 
REMARK       I    between atoms: C8_2  and  C9_3 
REMARK       I    between atoms: C10_4  and  C11_5 
REMARK       I    between atoms: C12_7  and  C13_8 
REMARK       I    between atoms: C14_9  and  C15_10 
REMARK       I    between atoms: C16_11  and  C17_12 
REMARK       I    between atoms: C18_13  and  C19_14 
REMARK       I    between atoms: C20_15  and  C21_16 
REMARK       I    between atoms: C22_17  and  C23_18 
REMARK    2  A    between atoms: C24_19  and  C25_32 
ROOT
HETATM    1  C7  BCR C 515      84.664 203.486 164.275  1.00 33.87     0.009 C 
HETATM    2  C8  BCR C 515      85.760 203.521 163.519  1.00 34.01     0.007 C 
HETATM    3  C9  BCR C 515      85.898 204.450 162.413  1.00 34.09    -0.062 C 
HETATM    4  C10 BCR C 515      86.758 204.169 161.432  1.00 34.13     0.007 C 
HETATM    5  C11 BCR C 515      87.223 205.114 160.446  1.00 34.14     0.001 C 
HETATM    6  C34 BCR C 515      84.874 205.507 162.282  1.00 34.15     0.048 C 
HETATM    7  C12 BCR C 515      88.013 204.669 159.468  1.00 34.13     0.007 C 
HETATM    8  C13 BCR C 515      88.529 205.449 158.367  1.00 34.08    -0.062 C 
HETATM    9  C14 BCR C 515      89.405 204.877 157.533  1.00 33.92     0.007 C 
HETATM   10  C15 BCR C 515      90.113 205.605 156.516  1.00 33.87     0.001 C 
HETATM   11  C16 BCR C 515      91.007 204.989 155.743  1.00 33.76     0.001 C 
HETATM   12  C17 BCR C 515      91.416 205.640 154.534  1.00 33.69     0.007 C 
HETATM   13  C18 BCR C 515      92.614 205.532 153.956  1.00 33.60    -0.062 C 
HETATM   14  C19 BCR C 515      92.886 206.322 152.773  1.00 33.52     0.007 C 
HETATM   15  C20 BCR C 515      93.994 206.195 152.045  1.00 33.41     0.001 C 
HETATM   16  C21 BCR C 515      94.248 207.127 150.975  1.00 33.33     0.007 C 
HETATM   17  C22 BCR C 515      95.321 207.103 150.181  1.00 33.23    -0.062 C 
HETATM   18  C23 BCR C 515      95.476 208.135 149.168  1.00 33.14     0.007 C 
HETATM   19  C24 BCR C 515      96.300 208.039 148.120  1.00 33.02     0.009 C 
HETATM   20  C35 BCR C 515      87.902 206.735 158.010  1.00 34.12     0.048 C 
HETATM   21  C36 BCR C 515      93.607 204.544 154.408  1.00 33.59     0.048 C 
HETATM   22  C37 BCR C 515      96.361 206.076 150.355  1.00 33.23     0.048 C 
ENDROOT
BRANCH   1  23
HETATM   23  C6  BCR C 515      84.558 202.748 165.530  1.00 33.76    -0.048 C 
HETATM   24  C1  BCR C 515      85.001 203.429 166.776  1.00 33.76    -0.020 C 
HETATM   25  C2  BCR C 515      84.299 202.892 168.006  1.00 33.74     0.014 C 
HETATM   26  C3  BCR C 515      84.359 201.391 168.062  1.00 33.67     0.005 C 
HETATM   27  C4  BCR C 515      83.844 200.727 166.811  1.00 33.69     0.034 C 
HETATM   28  C5  BCR C 515      84.013 201.532 165.581  1.00 33.72    -0.077 C 
HETATM   29  C33 BCR C 515      83.542 200.837 164.373  1.00 33.67     0.044 C 
HETATM   30  C31 BCR C 515      86.493 203.264 167.008  1.00 33.78     0.020 C 
HETATM   31  C32 BCR C 515      84.666 204.903 166.711  1.00 33.75     0.020 C 
ENDBRANCH   1  23
BRANCH  19  32
HETATM   32  C25 BCR C 515      96.511 209.071 147.098  1.00 32.98    -0.048 C 
HETATM   33  C26 BCR C 515      95.667 209.253 146.075  1.00 32.96    -0.077 C 
HETATM   34  C27 BCR C 515      95.796 210.262 144.997  1.00 32.93     0.034 C 
HETATM   35  C28 BCR C 515      96.794 211.336 145.346  1.00 32.96     0.005 C 
HETATM   36  C29 BCR C 515      98.022 210.703 145.932  1.00 32.98     0.014 C 
HETATM   37  C30 BCR C 515      97.737 209.933 147.212  1.00 33.02    -0.020 C 
HETATM   38  C38 BCR C 515      94.450 208.452 145.858  1.00 32.96     0.044 C 
HETATM   39  C39 BCR C 515      97.641 210.890 148.385  1.00 33.04     0.020 C 
HETATM   40  C40 BCR C 515      98.993 209.099 147.432  1.00 33.02     0.020 C 
ENDBRANCH  19  32
TORSDOF 10
