REMARK  2 active torsions:
REMARK  status: ('A' for Active; 'I' for Inactive)
REMARK    1  A    between atoms: C6_23  and  C7_1 
REMARK       I    between atoms: C8_2  and  C9_3 
REMARK       I    between atoms: C10_4  and  C11_5 
REMARK       I    between atoms: C12_7  and  C13_8 
REMARK       I    between atoms: C14_9  and  C15_10 
REMARK       I    between atoms: C16_11  and  C17_12 
REMARK       I    between atoms: C18_13  and  C19_14 
REMARK       I    between atoms: C20_15  and  C21_16 
REMARK       I    between atoms: C22_17  and  C23_18 
REMARK    2  A    between atoms: C24_19  and  C25_32 
ROOT
HETATM    1  C7  BCR D 405     107.745 146.422 160.529  1.00 23.73     0.009 C 
HETATM    2  C8  BCR D 405     106.823 147.391 160.519  1.00 23.75     0.007 C 
HETATM    3  C9  BCR D 405     106.860 148.526 159.603  1.00 23.73    -0.062 C 
HETATM    4  C10 BCR D 405     106.104 149.612 159.826  1.00 23.72     0.007 C 
HETATM    5  C11 BCR D 405     105.966 150.737 158.926  1.00 23.71     0.001 C 
HETATM    6  C34 BCR D 405     107.552 148.325 158.315  1.00 23.71     0.048 C 
HETATM    7  C12 BCR D 405     105.480 151.903 159.379  1.00 23.80     0.007 C 
HETATM    8  C13 BCR D 405     105.444 153.156 158.647  1.00 23.88    -0.062 C 
HETATM    9  C14 BCR D 405     104.917 154.235 159.246  1.00 24.05     0.007 C 
HETATM   10  C15 BCR D 405     104.761 155.548 158.672  1.00 24.33     0.001 C 
HETATM   11  C16 BCR D 405     104.592 156.619 159.468  1.00 24.74     0.001 C 
HETATM   12  C17 BCR D 405     104.435 157.940 158.916  1.00 25.24     0.007 C 
HETATM   13  C18 BCR D 405     104.394 159.091 159.604  1.00 25.66    -0.062 C 
HETATM   14  C19 BCR D 405     104.395 160.342 158.877  1.00 26.14     0.007 C 
HETATM   15  C20 BCR D 405     104.394 161.549 159.448  1.00 26.76     0.001 C 
HETATM   16  C21 BCR D 405     104.442 162.691 158.569  1.00 27.46     0.007 C 
HETATM   17  C22 BCR D 405     104.462 163.982 158.915  1.00 28.07    -0.062 C 
HETATM   18  C23 BCR D 405     104.922 164.962 157.938  1.00 28.67     0.007 C 
HETATM   19  C24 BCR D 405     105.576 166.082 158.284  1.00 29.42     0.009 C 
HETATM   20  C35 BCR D 405     106.038 153.244 157.298  1.00 23.85     0.048 C 
HETATM   21  C36 BCR D 405     104.393 159.128 161.077  1.00 25.62     0.048 C 
HETATM   22  C37 BCR D 405     104.170 164.418 160.295  1.00 28.05     0.048 C 
ENDROOT
BRANCH   1  23
HETATM   23  C6  BCR D 405     107.963 145.445 161.612  1.00 23.76    -0.048 C 
HETATM   24  C1  BCR D 405     107.485 144.062 161.358  1.00 23.81    -0.020 C 
HETATM   25  C2  BCR D 405     108.136 143.009 162.237  1.00 23.81     0.014 C 
HETATM   26  C3  BCR D 405     108.205 143.413 163.674  1.00 23.79     0.005 C 
HETATM   27  C4  BCR D 405     108.864 144.756 163.851  1.00 23.78     0.034 C 
HETATM   28  C5  BCR D 405     108.608 145.715 162.756  1.00 23.75    -0.077 C 
HETATM   29  C33 BCR D 405     109.136 147.042 163.082  1.00 23.71     0.044 C 
HETATM   30  C31 BCR D 405     105.985 143.958 161.525  1.00 23.82     0.020 C 
HETATM   31  C32 BCR D 405     107.819 143.660 159.939  1.00 23.83     0.020 C 
ENDBRANCH   1  23
BRANCH  19  32
HETATM   32  C25 BCR D 405     106.359 166.958 157.400  1.00 29.98    -0.048 C 
HETATM   33  C26 BCR D 405     107.605 166.664 156.999  1.00 30.20    -0.077 C 
HETATM   34  C27 BCR D 405     108.455 167.491 156.115  1.00 30.31     0.034 C 
HETATM   35  C28 BCR D 405     107.653 168.510 155.348  1.00 30.34     0.005 C 
HETATM   36  C29 BCR D 405     106.691 169.189 156.285  1.00 30.21     0.014 C 
HETATM   37  C30 BCR D 405     105.715 168.234 156.951  1.00 30.10    -0.020 C 
HETATM   38  C38 BCR D 405     108.334 165.437 157.383  1.00 30.33     0.044 C 
HETATM   39  C39 BCR D 405     104.561 167.928 156.016  1.00 30.14     0.020 C 
HETATM   40  C40 BCR D 405     105.166 169.034 158.122  1.00 30.12     0.020 C 
ENDBRANCH  19  32
TORSDOF 10
