REMARK  2 active torsions:
REMARK  status: ('A' for Active; 'I' for Inactive)
REMARK    1  A    between atoms: C6_23  and  C7_1 
REMARK       I    between atoms: C8_2  and  C9_3 
REMARK       I    between atoms: C10_4  and  C11_5 
REMARK       I    between atoms: C12_7  and  C13_8 
REMARK       I    between atoms: C14_9  and  C15_10 
REMARK       I    between atoms: C16_11  and  C17_12 
REMARK       I    between atoms: C18_13  and  C19_14 
REMARK       I    between atoms: C20_15  and  C21_16 
REMARK       I    between atoms: C22_17  and  C23_18 
REMARK    2  A    between atoms: C24_19  and  C25_32 
ROOT
HETATM    1  C7  BCR B 627     176.039 141.778 151.905  1.00 19.93     0.009 C 
HETATM    2  C8  BCR B 627     175.090 142.704 151.778  1.00 19.77     0.007 C 
HETATM    3  C9  BCR B 627     173.770 142.635 152.369  1.00 19.74    -0.062 C 
HETATM    4  C10 BCR B 627     173.335 143.711 153.035  1.00 19.67     0.007 C 
HETATM    5  C11 BCR B 627     171.985 143.928 153.484  1.00 19.57     0.001 C 
HETATM    6  C34 BCR B 627     172.813 141.671 151.792  1.00 19.74     0.048 C 
HETATM    7  C12 BCR B 627     171.754 144.906 154.363  1.00 19.46     0.007 C 
HETATM    8  C13 BCR B 627     170.509 145.116 155.057  1.00 19.38    -0.062 C 
HETATM    9  C14 BCR B 627     170.377 146.179 155.863  1.00 19.31     0.007 C 
HETATM   10  C15 BCR B 627     169.246 146.410 156.717  1.00 19.23     0.001 C 
HETATM   11  C16 BCR B 627     169.018 147.609 157.265  1.00 19.14     0.001 C 
HETATM   12  C17 BCR B 627     167.962 147.712 158.236  1.00 19.09     0.007 C 
HETATM   13  C18 BCR B 627     167.596 148.791 158.942  1.00 19.05    -0.062 C 
HETATM   14  C19 BCR B 627     166.510 148.651 159.903  1.00 18.93     0.007 C 
HETATM   15  C20 BCR B 627     166.224 149.565 160.831  1.00 18.76     0.001 C 
HETATM   16  C21 BCR B 627     165.222 149.286 161.831  1.00 18.56     0.007 C 
HETATM   17  C22 BCR B 627     164.828 150.120 162.798  1.00 18.41    -0.062 C 
HETATM   18  C23 BCR B 627     164.295 149.550 164.024  1.00 18.24     0.007 C 
HETATM   19  C24 BCR B 627     163.413 150.158 164.822  1.00 18.04     0.009 C 
HETATM   20  C35 BCR B 627     169.332 144.311 154.680  1.00 19.38     0.048 C 
HETATM   21  C36 BCR B 627     168.316 150.077 158.840  1.00 19.05     0.048 C 
HETATM   22  C37 BCR B 627     165.220 151.543 162.781  1.00 18.42     0.048 C 
ENDROOT
BRANCH   1  23
HETATM   23  C6  BCR B 627     177.301 141.712 151.148  1.00 20.01    -0.048 C 
HETATM   24  C1  BCR B 627     178.374 142.740 151.406  1.00 20.03    -0.020 C 
HETATM   25  C2  BCR B 627     179.781 142.362 150.952  1.00 20.04     0.014 C 
HETATM   26  C3  BCR B 627     179.938 140.946 150.486  1.00 20.04     0.005 C 
HETATM   27  C4  BCR B 627     178.812 140.562 149.571  1.00 20.06     0.034 C 
HETATM   28  C5  BCR B 627     177.542 140.711 150.303  1.00 20.07    -0.077 C 
HETATM   29  C33 BCR B 627     176.563 139.653 150.003  1.00 20.11     0.044 C 
HETATM   30  C31 BCR B 627     178.112 144.054 150.691  1.00 20.01     0.020 C 
HETATM   31  C32 BCR B 627     178.461 143.028 152.892  1.00 20.03     0.020 C 
ENDBRANCH   1  23
BRANCH  19  32
HETATM   32  C25 BCR B 627     162.588 149.525 165.855  1.00 17.92    -0.048 C 
HETATM   33  C26 BCR B 627     161.506 148.782 165.564  1.00 17.87    -0.077 C 
HETATM   34  C27 BCR B 627     160.628 148.104 166.541  1.00 17.85     0.034 C 
HETATM   35  C28 BCR B 627     161.341 147.939 167.852  1.00 17.84     0.005 C 
HETATM   36  C29 BCR B 627     161.934 149.258 168.259  1.00 17.86     0.014 C 
HETATM   37  C30 BCR B 627     162.984 149.758 167.287  1.00 17.90    -0.020 C 
HETATM   38  C38 BCR B 627     161.010 148.512 164.201  1.00 17.77     0.044 C 
HETATM   39  C39 BCR B 627     164.343 149.154 167.623  1.00 17.89     0.020 C 
HETATM   40  C40 BCR B 627     163.061 151.246 167.599  1.00 17.88     0.020 C 
ENDBRANCH  19  32
TORSDOF 10
