REMARK  2 active torsions:
REMARK  status: ('A' for Active; 'I' for Inactive)
REMARK    1  A    between atoms: C6_23  and  C7_1 
REMARK       I    between atoms: C8_2  and  C9_3 
REMARK       I    between atoms: C10_4  and  C11_5 
REMARK       I    between atoms: C12_7  and  C13_8 
REMARK       I    between atoms: C14_9  and  C15_10 
REMARK       I    between atoms: C16_11  and  C17_12 
REMARK       I    between atoms: C18_13  and  C19_14 
REMARK       I    between atoms: C20_15  and  C21_16 
REMARK       I    between atoms: C22_17  and  C23_18 
REMARK    2  A    between atoms: C24_19  and  C25_32 
ROOT
HETATM    1  C7  BCR C 516     127.166 205.469 150.087  1.00 25.93     0.009 C 
HETATM    2  C8  BCR C 516     126.675 206.424 150.890  1.00 25.79     0.007 C 
HETATM    3  C9  BCR C 516     125.846 206.156 152.048  1.00 25.69    -0.062 C 
HETATM    4  C10 BCR C 516     125.560 207.152 152.898  1.00 25.62     0.007 C 
HETATM    5  C11 BCR C 516     124.858 206.960 154.146  1.00 25.56     0.001 C 
HETATM    6  C34 BCR C 516     125.114 204.880 152.068  1.00 25.63     0.048 C 
HETATM    7  C12 BCR C 516     124.505 207.993 154.918  1.00 25.46     0.007 C 
HETATM    8  C13 BCR C 516     123.551 207.916 156.005  1.00 25.42    -0.062 C 
HETATM    9  C14 BCR C 516     123.302 209.005 156.749  1.00 25.36     0.007 C 
HETATM   10  C15 BCR C 516     122.296 209.108 157.781  1.00 25.30     0.001 C 
HETATM   11  C16 BCR C 516     122.085 210.263 158.434  1.00 25.21     0.001 C 
HETATM   12  C17 BCR C 516     121.059 210.346 159.448  1.00 25.08     0.007 C 
HETATM   13  C18 BCR C 516     120.688 211.419 160.162  1.00 24.90    -0.062 C 
HETATM   14  C19 BCR C 516     120.011 211.204 161.434  1.00 24.65     0.007 C 
HETATM   15  C20 BCR C 516     119.413 212.150 162.163  1.00 24.34     0.001 C 
HETATM   16  C21 BCR C 516     118.817 211.760 163.419  1.00 24.01     0.007 C 
HETATM   17  C22 BCR C 516     118.368 212.550 164.400  1.00 23.78    -0.062 C 
HETATM   18  C23 BCR C 516     117.710 211.899 165.527  1.00 23.53     0.007 C 
HETATM   19  C24 BCR C 516     117.157 212.508 166.582  1.00 23.23     0.009 C 
HETATM   20  C35 BCR C 516     123.095 206.589 156.444  1.00 25.42     0.048 C 
HETATM   21  C36 BCR C 516     120.971 212.798 159.722  1.00 24.91     0.048 C 
HETATM   22  C37 BCR C 516     118.884 213.928 164.540  1.00 23.74     0.048 C 
ENDROOT
BRANCH   1  23
HETATM   23  C6  BCR C 516     128.308 205.652 149.182  1.00 25.99    -0.048 C 
HETATM   24  C1  BCR C 516     127.998 205.833 147.724  1.00 26.01    -0.020 C 
HETATM   25  C2  BCR C 516     129.206 205.888 146.815  1.00 26.00     0.014 C 
HETATM   26  C3  BCR C 516     130.358 206.576 147.479  1.00 26.01     0.005 C 
HETATM   27  C4  BCR C 516     130.743 205.814 148.718  1.00 26.06     0.034 C 
HETATM   28  C5  BCR C 516     129.578 205.627 149.606  1.00 26.05    -0.077 C 
HETATM   29  C33 BCR C 516     129.965 205.422 151.016  1.00 26.12     0.044 C 
HETATM   30  C31 BCR C 516     127.167 204.678 147.206  1.00 25.98     0.020 C 
HETATM   31  C32 BCR C 516     127.247 207.125 147.488  1.00 26.02     0.020 C 
ENDBRANCH   1  23
BRANCH  19  32
HETATM   32  C25 BCR C 516     116.520 211.847 167.726  1.00 23.01    -0.048 C 
HETATM   33  C26 BCR C 516     115.274 211.353 167.679  1.00 22.93    -0.077 C 
HETATM   34  C27 BCR C 516     114.550 210.673 168.776  1.00 22.89     0.034 C 
HETATM   35  C28 BCR C 516     115.455 210.248 169.900  1.00 22.87     0.005 C 
HETATM   36  C29 BCR C 516     116.471 211.309 170.183  1.00 22.93     0.014 C 
HETATM   37  C30 BCR C 516     117.322 211.712 168.990  1.00 22.97    -0.020 C 
HETATM   38  C38 BCR C 516     114.393 211.440 166.501  1.00 22.86     0.044 C 
HETATM   39  C39 BCR C 516     118.479 210.749 168.821  1.00 22.94     0.020 C 
HETATM   40  C40 BCR C 516     117.937 213.038 169.419  1.00 22.96     0.020 C 
ENDBRANCH  19  32
TORSDOF 10
