REMARK  2 active torsions:
REMARK  status: ('A' for Active; 'I' for Inactive)
REMARK    1  A    between atoms: C6_23  and  C7_1 
REMARK       I    between atoms: C8_2  and  C9_3 
REMARK       I    between atoms: C10_4  and  C11_5 
REMARK       I    between atoms: C12_7  and  C13_8 
REMARK       I    between atoms: C14_9  and  C15_10 
REMARK       I    between atoms: C16_11  and  C17_12 
REMARK       I    between atoms: C18_13  and  C19_14 
REMARK       I    between atoms: C20_15  and  C21_16 
REMARK       I    between atoms: C22_17  and  C23_18 
REMARK    2  A    between atoms: C24_19  and  C25_32 
ROOT
HETATM    1  C7  BCR A 409     148.430 199.592 151.594  1.00 15.04     0.009 C 
HETATM    2  C8  BCR A 409     148.163 199.377 152.892  1.00 15.04     0.007 C 
HETATM    3  C9  BCR A 409     149.016 198.640 153.811  1.00 15.05    -0.062 C 
HETATM    4  C10 BCR A 409     148.782 198.719 155.127  1.00 15.04     0.007 C 
HETATM    5  C11 BCR A 409     149.559 198.064 156.155  1.00 15.04     0.001 C 
HETATM    6  C34 BCR A 409     149.894 197.592 153.261  1.00 15.07     0.048 C 
HETATM    7  C12 BCR A 409     149.068 197.999 157.396  1.00 15.03     0.007 C 
HETATM    8  C13 BCR A 409     149.659 197.280 158.502  1.00 15.02    -0.062 C 
HETATM    9  C14 BCR A 409     149.029 197.280 159.685  1.00 15.00     0.007 C 
HETATM   10  C15 BCR A 409     149.551 196.649 160.867  1.00 14.99     0.001 C 
HETATM   11  C16 BCR A 409     149.024 196.934 162.061  1.00 14.98     0.001 C 
HETATM   12  C17 BCR A 409     149.505 196.222 163.210  1.00 14.98     0.007 C 
HETATM   13  C18 BCR A 409     148.971 196.218 164.437  1.00 14.98    -0.062 C 
HETATM   14  C19 BCR A 409     149.561 195.341 165.423  1.00 14.98     0.007 C 
HETATM   15  C20 BCR A 409     149.426 195.548 166.732  1.00 15.00     0.001 C 
HETATM   16  C21 BCR A 409     149.827 194.525 167.669  1.00 14.99     0.007 C 
HETATM   17  C22 BCR A 409     150.164 194.761 168.939  1.00 14.99    -0.062 C 
HETATM   18  C23 BCR A 409     150.891 193.751 169.688  1.00 14.97     0.007 C 
HETATM   19  C24 BCR A 409     150.936 193.767 171.025  1.00 14.93     0.009 C 
HETATM   20  C35 BCR A 409     150.848 196.435 158.296  1.00 15.02     0.048 C 
HETATM   21  C36 BCR A 409     147.939 197.177 164.877  1.00 14.95     0.048 C 
HETATM   22  C37 BCR A 409     149.608 195.915 169.667  1.00 15.00     0.048 C 
ENDROOT
BRANCH   1  23
HETATM   23  C6  BCR A 409     147.592 200.417 150.705  1.00 15.04    -0.048 C 
HETATM   24  C1  BCR A 409     146.615 199.712 149.811  1.00 15.04    -0.020 C 
HETATM   25  C2  BCR A 409     145.971 200.609 148.766  1.00 15.03     0.014 C 
HETATM   26  C3  BCR A 409     145.646 201.958 149.328  1.00 15.05     0.005 C 
HETATM   27  C4  BCR A 409     146.910 202.634 149.774  1.00 15.05     0.034 C 
HETATM   28  C5  BCR A 409     147.715 201.752 150.648  1.00 15.05    -0.077 C 
HETATM   29  C33 BCR A 409     148.678 202.499 151.475  1.00 15.05     0.044 C 
HETATM   30  C31 BCR A 409     147.292 198.613 149.022  1.00 15.03     0.020 C 
HETATM   31  C32 BCR A 409     145.494 199.076 150.609  1.00 15.04     0.020 C 
ENDBRANCH   1  23
BRANCH  19  32
HETATM   32  C25 BCR A 409     151.539 192.775 171.905  1.00 14.90    -0.048 C 
HETATM   33  C26 BCR A 409     150.911 191.645 172.244  1.00 14.90    -0.077 C 
HETATM   34  C27 BCR A 409     151.424 190.593 173.136  1.00 14.89     0.034 C 
HETATM   35  C28 BCR A 409     152.916 190.686 173.307  1.00 14.90     0.005 C 
HETATM   36  C29 BCR A 409     153.317 192.114 173.555  1.00 14.91     0.014 C 
HETATM   37  C30 BCR A 409     152.892 193.092 172.469  1.00 14.90    -0.020 C 
HETATM   38  C38 BCR A 409     149.570 191.275 171.759  1.00 14.89     0.044 C 
HETATM   39  C39 BCR A 409     153.952 193.170 171.386  1.00 14.93     0.020 C 
HETATM   40  C40 BCR A 409     152.892 194.447 173.150  1.00 14.91     0.020 C 
ENDBRANCH  19  32
TORSDOF 10
