REMARK  2 active torsions:
REMARK  status: ('A' for Active; 'I' for Inactive)
REMARK    1  A    between atoms: C6_23  and  C7_1 
REMARK       I    between atoms: C8_2  and  C9_3 
REMARK       I    between atoms: C10_4  and  C11_5 
REMARK       I    between atoms: C12_7  and  C13_8 
REMARK       I    between atoms: C14_9  and  C15_10 
REMARK       I    between atoms: C16_11  and  C17_12 
REMARK       I    between atoms: C18_13  and  C19_14 
REMARK       I    between atoms: C20_15  and  C21_16 
REMARK       I    between atoms: C22_17  and  C23_18 
REMARK    2  A    between atoms: C24_19  and  C25_32 
ROOT
HETATM    1  C7  BCR B 617     160.196 155.397 165.929  1.00 16.52     0.009 C 
HETATM    2  C8  BCR B 617     159.892 155.066 164.673  1.00 16.42     0.007 C 
HETATM    3  C9  BCR B 617     160.442 153.914 163.983  1.00 16.35    -0.062 C 
HETATM    4  C10 BCR B 617     160.160 153.714 162.690  1.00 16.25     0.007 C 
HETATM    5  C11 BCR B 617     160.886 152.837 161.803  1.00 16.13     0.001 C 
HETATM    6  C34 BCR B 617     161.250 152.964 164.762  1.00 16.38     0.048 C 
HETATM    7  C12 BCR B 617     160.319 152.417 160.661  1.00 15.96     0.007 C 
HETATM    8  C13 BCR B 617     160.996 151.667 159.627  1.00 15.83    -0.062 C 
HETATM    9  C14 BCR B 617     160.409 151.530 158.427  1.00 15.70     0.007 C 
HETATM   10  C15 BCR B 617     161.067 151.117 157.213  1.00 15.54     0.001 C 
HETATM   11  C16 BCR B 617     160.400 151.043 156.051  1.00 15.40     0.001 C 
HETATM   12  C17 BCR B 617     161.016 150.403 154.913  1.00 15.27     0.007 C 
HETATM   13  C18 BCR B 617     160.604 150.388 153.636  1.00 15.19    -0.062 C 
HETATM   14  C19 BCR B 617     161.372 149.622 152.667  1.00 15.12     0.007 C 
HETATM   15  C20 BCR B 617     161.112 149.605 151.359  1.00 15.10     0.001 C 
HETATM   16  C21 BCR B 617     162.026 148.928 150.474  1.00 15.07     0.007 C 
HETATM   17  C22 BCR B 617     161.968 148.842 149.139  1.00 15.07    -0.062 C 
HETATM   18  C23 BCR B 617     162.757 147.800 148.513  1.00 15.08     0.007 C 
HETATM   19  C24 BCR B 617     163.226 147.809 147.260  1.00 15.19     0.009 C 
HETATM   20  C35 BCR B 617     162.233 150.941 159.959  1.00 15.82     0.048 C 
HETATM   21  C36 BCR B 617     159.468 151.193 153.140  1.00 15.16     0.048 C 
HETATM   22  C37 BCR B 617     161.353 149.888 148.300  1.00 15.01     0.048 C 
ENDROOT
BRANCH   1  23
HETATM   23  C6  BCR B 617     159.543 156.497 166.662  1.00 16.61    -0.048 C 
HETATM   24  C1  BCR B 617     158.386 156.140 167.538  1.00 16.64    -0.020 C 
HETATM   25  C2  BCR B 617     157.986 157.231 168.510  1.00 16.66     0.014 C 
HETATM   26  C3  BCR B 617     157.995 158.572 167.847  1.00 16.67     0.005 C 
HETATM   27  C4  BCR B 617     159.371 158.894 167.337  1.00 16.65     0.034 C 
HETATM   28  C5  BCR B 617     159.980 157.760 166.607  1.00 16.64    -0.077 C 
HETATM   29  C33 BCR B 617     161.127 158.174 165.781  1.00 16.67     0.044 C 
HETATM   30  C31 BCR B 617     157.136 155.815 166.744  1.00 16.64     0.020 C 
HETATM   31  C32 BCR B 617     158.749 154.934 168.374  1.00 16.66     0.020 C 
ENDBRANCH   1  23
BRANCH  19  32
HETATM   32  C25 BCR B 617     163.894 146.702 146.563  1.00 15.27    -0.048 C 
HETATM   33  C26 BCR B 617     165.154 146.316 146.828  1.00 15.33    -0.077 C 
HETATM   34  C27 BCR B 617     165.878 145.218 146.156  1.00 15.37     0.034 C 
HETATM   35  C28 BCR B 617     164.930 144.193 145.594  1.00 15.36     0.005 C 
HETATM   36  C29 BCR B 617     163.834 144.860 144.810  1.00 15.31     0.014 C 
HETATM   37  C30 BCR B 617     163.094 145.993 145.494  1.00 15.29    -0.020 C 
HETATM   38  C38 BCR B 617     166.044 146.930 147.842  1.00 15.36     0.044 C 
HETATM   39  C39 BCR B 617     161.754 145.494 146.019  1.00 15.27     0.020 C 
HETATM   40  C40 BCR B 617     162.768 146.928 144.340  1.00 15.28     0.020 C 
ENDBRANCH  19  32
TORSDOF 10
