REMARK  2 active torsions:
REMARK  status: ('A' for Active; 'I' for Inactive)
REMARK    1  A    between atoms: C6_23  and  C7_1 
REMARK       I    between atoms: C8_2  and  C9_3 
REMARK       I    between atoms: C10_4  and  C11_5 
REMARK       I    between atoms: C12_7  and  C13_8 
REMARK       I    between atoms: C14_9  and  C15_10 
REMARK       I    between atoms: C16_11  and  C17_12 
REMARK       I    between atoms: C18_13  and  C19_14 
REMARK       I    between atoms: C20_15  and  C21_16 
REMARK       I    between atoms: C22_17  and  C23_18 
REMARK    2  A    between atoms: C24_19  and  C25_32 
ROOT
HETATM    1  C7  BCR B 619     162.029 126.596 158.356  1.00 23.76     0.009 C 
HETATM    2  C8  BCR B 619     162.944 127.290 157.669  1.00 23.52     0.007 C 
HETATM    3  C9  BCR B 619     162.641 128.222 156.597  1.00 23.29    -0.062 C 
HETATM    4  C10 BCR B 619     163.544 128.433 155.629  1.00 23.05     0.007 C 
HETATM    5  C11 BCR B 619     163.578 129.589 154.773  1.00 22.72     0.001 C 
HETATM    6  C34 BCR B 619     161.468 129.096 156.762  1.00 23.29     0.048 C 
HETATM    7  C12 BCR B 619     164.486 129.669 153.796  1.00 22.43     0.007 C 
HETATM    8  C13 BCR B 619     164.667 130.810 152.925  1.00 22.18    -0.062 C 
HETATM    9  C14 BCR B 619     165.590 130.744 151.953  1.00 21.99     0.007 C 
HETATM   10  C15 BCR B 619     166.044 131.846 151.141  1.00 21.73     0.001 C 
HETATM   11  C16 BCR B 619     167.119 131.720 150.345  1.00 21.53     0.001 C 
HETATM   12  C17 BCR B 619     167.492 132.782 149.437  1.00 21.33     0.007 C 
HETATM   13  C18 BCR B 619     168.538 132.839 148.598  1.00 21.19    -0.062 C 
HETATM   14  C19 BCR B 619     168.735 134.037 147.805  1.00 21.09     0.007 C 
HETATM   15  C20 BCR B 619     169.841 134.266 147.093  1.00 20.98     0.001 C 
HETATM   16  C21 BCR B 619     169.878 135.352 146.144  1.00 20.84     0.007 C 
HETATM   17  C22 BCR B 619     170.850 135.618 145.263  1.00 20.78    -0.062 C 
HETATM   18  C23 BCR B 619     170.801 136.881 144.550  1.00 20.74     0.007 C 
HETATM   19  C24 BCR B 619     171.888 137.511 144.097  1.00 20.69     0.009 C 
HETATM   20  C35 BCR B 619     163.797 131.990 153.085  1.00 22.11     0.048 C 
HETATM   21  C36 BCR B 619     169.332 131.645 148.239  1.00 21.18     0.048 C 
HETATM   22  C37 BCR B 619     171.769 134.568 144.769  1.00 20.75     0.048 C 
ENDROOT
BRANCH   1  23
HETATM   23  C6  BCR B 619     162.345 125.600 159.394  1.00 23.95    -0.048 C 
HETATM   24  C1  BCR B 619     162.221 126.047 160.815  1.00 23.98    -0.020 C 
HETATM   25  C2  BCR B 619     162.340 124.951 161.853  1.00 24.03     0.014 C 
HETATM   26  C3  BCR B 619     163.319 123.888 161.461  1.00 24.06     0.005 C 
HETATM   27  C4  BCR B 619     162.951 123.298 160.131  1.00 24.07     0.034 C 
HETATM   28  C5  BCR B 619     162.655 124.328 159.113  1.00 24.06    -0.077 C 
HETATM   29  C33 BCR B 619     162.764 123.804 157.738  1.00 24.15     0.044 C 
HETATM   30  C31 BCR B 619     163.238 127.103 161.192  1.00 23.97     0.020 C 
HETATM   31  C32 BCR B 619     160.836 126.622 161.006  1.00 24.00     0.020 C 
ENDBRANCH   1  23
BRANCH  19  32
HETATM   32  C25 BCR B 619     171.944 138.889 143.615  1.00 20.68    -0.048 C 
HETATM   33  C26 BCR B 619     172.075 139.926 144.453  1.00 20.65    -0.077 C 
HETATM   34  C27 BCR B 619     172.140 141.355 144.076  1.00 20.63     0.034 C 
HETATM   35  C28 BCR B 619     171.798 141.609 142.632  1.00 20.67     0.005 C 
HETATM   36  C29 BCR B 619     172.319 140.514 141.742  1.00 20.70     0.014 C 
HETATM   37  C30 BCR B 619     171.903 139.108 142.138  1.00 20.71    -0.020 C 
HETATM   38  C38 BCR B 619     172.150 139.784 145.919  1.00 20.57     0.044 C 
HETATM   39  C39 BCR B 619     172.782 138.097 141.420  1.00 20.73     0.020 C 
HETATM   40  C40 BCR B 619     170.500 138.937 141.575  1.00 20.73     0.020 C 
ENDBRANCH  19  32
TORSDOF 10
