REMARK  2 active torsions:
REMARK  status: ('A' for Active; 'I' for Inactive)
REMARK    1  A    between atoms: C6_23  and  C7_1 
REMARK       I    between atoms: C8_2  and  C9_3 
REMARK       I    between atoms: C10_4  and  C11_5 
REMARK       I    between atoms: C12_7  and  C13_8 
REMARK       I    between atoms: C14_9  and  C15_10 
REMARK       I    between atoms: C16_11  and  C17_12 
REMARK       I    between atoms: C18_13  and  C19_14 
REMARK       I    between atoms: C20_15  and  C21_16 
REMARK       I    between atoms: C22_17  and  C23_18 
REMARK    2  A    between atoms: C24_19  and  C25_32 
ROOT
HETATM    1  C7  BCR C 521      84.859 194.213 162.083  1.00 25.24     0.009 C 
HETATM    2  C8  BCR C 521      85.813 194.593 161.225  1.00 25.11     0.007 C 
HETATM    3  C9  BCR C 521      85.674 194.567 159.778  1.00 24.97    -0.062 C 
HETATM    4  C10 BCR C 521      86.739 194.811 159.004  1.00 24.81     0.007 C 
HETATM    5  C11 BCR C 521      87.000 194.168 157.744  1.00 24.63     0.001 C 
HETATM    6  C34 BCR C 521      84.336 194.351 159.209  1.00 25.01     0.048 C 
HETATM    7  C12 BCR C 521      88.136 194.426 157.096  1.00 24.42     0.007 C 
HETATM    8  C13 BCR C 521      88.452 193.974 155.763  1.00 24.27    -0.062 C 
HETATM    9  C14 BCR C 521      89.743 193.992 155.398  1.00 24.10     0.007 C 
HETATM   10  C15 BCR C 521      90.273 193.780 154.078  1.00 23.91     0.001 C 
HETATM   11  C16 BCR C 521      91.575 193.964 153.798  1.00 23.67     0.001 C 
HETATM   12  C17 BCR C 521      92.106 193.451 152.560  1.00 23.46     0.007 C 
HETATM   13  C18 BCR C 521      93.346 193.617 152.075  1.00 23.29    -0.062 C 
HETATM   14  C19 BCR C 521      93.713 192.936 150.845  1.00 23.13     0.007 C 
HETATM   15  C20 BCR C 521      94.915 193.022 150.268  1.00 22.94     0.001 C 
HETATM   16  C21 BCR C 521      95.174 192.338 149.023  1.00 22.80     0.007 C 
HETATM   17  C22 BCR C 521      96.300 191.706 148.666  1.00 22.66    -0.062 C 
HETATM   18  C23 BCR C 521      96.310 190.797 147.525  1.00 22.58     0.007 C 
HETATM   19  C24 BCR C 521      97.470 190.442 146.960  1.00 22.47     0.009 C 
HETATM   20  C35 BCR C 521      87.452 193.171 155.031  1.00 24.32     0.048 C 
HETATM   21  C36 BCR C 521      94.404 194.269 152.859  1.00 23.25     0.048 C 
HETATM   22  C37 BCR C 521      97.532 191.812 149.467  1.00 22.64     0.048 C 
ENDROOT
BRANCH   1  23
HETATM   23  C6  BCR C 521      84.964 194.328 163.549  1.00 25.36    -0.048 C 
HETATM   24  C1  BCR C 521      85.364 193.098 164.295  1.00 25.41    -0.020 C 
HETATM   25  C2  BCR C 521      85.138 193.170 165.793  1.00 25.41     0.014 C 
HETATM   26  C3  BCR C 521      85.556 194.506 166.322  1.00 25.43     0.005 C 
HETATM   27  C4  BCR C 521      84.736 195.592 165.688  1.00 25.42     0.034 C 
HETATM   28  C5  BCR C 521      84.666 195.453 164.218  1.00 25.39    -0.077 C 
HETATM   29  C33 BCR C 521      84.247 196.702 163.556  1.00 25.41     0.044 C 
HETATM   30  C31 BCR C 521      84.593 191.897 163.792  1.00 25.43     0.020 C 
HETATM   31  C32 BCR C 521      86.843 192.833 164.121  1.00 25.43     0.020 C 
ENDBRANCH   1  23
BRANCH  19  32
HETATM   32  C25 BCR C 521      97.691 189.710 145.717  1.00 22.43    -0.048 C 
HETATM   33  C26 BCR C 521      97.613 190.294 144.517  1.00 22.42    -0.077 C 
HETATM   34  C27 BCR C 521      97.818 189.628 143.219  1.00 22.43     0.034 C 
HETATM   35  C28 BCR C 521      97.722 188.130 143.311  1.00 22.43     0.005 C 
HETATM   36  C29 BCR C 521      98.458 187.620 144.517  1.00 22.41     0.014 C 
HETATM   37  C30 BCR C 521      98.074 188.266 145.837  1.00 22.41    -0.020 C 
HETATM   38  C38 BCR C 521      97.263 191.710 144.295  1.00 22.40     0.044 C 
HETATM   39  C39 BCR C 521      99.209 188.119 146.832  1.00 22.38     0.020 C 
HETATM   40  C40 BCR C 521      96.929 187.416 146.371  1.00 22.38     0.020 C 
ENDBRANCH  19  32
TORSDOF 10
