REMARK VINA RESULT:    -6.313      0.000      0.000
REMARK INTER + INTRA:         -10.501
REMARK INTER:                  -6.313
REMARK INTRA:                  -4.188
REMARK UNBOUND:                -4.188
REMARK  0 active torsions:
REMARK  status: ('A' for Active; 'I' for Inactive)
REMARK       I    between atoms: C6_6  and  C7_7 
REMARK       I    between atoms: C8_8  and  C9_9 
REMARK       I    between atoms: C10_10  and  C11_11 
REMARK       I    between atoms: C12_16  and  C13_17 
REMARK       I    between atoms: C14_18  and  C15_19 
REMARK       I    between atoms: C16_20  and  C17_21 
REMARK       I    between atoms: C18_22  and  C19_23 
REMARK       I    between atoms: C20_24  and  C21_25 
REMARK       I    between atoms: C22_26  and  C23_27 
REMARK       I    between atoms: C24_28  and  C25_29 
ROOT
HETATM    1  C1  BCR K 102     -50.345 144.608   9.071  1.00 38.40    -0.020 C 
HETATM    2  C2  BCR K 102     -51.703 145.065   9.584  1.00 38.88     0.014 C 
HETATM    3  C3  BCR K 102     -51.755 145.259  11.096  1.00 36.35     0.005 C 
HETATM    4  C4  BCR K 102     -50.740 146.315  11.503  1.00 39.30     0.034 C 
HETATM    5  C5  BCR K 102     -49.363 145.998  10.925  1.00 38.06    -0.077 C 
HETATM    6  C6  BCR K 102     -49.187 145.256   9.814  1.00 35.81    -0.048 C 
HETATM    7  C7  BCR K 102     -47.852 144.886   9.267  1.00 37.55     0.009 C 
HETATM    8  C8  BCR K 102     -46.771 144.532   9.997  1.00 35.06     0.007 C 
HETATM    9  C9  BCR K 102     -45.547 144.054   9.320  1.00 32.94    -0.062 C 
HETATM   10  C10 BCR K 102     -44.814 143.071   9.916  1.00 29.26     0.007 C 
HETATM   11  C11 BCR K 102     -43.631 142.499   9.231  1.00 31.72     0.001 C 
HETATM   12  C33 BCR K 102     -48.195 146.608  11.637  1.00 42.01     0.044 C 
HETATM   13  C31 BCR K 102     -50.248 144.971   7.611  1.00 35.78     0.020 C 
HETATM   14  C32 BCR K 102     -50.255 143.067   9.124  1.00 39.14     0.020 C 
HETATM   15  C34 BCR K 102     -45.099 144.630   7.977  1.00 34.26     0.048 C 
HETATM   16  C12 BCR K 102     -43.022 141.379   9.695  1.00 31.36     0.007 C 
HETATM   17  C13 BCR K 102     -41.941 140.606   8.996  1.00 34.21    -0.062 C 
HETATM   18  C14 BCR K 102     -41.550 139.418   9.536  1.00 32.95     0.007 C 
HETATM   19  C15 BCR K 102     -40.525 138.470   9.042  1.00 34.69     0.001 C 
HETATM   20  C16 BCR K 102     -40.145 137.376   9.754  1.00 32.05     0.001 C 
HETATM   21  C17 BCR K 102     -39.104 136.480   9.227  1.00 30.56     0.007 C 
HETATM   22  C18 BCR K 102     -38.718 135.337   9.868  1.00 30.66    -0.062 C 
HETATM   23  C19 BCR K 102     -37.676 134.523   9.198  1.00 30.34     0.007 C 
HETATM   24  C20 BCR K 102     -37.249 133.308   9.570  1.00 29.93     0.001 C 
HETATM   25  C21 BCR K 102     -36.261 132.647   8.710  1.00 31.06     0.007 C 
HETATM   26  C22 BCR K 102     -36.088 131.309   8.701  1.00 32.58    -0.062 C 
HETATM   27  C23 BCR K 102     -35.108 130.721   7.753  1.00 31.86     0.007 C 
HETATM   28  C24 BCR K 102     -34.811 129.405   7.786  1.00 29.98     0.009 C 
HETATM   29  C25 BCR K 102     -33.842 128.777   6.874  1.00 30.51    -0.048 C 
HETATM   30  C26 BCR K 102     -32.510 128.994   7.063  1.00 29.80    -0.077 C 
HETATM   31  C27 BCR K 102     -31.460 128.397   6.182  1.00 28.84     0.034 C 
HETATM   32  C28 BCR K 102     -32.046 127.897   4.868  1.00 30.72     0.005 C 
HETATM   33  C29 BCR K 102     -33.308 127.028   5.172  1.00 30.97     0.014 C 
HETATM   34  C30 BCR K 102     -34.413 127.900   5.738  1.00 30.37    -0.020 C 
HETATM   35  C35 BCR K 102     -41.437 141.051   7.656  1.00 29.96     0.048 C 
HETATM   36  C36 BCR K 102     -39.379 134.836  11.127  1.00 30.23     0.048 C 
HETATM   37  C37 BCR K 102     -36.892 130.438   9.653  1.00 31.58     0.048 C 
HETATM   38  C38 BCR K 102     -32.018 129.842   8.215  1.00 29.47     0.044 C 
HETATM   39  C39 BCR K 102     -35.481 126.971   6.367  1.00 31.75     0.020 C 
HETATM   40  C40 BCR K 102     -35.038 128.752   4.633  1.00 30.63     0.020 C 
ENDROOT
TORSDOF 10
