REMARK VINA RESULT:    -7.566      2.865      4.816
REMARK INTER + INTRA:         -14.250
REMARK INTER:                 -11.964
REMARK INTRA:                  -2.286
REMARK UNBOUND:                -6.685
REMARK  0 active torsions:
REMARK  status: ('A' for Active; 'I' for Inactive)
REMARK       I    between atoms: C6_6  and  C7_7 
REMARK       I    between atoms: C8_8  and  C9_9 
REMARK       I    between atoms: C10_10  and  C11_11 
REMARK       I    between atoms: C12_16  and  C13_17 
REMARK       I    between atoms: C14_18  and  C15_19 
REMARK       I    between atoms: C16_20  and  C17_21 
REMARK       I    between atoms: C18_22  and  C19_23 
REMARK       I    between atoms: C20_24  and  C21_25 
REMARK       I    between atoms: C22_26  and  C23_27 
REMARK       I    between atoms: C24_28  and  C25_29 
ROOT
HETATM    1  C1  BCR C 515     -34.760 127.083   5.680  1.00 37.08    -0.020 C 
HETATM    2  C2  BCR C 515     -33.476 126.339   5.340  1.00 40.43     0.014 C 
HETATM    3  C3  BCR C 515     -32.296 127.279   5.155  1.00 40.60     0.005 C 
HETATM    4  C4  BCR C 515     -32.019 127.999   6.451  1.00 41.76     0.034 C 
HETATM    5  C5  BCR C 515     -33.280 128.608   7.021  1.00 44.35    -0.077 C 
HETATM    6  C6  BCR C 515     -34.531 128.185   6.673  1.00 38.34    -0.048 C 
HETATM    7  C7  BCR C 515     -35.699 128.842   7.324  1.00 39.43     0.009 C 
HETATM    8  C8  BCR C 515     -35.904 130.163   7.238  1.00 35.24     0.007 C 
HETATM    9  C9  BCR C 515     -37.073 130.727   7.941  1.00 37.97    -0.062 C 
HETATM   10  C10 BCR C 515     -37.230 132.075   7.959  1.00 36.80     0.007 C 
HETATM   11  C11 BCR C 515     -38.309 132.848   8.591  1.00 32.61     0.001 C 
HETATM   12  C33 BCR C 515     -33.080 129.706   8.043  1.00 42.05     0.044 C 
HETATM   13  C31 BCR C 515     -35.669 126.015   6.235  1.00 31.99     0.020 C 
HETATM   14  C32 BCR C 515     -35.377 127.717   4.406  1.00 38.11     0.020 C 
HETATM   15  C34 BCR C 515     -38.011 129.779   8.659  1.00 32.75     0.048 C 
HETATM   16  C12 BCR C 515     -38.295 134.198   8.446  1.00 33.17     0.007 C 
HETATM   17  C13 BCR C 515     -39.356 135.038   9.061  1.00 34.98    -0.062 C 
HETATM   18  C14 BCR C 515     -39.531 136.324   8.672  1.00 34.48     0.007 C 
HETATM   19  C15 BCR C 515     -40.530 137.242   9.234  1.00 37.70     0.001 C 
HETATM   20  C16 BCR C 515     -40.653 138.504   8.806  1.00 34.86     0.001 C 
HETATM   21  C17 BCR C 515     -41.661 139.381   9.408  1.00 31.74     0.007 C 
HETATM   22  C18 BCR C 515     -42.017 140.639   8.991  1.00 36.05    -0.062 C 
HETATM   23  C19 BCR C 515     -43.022 141.365   9.809  1.00 34.77     0.007 C 
HETATM   24  C20 BCR C 515     -43.328 142.659   9.648  1.00 37.78     0.001 C 
HETATM   25  C21 BCR C 515     -44.283 143.296  10.566  1.00 37.22     0.007 C 
HETATM   26  C22 BCR C 515     -44.680 144.586  10.530  1.00 37.09    -0.062 C 
HETATM   27  C23 BCR C 515     -45.586 145.012  11.601  1.00 34.50     0.007 C 
HETATM   28  C24 BCR C 515     -45.818 146.293  11.897  1.00 34.78     0.009 C 
HETATM   29  C25 BCR C 515     -46.690 146.656  13.051  1.00 32.41    -0.048 C 
HETATM   30  C26 BCR C 515     -48.002 146.300  13.164  1.00 31.92    -0.077 C 
HETATM   31  C27 BCR C 515     -48.821 146.723  14.367  1.00 30.54     0.034 C 
HETATM   32  C28 BCR C 515     -47.951 147.106  15.560  1.00 33.89     0.005 C 
HETATM   33  C29 BCR C 515     -46.865 148.086  15.151  1.00 28.08     0.014 C 
HETATM   34  C30 BCR C 515     -45.943 147.435  14.124  1.00 34.48    -0.020 C 
HETATM   35  C35 BCR C 515     -40.215 134.431  10.147  1.00 35.00     0.048 C 
HETATM   36  C36 BCR C 515     -41.352 141.347   7.811  1.00 34.98     0.048 C 
HETATM   37  C37 BCR C 515     -44.165 145.588   9.505  1.00 38.26     0.048 C 
HETATM   38  C38 BCR C 515     -48.760 145.552  12.075  1.00 29.97     0.044 C 
HETATM   39  C39 BCR C 515     -44.863 146.555  14.786  1.00 29.94     0.020 C 
HETATM   40  C40 BCR C 515     -45.181 148.554  13.410  1.00 31.43     0.020 C 
ENDROOT
TORSDOF 10
