REMARK VINA RESULT:    -5.843      1.416     16.105
REMARK INTER + INTRA:         -10.031
REMARK INTER:                  -6.757
REMARK INTRA:                  -3.274
REMARK UNBOUND:                -4.188
REMARK  0 active torsions:
REMARK  status: ('A' for Active; 'I' for Inactive)
REMARK       I    between atoms: C6_6  and  C7_7 
REMARK       I    between atoms: C8_8  and  C9_9 
REMARK       I    between atoms: C10_10  and  C11_11 
REMARK       I    between atoms: C12_16  and  C13_17 
REMARK       I    between atoms: C14_18  and  C15_19 
REMARK       I    between atoms: C16_20  and  C17_21 
REMARK       I    between atoms: C18_22  and  C19_23 
REMARK       I    between atoms: C20_24  and  C21_25 
REMARK       I    between atoms: C22_26  and  C23_27 
REMARK       I    between atoms: C24_28  and  C25_29 
ROOT
HETATM    1  C1  BCR K 102     -34.362 126.763   6.063  1.00 38.40    -0.020 C 
HETATM    2  C2  BCR K 102     -33.717 125.850   5.030  1.00 38.88     0.014 C 
HETATM    3  C3  BCR K 102     -32.735 126.565   4.107  1.00 36.35     0.005 C 
HETATM    4  C4  BCR K 102     -31.616 127.173   4.935  1.00 39.30     0.034 C 
HETATM    5  C5  BCR K 102     -32.179 128.014   6.078  1.00 38.06    -0.077 C 
HETATM    6  C6  BCR K 102     -33.402 127.810   6.606  1.00 35.81    -0.048 C 
HETATM    7  C7  BCR K 102     -33.993 128.655   7.680  1.00 37.55     0.009 C 
HETATM    8  C8  BCR K 102     -33.883 129.998   7.777  1.00 35.06     0.007 C 
HETATM    9  C9  BCR K 102     -34.637 130.728   8.818  1.00 32.94    -0.062 C 
HETATM   10  C10 BCR K 102     -35.132 131.963   8.520  1.00 29.26     0.007 C 
HETATM   11  C11 BCR K 102     -35.969 132.691   9.502  1.00 31.72     0.001 C 
HETATM   12  C33 BCR K 102     -31.267 129.065   6.633  1.00 42.01     0.044 C 
HETATM   13  C31 BCR K 102     -34.847 125.909   7.207  1.00 35.78     0.020 C 
HETATM   14  C32 BCR K 102     -35.628 127.417   5.467  1.00 39.14     0.020 C 
HETATM   15  C34 BCR K 102     -34.875 130.126  10.204  1.00 34.26     0.048 C 
HETATM   16  C12 BCR K 102     -36.653 133.809   9.152  1.00 31.36     0.007 C 
HETATM   17  C13 BCR K 102     -37.668 134.526   9.995  1.00 34.21    -0.062 C 
HETATM   18  C14 BCR K 102     -38.370 135.545   9.427  1.00 32.95     0.007 C 
HETATM   19  C15 BCR K 102     -39.422 136.394  10.032  1.00 34.69     0.001 C 
HETATM   20  C16 BCR K 102     -39.953 137.466   9.384  1.00 32.05     0.001 C 
HETATM   21  C17 BCR K 102     -40.979 138.289  10.041  1.00 30.56     0.007 C 
HETATM   22  C18 BCR K 102     -41.588 139.344   9.423  1.00 30.66    -0.062 C 
HETATM   23  C19 BCR K 102     -42.623 140.061  10.205  1.00 30.34     0.007 C 
HETATM   24  C20 BCR K 102     -43.438 141.026   9.757  1.00 29.93     0.001 C 
HETATM   25  C21 BCR K 102     -44.448 141.543  10.687  1.00 31.06     0.007 C 
HETATM   26  C22 BCR K 102     -45.576 142.153  10.267  1.00 32.58    -0.062 C 
HETATM   27  C23 BCR K 102     -46.571 142.591  11.278  1.00 31.86     0.007 C 
HETATM   28  C24 BCR K 102     -47.656 143.309  10.921  1.00 29.98     0.009 C 
HETATM   29  C25 BCR K 102     -48.667 143.772  11.885  1.00 30.51    -0.048 C 
HETATM   30  C26 BCR K 102     -48.366 144.804  12.723  1.00 29.80    -0.077 C 
HETATM   31  C27 BCR K 102     -49.332 145.333  13.733  1.00 28.84     0.034 C 
HETATM   32  C28 BCR K 102     -50.471 144.355  13.990  1.00 30.72     0.005 C 
HETATM   33  C29 BCR K 102     -51.052 143.880  12.620  1.00 30.97     0.014 C 
HETATM   34  C30 BCR K 102     -50.026 143.037  11.886  1.00 30.37    -0.020 C 
HETATM   35  C35 BCR K 102     -38.014 134.015  11.362  1.00 29.96     0.048 C 
HETATM   36  C36 BCR K 102     -41.336 139.712   7.983  1.00 30.23     0.048 C 
HETATM   37  C37 BCR K 102     -45.802 142.380   8.780  1.00 31.58     0.048 C 
HETATM   38  C38 BCR K 102     -47.023 145.497  12.649  1.00 29.47     0.044 C 
HETATM   39  C39 BCR K 102     -50.478 142.909  10.410  1.00 31.75     0.020 C 
HETATM   40  C40 BCR K 102     -49.915 141.654  12.527  1.00 30.63     0.020 C 
ENDROOT
TORSDOF 10
