REMARK VINA RESULT:    -8.763      1.466     16.461
REMARK INTER + INTRA:         -11.216
REMARK INTER:                  -8.153
REMARK INTRA:                  -3.063
REMARK UNBOUND:                -2.454
REMARK  0 active torsions:
REMARK  status: ('A' for Active; 'I' for Inactive)
REMARK       I    between atoms: C6_6  and  C7_7 
REMARK       I    between atoms: C8_8  and  C9_9 
REMARK       I    between atoms: C10_10  and  C11_11 
REMARK       I    between atoms: C12_16  and  C13_17 
REMARK       I    between atoms: C14_18  and  C15_19 
REMARK       I    between atoms: C16_20  and  C17_21 
REMARK       I    between atoms: C18_22  and  C19_23 
REMARK       I    between atoms: C20_24  and  C21_25 
REMARK       I    between atoms: C22_26  and  C23_27 
REMARK       I    between atoms: C24_28  and  C25_29 
ROOT
HETATM    1  C1  BCR C 514     -32.362 130.048   7.592  1.00 38.04    -0.020 C 
HETATM    2  C2  BCR C 514     -31.643 128.908   6.892  1.00 38.20     0.014 C 
HETATM    3  C3  BCR C 514     -32.294 128.539   5.573  1.00 33.25     0.005 C 
HETATM    4  C4  BCR C 514     -33.774 128.293   5.683  1.00 36.16     0.034 C 
HETATM    5  C5  BCR C 514     -34.518 129.143   6.675  1.00 38.48    -0.077 C 
HETATM    6  C6  BCR C 514     -33.875 129.936   7.555  1.00 37.46    -0.048 C 
HETATM    7  C7  BCR C 514     -34.611 130.766   8.544  1.00 42.89     0.009 C 
HETATM    8  C8  BCR C 514     -35.512 131.677   8.179  1.00 44.19     0.007 C 
HETATM    9  C9  BCR C 514     -36.204 132.517   9.178  1.00 46.71    -0.062 C 
HETATM   10  C10 BCR C 514     -36.936 133.535   8.708  1.00 41.97     0.007 C 
HETATM   11  C11 BCR C 514     -37.657 134.469   9.580  1.00 40.92     0.001 C 
HETATM   12  C33 BCR C 514     -36.013 129.013   6.639  1.00 41.56     0.044 C 
HETATM   13  C31 BCR C 514     -31.936 131.366   6.908  1.00 35.33     0.020 C 
HETATM   14  C32 BCR C 514     -31.884 129.961   9.055  1.00 38.77     0.020 C 
HETATM   15  C34 BCR C 514     -36.096 132.221  10.666  1.00 44.98     0.048 C 
HETATM   16  C12 BCR C 514     -38.644 135.212   9.065  1.00 44.53     0.007 C 
HETATM   17  C13 BCR C 514     -39.416 136.170   9.875  1.00 45.51    -0.062 C 
HETATM   18  C14 BCR C 514     -40.093 137.151   9.224  1.00 43.91     0.007 C 
HETATM   19  C15 BCR C 514     -40.918 138.184   9.880  1.00 44.35     0.001 C 
HETATM   20  C16 BCR C 514     -41.752 138.943   9.167  1.00 42.58     0.001 C 
HETATM   21  C17 BCR C 514     -42.595 139.977   9.772  1.00 41.40     0.007 C 
HETATM   22  C18 BCR C 514     -43.135 141.075   9.174  1.00 40.94    -0.062 C 
HETATM   23  C19 BCR C 514     -43.941 141.985  10.038  1.00 41.16     0.007 C 
HETATM   24  C20 BCR C 514     -44.766 142.933   9.588  1.00 41.17     0.001 C 
HETATM   25  C21 BCR C 514     -45.488 143.799  10.529  1.00 43.08     0.007 C 
HETATM   26  C22 BCR C 514     -45.947 145.051  10.235  1.00 46.47    -0.062 C 
HETATM   27  C23 BCR C 514     -46.665 145.743  11.345  1.00 43.42     0.007 C 
HETATM   28  C24 BCR C 514     -47.411 146.855  11.212  1.00 46.58     0.009 C 
HETATM   29  C25 BCR C 514     -48.146 147.508  12.349  1.00 45.04    -0.048 C 
HETATM   30  C26 BCR C 514     -49.332 147.000  12.793  1.00 43.97    -0.077 C 
HETATM   31  C27 BCR C 514     -50.169 147.608  13.931  1.00 42.37     0.034 C 
HETATM   32  C28 BCR C 514     -49.377 148.634  14.744  1.00 45.24     0.005 C 
HETATM   33  C29 BCR C 514     -48.485 149.526  13.884  1.00 45.27     0.014 C 
HETATM   34  C30 BCR C 514     -47.544 148.777  12.939  1.00 46.36    -0.020 C 
HETATM   35  C35 BCR C 514     -39.443 135.988  11.373  1.00 43.98     0.048 C 
HETATM   36  C36 BCR C 514     -42.917 141.458   7.722  1.00 37.85     0.048 C 
HETATM   37  C37 BCR C 514     -45.765 145.706   8.859  1.00 36.78     0.048 C 
HETATM   38  C38 BCR C 514     -49.944 145.772  12.199  1.00 35.37     0.044 C 
HETATM   39  C39 BCR C 514     -46.224 148.467  13.656  1.00 44.38     0.020 C 
HETATM   40  C40 BCR C 514     -47.270 149.717  11.765  1.00 45.05     0.020 C 
ENDROOT
TORSDOF 10
