REMARK VINA RESULT:    -7.767      2.929      6.118
REMARK INTER + INTRA:         -11.720
REMARK INTER:                  -4.750
REMARK INTRA:                  -6.970
REMARK UNBOUND:                -3.953
REMARK  0 active torsions:
REMARK  status: ('A' for Active; 'I' for Inactive)
REMARK       I    between atoms: C6_6  and  C7_7 
REMARK       I    between atoms: C8_8  and  C9_9 
REMARK       I    between atoms: C10_10  and  C11_11 
REMARK       I    between atoms: C12_16  and  C13_17 
REMARK       I    between atoms: C14_18  and  C15_19 
REMARK       I    between atoms: C16_20  and  C17_21 
REMARK       I    between atoms: C18_22  and  C19_23 
REMARK       I    between atoms: C20_24  and  C21_25 
REMARK       I    between atoms: C22_26  and  C23_27 
REMARK       I    between atoms: C24_28  and  C25_29 
ROOT
HETATM    1  C1  BCR T 101     -36.723 133.210   9.666  1.00 48.00    -0.020 C 
HETATM    2  C2  BCR T 101     -35.759 132.033   9.876  1.00 45.40     0.014 C 
HETATM    3  C3  BCR T 101     -35.735 131.046   8.739  1.00 45.70     0.005 C 
HETATM    4  C4  BCR T 101     -37.131 130.584   8.338  1.00 45.85     0.034 C 
HETATM    5  C5  BCR T 101     -38.056 131.741   8.076  1.00 47.82    -0.077 C 
HETATM    6  C6  BCR T 101     -37.881 132.939   8.704  1.00 44.72    -0.048 C 
HETATM    7  C7  BCR T 101     -38.874 134.016   8.404  1.00 42.20     0.009 C 
HETATM    8  C8  BCR T 101     -39.069 135.130   9.126  1.00 44.51     0.007 C 
HETATM    9  C9  BCR T 101     -40.103 136.126   8.748  1.00 46.58    -0.062 C 
HETATM   10  C10 BCR T 101     -40.175 137.252   9.480  1.00 43.07     0.007 C 
HETATM   11  C11 BCR T 101     -41.155 138.316   9.281  1.00 43.14     0.001 C 
HETATM   12  C33 BCR T 101     -39.178 131.478   7.104  1.00 47.62     0.044 C 
HETATM   13  C31 BCR T 101     -35.933 134.424   9.168  1.00 41.19     0.020 C 
HETATM   14  C32 BCR T 101     -37.227 133.539  11.081  1.00 53.32     0.020 C 
HETATM   15  C34 BCR T 101     -41.026 135.872   7.571  1.00 45.50     0.048 C 
HETATM   16  C12 BCR T 101     -41.197 139.320  10.172  1.00 43.45     0.007 C 
HETATM   17  C13 BCR T 101     -42.202 140.422  10.156  1.00 44.47    -0.062 C 
HETATM   18  C14 BCR T 101     -42.200 141.195  11.265  1.00 36.71     0.007 C 
HETATM   19  C15 BCR T 101     -43.124 142.278  11.636  1.00 34.79     0.001 C 
HETATM   20  C16 BCR T 101     -42.785 143.474  12.129  1.00 32.63     0.001 C 
HETATM   21  C17 BCR T 101     -43.898 144.366  12.542  1.00 31.36     0.007 C 
HETATM   22  C18 BCR T 101     -43.736 145.538  13.218  1.00 32.34    -0.062 C 
HETATM   23  C19 BCR T 101     -44.988 146.219  13.628  1.00 28.96     0.007 C 
HETATM   24  C20 BCR T 101     -45.078 147.316  14.395  1.00 27.10     0.001 C 
HETATM   25  C21 BCR T 101     -46.444 147.723  14.783  1.00 26.88     0.007 C 
HETATM   26  C22 BCR T 101     -46.666 148.786  15.602  1.00 28.28    -0.062 C 
HETATM   27  C23 BCR T 101     -48.074 149.008  15.965  1.00 26.57     0.007 C 
HETATM   28  C24 BCR T 101     -48.455 149.949  16.852  1.00 26.41     0.009 C 
HETATM   29  C25 BCR T 101     -49.905 150.060  17.215  1.00 26.91    -0.048 C 
HETATM   30  C26 BCR T 101     -50.894 150.099  16.289  1.00 25.86    -0.077 C 
HETATM   31  C27 BCR T 101     -52.369 150.177  16.641  1.00 27.15     0.034 C 
HETATM   32  C28 BCR T 101     -52.591 149.699  18.097  1.00 24.72     0.005 C 
HETATM   33  C29 BCR T 101     -51.670 150.550  18.975  1.00 28.53     0.014 C 
HETATM   34  C30 BCR T 101     -50.192 150.189  18.734  1.00 28.77    -0.020 C 
HETATM   35  C35 BCR T 101     -43.176 140.655   9.021  1.00 39.12     0.048 C 
HETATM   36  C36 BCR T 101     -42.371 146.072  13.639  1.00 30.01     0.048 C 
HETATM   37  C37 BCR T 101     -45.564 149.684  16.178  1.00 26.82     0.048 C 
HETATM   38  C38 BCR T 101     -50.645 150.018  14.822  1.00 26.07     0.044 C 
HETATM   39  C39 BCR T 101     -49.863 148.883  19.468  1.00 27.86     0.020 C 
HETATM   40  C40 BCR T 101     -49.347 151.350  19.296  1.00 24.32     0.020 C 
ENDROOT
TORSDOF 10
