REMARK VINA RESULT:   -10.328      1.828      2.415
REMARK INTER + INTRA:         -12.804
REMARK INTER:                 -12.747
REMARK INTRA:                  -0.057
REMARK UNBOUND:                -2.477
REMARK  0 active torsions:
REMARK  status: ('A' for Active; 'I' for Inactive)
REMARK       I    between atoms: C6_6  and  C7_7 
REMARK       I    between atoms: C8_8  and  C9_9 
REMARK       I    between atoms: C10_10  and  C11_11 
REMARK       I    between atoms: C12_16  and  C13_17 
REMARK       I    between atoms: C14_18  and  C15_19 
REMARK       I    between atoms: C16_20  and  C17_21 
REMARK       I    between atoms: C18_22  and  C19_23 
REMARK       I    between atoms: C20_24  and  C21_25 
REMARK       I    between atoms: C22_26  and  C23_27 
REMARK       I    between atoms: C24_28  and  C25_29 
ROOT
HETATM    1  C1  BCR A 411     -33.839 127.574   7.248  1.00 34.05    -0.020 C 
HETATM    2  C2  BCR A 411     -32.770 126.831   6.441  1.00 36.23     0.014 C 
HETATM    3  C3  BCR A 411     -32.260 127.680   5.286  1.00 33.07     0.005 C 
HETATM    4  C4  BCR A 411     -31.556 128.931   5.819  1.00 33.10     0.034 C 
HETATM    5  C5  BCR A 411     -32.427 129.642   6.865  1.00 30.69    -0.077 C 
HETATM    6  C6  BCR A 411     -33.425 129.014   7.528  1.00 30.04    -0.048 C 
HETATM    7  C7  BCR A 411     -34.237 129.754   8.554  1.00 26.76     0.009 C 
HETATM    8  C8  BCR A 411     -35.020 130.782   8.122  1.00 27.28     0.007 C 
HETATM    9  C9  BCR A 411     -35.900 131.541   9.051  1.00 28.08    -0.062 C 
HETATM   10  C10 BCR A 411     -36.605 132.598   8.543  1.00 26.21     0.007 C 
HETATM   11  C11 BCR A 411     -37.531 133.385   9.352  1.00 26.20     0.001 C 
HETATM   12  C33 BCR A 411     -32.025 131.046   7.202  1.00 31.19     0.044 C 
HETATM   13  C31 BCR A 411     -34.055 126.839   8.591  1.00 32.76     0.020 C 
HETATM   14  C32 BCR A 411     -35.142 127.526   6.452  1.00 29.01     0.020 C 
HETATM   15  C34 BCR A 411     -36.006 131.056  10.491  1.00 27.13     0.048 C 
HETATM   16  C12 BCR A 411     -38.327 134.297   8.733  1.00 25.91     0.007 C 
HETATM   17  C13 BCR A 411     -39.308 135.192   9.424  1.00 28.13    -0.062 C 
HETATM   18  C14 BCR A 411     -40.064 136.027   8.679  1.00 26.80     0.007 C 
HETATM   19  C15 BCR A 411     -41.102 136.946   9.201  1.00 23.65     0.001 C 
HETATM   20  C16 BCR A 411     -41.694 137.835   8.379  1.00 25.01     0.001 C 
HETATM   21  C17 BCR A 411     -42.782 138.637   8.960  1.00 24.87     0.007 C 
HETATM   22  C18 BCR A 411     -43.598 139.491   8.292  1.00 26.74    -0.062 C 
HETATM   23  C19 BCR A 411     -44.675 140.207   9.045  1.00 22.57     0.007 C 
HETATM   24  C20 BCR A 411     -45.265 141.299   8.606  1.00 21.95     0.001 C 
HETATM   25  C21 BCR A 411     -46.312 141.945   9.408  1.00 26.44     0.007 C 
HETATM   26  C22 BCR A 411     -46.801 143.175   9.153  1.00 26.69    -0.062 C 
HETATM   27  C23 BCR A 411     -47.852 143.711  10.061  1.00 22.74     0.007 C 
HETATM   28  C24 BCR A 411     -48.281 144.992   9.984  1.00 21.39     0.009 C 
HETATM   29  C25 BCR A 411     -49.295 145.542  10.912  1.00 21.80    -0.048 C 
HETATM   30  C26 BCR A 411     -50.504 144.914  11.028  1.00 24.09    -0.077 C 
HETATM   31  C27 BCR A 411     -51.653 145.318  11.960  1.00 21.42     0.034 C 
HETATM   32  C28 BCR A 411     -51.124 146.311  13.011  1.00 25.08     0.005 C 
HETATM   33  C29 BCR A 411     -50.203 147.372  12.342  1.00 24.49     0.014 C 
HETATM   34  C30 BCR A 411     -48.925 146.809  11.689  1.00 24.42    -0.020 C 
HETATM   35  C35 BCR A 411     -39.450 135.217  10.939  1.00 27.87     0.048 C 
HETATM   36  C36 BCR A 411     -43.415 139.796   6.834  1.00 23.84     0.048 C 
HETATM   37  C37 BCR A 411     -46.276 144.036   8.003  1.00 27.51     0.048 C 
HETATM   38  C38 BCR A 411     -50.887 143.708  10.220  1.00 22.20     0.044 C 
HETATM   39  C39 BCR A 411     -47.780 146.509  12.697  1.00 24.11     0.020 C 
HETATM   40  C40 BCR A 411     -48.409 147.876  10.723  1.00 24.62     0.020 C 
ENDROOT
TORSDOF 10
