REMARK VINA RESULT:    -6.458      1.763     16.578
REMARK INTER + INTRA:          -9.061
REMARK INTER:                  -6.226
REMARK INTRA:                  -2.835
REMARK UNBOUND:                -2.604
REMARK  0 active torsions:
REMARK  status: ('A' for Active; 'I' for Inactive)
REMARK       I    between atoms: C6_6  and  C7_7 
REMARK       I    between atoms: C8_8  and  C9_9 
REMARK       I    between atoms: C10_10  and  C11_11 
REMARK       I    between atoms: C12_16  and  C13_17 
REMARK       I    between atoms: C14_18  and  C15_19 
REMARK       I    between atoms: C16_20  and  C17_21 
REMARK       I    between atoms: C18_22  and  C19_23 
REMARK       I    between atoms: C20_24  and  C21_25 
REMARK       I    between atoms: C22_26  and  C23_27 
REMARK       I    between atoms: C24_28  and  C25_29 
ROOT
HETATM    1  C1  BCR B 618     -48.804 146.988   9.873  1.00 27.36    -0.020 C 
HETATM    2  C2  BCR B 618     -50.068 147.793  10.212  1.00 29.24     0.014 C 
HETATM    3  C3  BCR B 618     -51.235 146.885  10.606  1.00 30.20     0.005 C 
HETATM    4  C4  BCR B 618     -51.600 145.850   9.564  1.00 26.75     0.034 C 
HETATM    5  C5  BCR B 618     -50.407 145.270   8.874  1.00 26.89    -0.077 C 
HETATM    6  C6  BCR B 618     -49.139 145.793   8.983  1.00 26.00    -0.048 C 
HETATM    7  C7  BCR B 618     -48.049 145.158   8.198  1.00 23.65     0.009 C 
HETATM    8  C8  BCR B 618     -47.247 144.192   8.733  1.00 23.63     0.007 C 
HETATM    9  C9  BCR B 618     -46.157 143.581   7.944  1.00 27.01    -0.062 C 
HETATM   10  C10 BCR B 618     -45.504 142.502   8.401  1.00 25.20     0.007 C 
HETATM   11  C11 BCR B 618     -44.423 141.820   7.697  1.00 28.58     0.001 C 
HETATM   12  C33 BCR B 618     -50.675 144.123   7.930  1.00 28.44     0.044 C 
HETATM   13  C31 BCR B 618     -48.088 146.536  11.146  1.00 28.24     0.020 C 
HETATM   14  C32 BCR B 618     -47.867 148.007   9.129  1.00 26.34     0.020 C 
HETATM   15  C34 BCR B 618     -45.726 144.231   6.636  1.00 27.67     0.048 C 
HETATM   16  C12 BCR B 618     -43.820 140.846   8.434  1.00 27.69     0.007 C 
HETATM   17  C13 BCR B 618     -42.810 139.944   7.849  1.00 26.09    -0.062 C 
HETATM   18  C14 BCR B 618     -42.317 138.882   8.574  1.00 26.27     0.007 C 
HETATM   19  C15 BCR B 618     -41.386 137.882   7.974  1.00 24.53     0.001 C 
HETATM   20  C16 BCR B 618     -40.999 136.861   8.756  1.00 25.46     0.001 C 
HETATM   21  C17 BCR B 618     -40.130 135.834   8.194  1.00 26.22     0.007 C 
HETATM   22  C18 BCR B 618     -39.777 134.670   8.797  1.00 26.11    -0.062 C 
HETATM   23  C19 BCR B 618     -38.874 133.743   8.061  1.00 24.69     0.007 C 
HETATM   24  C20 BCR B 618     -38.454 132.518   8.523  1.00 23.86     0.001 C 
HETATM   25  C21 BCR B 618     -37.565 131.734   7.667  1.00 20.93     0.007 C 
HETATM   26  C22 BCR B 618     -37.251 130.418   7.863  1.00 20.93    -0.062 C 
HETATM   27  C23 BCR B 618     -36.297 129.842   6.915  1.00 23.42     0.007 C 
HETATM   28  C24 BCR B 618     -35.827 128.593   7.066  1.00 24.63     0.009 C 
HETATM   29  C25 BCR B 618     -34.792 128.017   6.148  1.00 27.79    -0.048 C 
HETATM   30  C26 BCR B 618     -34.788 128.072   4.785  1.00 29.36    -0.077 C 
HETATM   31  C27 BCR B 618     -33.670 127.443   3.923  1.00 30.45     0.034 C 
HETATM   32  C28 BCR B 618     -32.721 126.471   4.660  1.00 28.93     0.005 C 
HETATM   33  C29 BCR B 618     -32.391 127.036   6.052  1.00 28.29     0.014 C 
HETATM   34  C30 BCR B 618     -33.642 127.299   6.926  1.00 29.32    -0.020 C 
HETATM   35  C35 BCR B 618     -42.503 140.128   6.420  1.00 23.34     0.048 C 
HETATM   36  C36 BCR B 618     -40.224 134.281  10.168  1.00 27.04     0.048 C 
HETATM   37  C37 BCR B 618     -37.852 129.533   8.969  1.00 22.71     0.048 C 
HETATM   38  C38 BCR B 618     -35.818 128.778   3.958  1.00 27.49     0.044 C 
HETATM   39  C39 BCR B 618     -33.133 128.212   8.057  1.00 24.52     0.020 C 
HETATM   40  C40 BCR B 618     -34.242 126.023   7.549  1.00 27.42     0.020 C 
ENDROOT
TORSDOF 10
