REMARK VINA RESULT:    -7.520      0.000      0.000
REMARK INTER + INTRA:         -11.028
REMARK INTER:                  -7.520
REMARK INTRA:                  -3.508
REMARK UNBOUND:                -3.508
REMARK  0 active torsions:
REMARK  status: ('A' for Active; 'I' for Inactive)
REMARK       I    between atoms: C6_6  and  C7_7 
REMARK       I    between atoms: C8_8  and  C9_9 
REMARK       I    between atoms: C10_10  and  C11_11 
REMARK       I    between atoms: C12_16  and  C13_17 
REMARK       I    between atoms: C14_18  and  C15_19 
REMARK       I    between atoms: C16_20  and  C17_21 
REMARK       I    between atoms: C18_22  and  C19_23 
REMARK       I    between atoms: C20_24  and  C21_25 
REMARK       I    between atoms: C22_26  and  C23_27 
REMARK       I    between atoms: C24_28  and  C25_29 
ROOT
HETATM    1  C1  BCR D 404     -50.337 146.737   9.109  1.00 32.35    -0.020 C 
HETATM    2  C2  BCR D 404     -51.818 146.873   9.470  1.00 35.21     0.014 C 
HETATM    3  C3  BCR D 404     -52.481 145.918  10.447  1.00 30.49     0.005 C 
HETATM    4  C4  BCR D 404     -52.061 144.435  10.230  1.00 29.98     0.034 C 
HETATM    5  C5  BCR D 404     -50.715 144.254   9.582  1.00 28.73    -0.077 C 
HETATM    6  C6  BCR D 404     -49.924 145.275   9.078  1.00 29.98    -0.048 C 
HETATM    7  C7  BCR D 404     -48.622 144.935   8.443  1.00 28.21     0.009 C 
HETATM    8  C8  BCR D 404     -47.613 144.286   9.086  1.00 26.47     0.007 C 
HETATM    9  C9  BCR D 404     -46.421 143.926   8.312  1.00 27.48    -0.062 C 
HETATM   10  C10 BCR D 404     -45.522 143.133   8.896  1.00 25.45     0.007 C 
HETATM   11  C11 BCR D 404     -44.337 142.578   8.241  1.00 24.55     0.001 C 
HETATM   12  C33 BCR D 404     -50.301 142.781   9.508  1.00 26.94     0.044 C 
HETATM   13  C31 BCR D 404     -49.326 147.506   9.997  1.00 34.86     0.020 C 
HETATM   14  C32 BCR D 404     -50.321 147.421   7.758  1.00 34.02     0.020 C 
HETATM   15  C34 BCR D 404     -46.226 144.414   6.891  1.00 28.88     0.048 C 
HETATM   16  C12 BCR D 404     -43.634 141.746   9.025  1.00 25.39     0.007 C 
HETATM   17  C13 BCR D 404     -42.447 140.971   8.516  1.00 26.11    -0.062 C 
HETATM   18  C14 BCR D 404     -41.885 140.043   9.341  1.00 25.50     0.007 C 
HETATM   19  C15 BCR D 404     -40.773 139.156   8.942  1.00 25.53     0.001 C 
HETATM   20  C16 BCR D 404     -40.341 138.183   9.752  1.00 28.34     0.001 C 
HETATM   21  C17 BCR D 404     -39.325 137.218   9.311  1.00 25.13     0.007 C 
HETATM   22  C18 BCR D 404     -38.939 136.077   9.968  1.00 24.53    -0.062 C 
HETATM   23  C19 BCR D 404     -37.960 135.198   9.267  1.00 25.17     0.007 C 
HETATM   24  C20 BCR D 404     -37.452 134.096   9.844  1.00 27.12     0.001 C 
HETATM   25  C21 BCR D 404     -36.584 133.269   8.984  1.00 29.28     0.007 C 
HETATM   26  C22 BCR D 404     -35.987 132.100   9.358  1.00 33.93    -0.062 C 
HETATM   27  C23 BCR D 404     -35.211 131.343   8.334  1.00 38.17     0.007 C 
HETATM   28  C24 BCR D 404     -35.046 130.003   8.453  1.00 46.63     0.009 C 
HETATM   29  C25 BCR D 404     -34.382 129.128   7.410  1.00 52.79    -0.048 C 
HETATM   30  C26 BCR D 404     -35.016 128.958   6.234  1.00 55.25    -0.077 C 
HETATM   31  C27 BCR D 404     -34.427 128.111   5.118  1.00 57.58     0.034 C 
HETATM   32  C28 BCR D 404     -32.916 128.260   5.167  1.00 53.18     0.005 C 
HETATM   33  C29 BCR D 404     -32.518 127.619   6.468  1.00 51.54     0.014 C 
HETATM   34  C30 BCR D 404     -33.088 128.406   7.642  1.00 47.55    -0.020 C 
HETATM   35  C35 BCR D 404     -41.926 141.233   7.119  1.00 27.35     0.048 C 
HETATM   36  C36 BCR D 404     -39.469 135.626  11.314  1.00 24.12     0.048 C 
HETATM   37  C37 BCR D 404     -36.166 131.552  10.743  1.00 31.42     0.048 C 
HETATM   38  C38 BCR D 404     -36.320 129.648   5.970  1.00 57.67     0.044 C 
HETATM   39  C39 BCR D 404     -32.058 129.459   8.010  1.00 52.80     0.020 C 
HETATM   40  C40 BCR D 404     -33.434 127.415   8.728  1.00 45.94     0.020 C 
ENDROOT
TORSDOF 10
