REMARK VINA RESULT:    -9.359      0.826     16.445
REMARK INTER + INTRA:         -11.813
REMARK INTER:                  -9.006
REMARK INTRA:                  -2.807
REMARK UNBOUND:                -2.454
REMARK  0 active torsions:
REMARK  status: ('A' for Active; 'I' for Inactive)
REMARK       I    between atoms: C6_6  and  C7_7 
REMARK       I    between atoms: C8_8  and  C9_9 
REMARK       I    between atoms: C10_10  and  C11_11 
REMARK       I    between atoms: C12_16  and  C13_17 
REMARK       I    between atoms: C14_18  and  C15_19 
REMARK       I    between atoms: C16_20  and  C17_21 
REMARK       I    between atoms: C18_22  and  C19_23 
REMARK       I    between atoms: C20_24  and  C21_25 
REMARK       I    between atoms: C22_26  and  C23_27 
REMARK       I    between atoms: C24_28  and  C25_29 
ROOT
HETATM    1  C1  BCR C 514     -32.230 130.112   7.496  1.00 38.04    -0.020 C 
HETATM    2  C2  BCR C 514     -31.388 129.011   6.874  1.00 38.20     0.014 C 
HETATM    3  C3  BCR C 514     -31.991 128.482   5.586  1.00 33.25     0.005 C 
HETATM    4  C4  BCR C 514     -33.435 128.083   5.722  1.00 36.16     0.034 C 
HETATM    5  C5  BCR C 514     -34.271 128.914   6.656  1.00 38.48    -0.077 C 
HETATM    6  C6  BCR C 514     -33.721 129.832   7.475  1.00 37.46    -0.048 C 
HETATM    7  C7  BCR C 514     -34.546 130.643   8.408  1.00 42.89     0.009 C 
HETATM    8  C8  BCR C 514     -35.541 131.422   7.985  1.00 44.19     0.007 C 
HETATM    9  C9  BCR C 514     -36.324 132.248   8.927  1.00 46.71    -0.062 C 
HETATM   10  C10 BCR C 514     -37.162 133.144   8.391  1.00 41.97     0.007 C 
HETATM   11  C11 BCR C 514     -37.984 134.052   9.200  1.00 40.92     0.001 C 
HETATM   12  C33 BCR C 514     -35.742 128.618   6.637  1.00 41.56     0.044 C 
HETATM   13  C31 BCR C 514     -31.950 131.418   6.720  1.00 35.33     0.020 C 
HETATM   14  C32 BCR C 514     -31.749 130.180   8.959  1.00 38.77     0.020 C 
HETATM   15  C34 BCR C 514     -36.187 132.070  10.431  1.00 44.98     0.048 C 
HETATM   16  C12 BCR C 514     -39.045 134.644   8.639  1.00 44.53     0.007 C 
HETATM   17  C13 BCR C 514     -39.919 135.565   9.384  1.00 45.51    -0.062 C 
HETATM   18  C14 BCR C 514     -40.699 136.419   8.671  1.00 43.91     0.007 C 
HETATM   19  C15 BCR C 514     -41.635 137.398   9.258  1.00 44.35     0.001 C 
HETATM   20  C16 BCR C 514     -42.545 138.009   8.498  1.00 42.58     0.001 C 
HETATM   21  C17 BCR C 514     -43.498 138.984   9.034  1.00 41.40     0.007 C 
HETATM   22  C18 BCR C 514     -44.155 139.971   8.364  1.00 40.94    -0.062 C 
HETATM   23  C19 BCR C 514     -45.058 140.845   9.167  1.00 41.16     0.007 C 
HETATM   24  C20 BCR C 514     -45.981 141.663   8.656  1.00 41.17     0.001 C 
HETATM   25  C21 BCR C 514     -46.796 142.508   9.539  1.00 43.08     0.007 C 
HETATM   26  C22 BCR C 514     -47.389 143.678   9.160  1.00 46.47    -0.062 C 
HETATM   27  C23 BCR C 514     -48.181 144.363  10.223  1.00 43.42     0.007 C 
HETATM   28  C24 BCR C 514     -49.045 145.374  10.018  1.00 46.58     0.009 C 
HETATM   29  C25 BCR C 514     -49.850 146.020  11.110  1.00 45.04    -0.048 C 
HETATM   30  C26 BCR C 514     -50.975 145.417  11.594  1.00 43.97    -0.077 C 
HETATM   31  C27 BCR C 514     -51.876 146.007  12.692  1.00 42.37     0.034 C 
HETATM   32  C28 BCR C 514     -51.204 147.168  13.428  1.00 45.24     0.005 C 
HETATM   33  C29 BCR C 514     -50.413 148.091  12.502  1.00 45.27     0.014 C 
HETATM   34  C30 BCR C 514     -49.393 147.386  11.607  1.00 46.36    -0.020 C 
HETATM   35  C35 BCR C 514     -39.931 135.486  10.893  1.00 43.98     0.048 C 
HETATM   36  C36 BCR C 514     -43.976 140.273   6.888  1.00 37.85     0.048 C 
HETATM   37  C37 BCR C 514     -47.277 144.251   7.742  1.00 36.78     0.048 C 
HETATM   38  C38 BCR C 514     -51.446 144.090  11.090  1.00 35.37     0.044 C 
HETATM   39  C39 BCR C 514     -48.049 147.274  12.337  1.00 44.38     0.020 C 
HETATM   40  C40 BCR C 514     -49.221 148.266  10.369  1.00 45.05     0.020 C 
ENDROOT
TORSDOF 10
