REMARK VINA RESULT:    -7.961      0.492     16.670
REMARK INTER + INTRA:         -13.811
REMARK INTER:                  -8.088
REMARK INTRA:                  -5.723
REMARK UNBOUND:                -5.850
REMARK  0 active torsions:
REMARK  status: ('A' for Active; 'I' for Inactive)
REMARK       I    between atoms: C6_6  and  C7_7 
REMARK       I    between atoms: C8_8  and  C9_9 
REMARK       I    between atoms: C10_10  and  C11_11 
REMARK       I    between atoms: C12_16  and  C13_17 
REMARK       I    between atoms: C14_18  and  C15_19 
REMARK       I    between atoms: C16_20  and  C17_21 
REMARK       I    between atoms: C18_22  and  C19_23 
REMARK       I    between atoms: C20_24  and  C21_25 
REMARK       I    between atoms: C22_26  and  C23_27 
REMARK       I    between atoms: C24_28  and  C25_29 
ROOT
HETATM    1  C1  BCR B 619     -50.076 150.592   8.123  1.00 30.41    -0.020 C 
HETATM    2  C2  BCR B 619     -51.381 151.315   7.695  1.00 29.63     0.014 C 
HETATM    3  C3  BCR B 619     -52.185 150.396   6.754  1.00 28.10     0.005 C 
HETATM    4  C4  BCR B 619     -52.600 149.099   7.479  1.00 30.58     0.034 C 
HETATM    5  C5  BCR B 619     -51.451 148.455   8.250  1.00 27.72    -0.077 C 
HETATM    6  C6  BCR B 619     -50.291 149.143   8.534  1.00 26.65    -0.048 C 
HETATM    7  C7  BCR B 619     -49.138 148.475   9.216  1.00 26.32     0.009 C 
HETATM    8  C8  BCR B 619     -48.628 147.286   8.776  1.00 23.77     0.007 C 
HETATM    9  C9  BCR B 619     -47.467 146.621   9.413  1.00 23.42    -0.062 C 
HETATM   10  C10 BCR B 619     -47.116 145.425   8.915  1.00 22.94     0.007 C 
HETATM   11  C11 BCR B 619     -45.959 144.613   9.338  1.00 21.56     0.001 C 
HETATM   12  C33 BCR B 619     -51.679 147.003   8.623  1.00 25.32     0.044 C 
HETATM   13  C31 BCR B 619     -49.467 151.350   9.288  1.00 32.57     0.020 C 
HETATM   14  C32 BCR B 619     -49.073 150.588   6.964  1.00 28.71     0.020 C 
HETATM   15  C34 BCR B 619     -46.723 147.342  10.537  1.00 22.58     0.048 C 
HETATM   16  C12 BCR B 619     -45.628 143.515   8.608  1.00 19.70     0.007 C 
HETATM   17  C13 BCR B 619     -44.466 142.681   8.975  1.00 21.87    -0.062 C 
HETATM   18  C14 BCR B 619     -44.302 141.501   8.334  1.00 20.70     0.007 C 
HETATM   19  C15 BCR B 619     -43.250 140.502   8.582  1.00 23.20     0.001 C 
HETATM   20  C16 BCR B 619     -43.064 139.355   7.840  1.00 22.02     0.001 C 
HETATM   21  C17 BCR B 619     -41.979 138.429   8.236  1.00 23.03     0.007 C 
HETATM   22  C18 BCR B 619     -41.720 137.209   7.669  1.00 21.71    -0.062 C 
HETATM   23  C19 BCR B 619     -40.558 136.404   8.136  1.00 23.57     0.007 C 
HETATM   24  C20 BCR B 619     -40.237 135.210   7.598  1.00 26.34     0.001 C 
HETATM   25  C21 BCR B 619     -39.063 134.482   8.090  1.00 25.97     0.007 C 
HETATM   26  C22 BCR B 619     -38.784 133.170   7.897  1.00 30.95    -0.062 C 
HETATM   27  C23 BCR B 619     -37.519 132.656   8.518  1.00 33.56     0.007 C 
HETATM   28  C24 BCR B 619     -37.041 131.387   8.406  1.00 40.35     0.009 C 
HETATM   29  C25 BCR B 619     -35.759 130.823   9.021  1.00 41.63    -0.048 C 
HETATM   30  C26 BCR B 619     -35.546 130.731  10.369  1.00 40.62    -0.077 C 
HETATM   31  C27 BCR B 619     -34.262 130.170  10.938  1.00 39.37     0.034 C 
HETATM   32  C28 BCR B 619     -33.089 130.464  10.019  1.00 37.91     0.005 C 
HETATM   33  C29 BCR B 619     -33.393 129.796   8.708  1.00 42.57     0.014 C 
HETATM   34  C30 BCR B 619     -34.689 130.300   8.054  1.00 42.87    -0.020 C 
HETATM   35  C35 BCR B 619     -43.558 143.171  10.127  1.00 21.20     0.048 C 
HETATM   36  C36 BCR B 619     -42.588 136.586   6.572  1.00 21.22     0.048 C 
HETATM   37  C37 BCR B 619     -39.697 132.259   7.059  1.00 32.33     0.048 C 
HETATM   38  C38 BCR B 619     -36.522 131.241  11.402  1.00 44.08     0.044 C 
HETATM   39  C39 BCR B 619     -35.313 129.175   7.178  1.00 45.77     0.020 C 
HETATM   40  C40 BCR B 619     -34.252 131.443   7.178  1.00 41.31     0.020 C 
ENDROOT
TORSDOF 10
