REMARK VINA RESULT:   -10.543      2.130      2.892
REMARK INTER + INTRA:         -12.913
REMARK INTER:                 -10.261
REMARK INTRA:                  -2.652
REMARK UNBOUND:                -2.370
REMARK  0 active torsions:
REMARK  status: ('A' for Active; 'I' for Inactive)
REMARK       I    between atoms: C6_6  and  C7_7 
REMARK       I    between atoms: C8_8  and  C9_9 
REMARK       I    between atoms: C10_10  and  C11_11 
REMARK       I    between atoms: C12_16  and  C13_17 
REMARK       I    between atoms: C14_18  and  C15_19 
REMARK       I    between atoms: C16_20  and  C17_21 
REMARK       I    between atoms: C18_22  and  C19_23 
REMARK       I    between atoms: C20_24  and  C21_25 
REMARK       I    between atoms: C22_26  and  C23_27 
REMARK       I    between atoms: C24_28  and  C25_29 
ROOT
HETATM    1  C1  BCR B 620     -45.871 148.849  10.420  1.00 39.28    -0.020 C 
HETATM    2  C2  BCR B 620     -46.183 149.948  11.465  1.00 40.89     0.014 C 
HETATM    3  C3  BCR B 620     -46.268 149.466  12.907  1.00 44.35     0.005 C 
HETATM    4  C4  BCR B 620     -47.265 148.319  12.994  1.00 42.84     0.034 C 
HETATM    5  C5  BCR B 620     -47.042 147.231  11.958  1.00 41.10    -0.077 C 
HETATM    6  C6  BCR B 620     -46.404 147.459  10.781  1.00 36.33    -0.048 C 
HETATM    7  C7  BCR B 620     -46.200 146.361   9.785  1.00 36.01     0.009 C 
HETATM    8  C8  BCR B 620     -45.478 145.246  10.077  1.00 32.86     0.007 C 
HETATM    9  C9  BCR B 620     -45.212 144.188   9.059  1.00 29.92    -0.062 C 
HETATM   10  C10 BCR B 620     -44.441 143.128   9.423  1.00 29.24     0.007 C 
HETATM   11  C11 BCR B 620     -43.988 142.013   8.552  1.00 31.72     0.001 C 
HETATM   12  C33 BCR B 620     -47.579 145.879  12.342  1.00 37.40     0.044 C 
HETATM   13  C31 BCR B 620     -44.356 148.835  10.138  1.00 36.18     0.020 C 
HETATM   14  C32 BCR B 620     -46.634 149.273   9.195  1.00 36.19     0.020 C 
HETATM   15  C34 BCR B 620     -45.749 144.397   7.670  1.00 28.93     0.048 C 
HETATM   16  C12 BCR B 620     -43.207 141.086   9.133  1.00 27.46     0.007 C 
HETATM   17  C13 BCR B 620     -42.598 139.951   8.421  1.00 29.36    -0.062 C 
HETATM   18  C14 BCR B 620     -41.969 138.970   9.147  1.00 27.29     0.007 C 
HETATM   19  C15 BCR B 620     -41.249 137.843   8.502  1.00 28.74     0.001 C 
HETATM   20  C16 BCR B 620     -40.530 137.002   9.270  1.00 28.84     0.001 C 
HETATM   21  C17 BCR B 620     -39.747 135.906   8.737  1.00 29.32     0.007 C 
HETATM   22  C18 BCR B 620     -39.074 135.004   9.495  1.00 29.55    -0.062 C 
HETATM   23  C19 BCR B 620     -38.284 133.976   8.761  1.00 22.58     0.007 C 
HETATM   24  C20 BCR B 620     -37.522 133.059   9.373  1.00 23.28     0.001 C 
HETATM   25  C21 BCR B 620     -36.781 132.106   8.522  1.00 23.94     0.007 C 
HETATM   26  C22 BCR B 620     -36.029 131.049   8.902  1.00 25.90    -0.062 C 
HETATM   27  C23 BCR B 620     -35.352 130.261   7.810  1.00 28.72     0.007 C 
HETATM   28  C24 BCR B 620     -34.309 129.458   8.125  1.00 28.32     0.009 C 
HETATM   29  C25 BCR B 620     -33.622 128.677   7.064  1.00 33.05    -0.048 C 
HETATM   30  C26 BCR B 620     -32.753 129.355   6.268  1.00 37.74    -0.077 C 
HETATM   31  C27 BCR B 620     -31.988 128.696   5.134  1.00 37.67     0.034 C 
HETATM   32  C28 BCR B 620     -32.625 127.345   4.714  1.00 35.24     0.005 C 
HETATM   33  C29 BCR B 620     -32.919 126.517   5.951  1.00 34.85     0.014 C 
HETATM   34  C30 BCR B 620     -33.908 127.181   6.944  1.00 34.25    -0.020 C 
HETATM   35  C35 BCR B 620     -42.632 139.953   6.894  1.00 27.99     0.048 C 
HETATM   36  C36 BCR B 620     -39.140 135.008  11.023  1.00 31.23     0.048 C 
HETATM   37  C37 BCR B 620     -35.838 130.570  10.336  1.00 27.96     0.048 C 
HETATM   38  C38 BCR B 620     -32.546 130.842   6.515  1.00 37.19     0.044 C 
HETATM   39  C39 BCR B 620     -33.740 126.522   8.336  1.00 34.55     0.020 C 
HETATM   40  C40 BCR B 620     -35.381 126.954   6.522  1.00 30.35     0.020 C 
ENDROOT
TORSDOF 10
