REMARK VINA RESULT:   -10.421      0.000      0.000
REMARK INTER + INTRA:         -17.105
REMARK INTER:                 -10.421
REMARK INTRA:                  -6.685
REMARK UNBOUND:                -6.685
REMARK  0 active torsions:
REMARK  status: ('A' for Active; 'I' for Inactive)
REMARK       I    between atoms: C6_6  and  C7_7 
REMARK       I    between atoms: C8_8  and  C9_9 
REMARK       I    between atoms: C10_10  and  C11_11 
REMARK       I    between atoms: C12_16  and  C13_17 
REMARK       I    between atoms: C14_18  and  C15_19 
REMARK       I    between atoms: C16_20  and  C17_21 
REMARK       I    between atoms: C18_22  and  C19_23 
REMARK       I    between atoms: C20_24  and  C21_25 
REMARK       I    between atoms: C22_26  and  C23_27 
REMARK       I    between atoms: C24_28  and  C25_29 
ROOT
HETATM    1  C1  BCR C 515     -35.132 131.096   8.259  1.00 37.08    -0.020 C 
HETATM    2  C2  BCR C 515     -34.194 130.069   8.878  1.00 40.43     0.014 C 
HETATM    3  C3  BCR C 515     -33.712 130.485  10.258  1.00 40.60     0.005 C 
HETATM    4  C4  BCR C 515     -34.891 130.577  11.195  1.00 41.76     0.034 C 
HETATM    5  C5  BCR C 515     -36.005 131.405  10.595  1.00 44.35    -0.077 C 
HETATM    6  C6  BCR C 515     -36.117 131.636   9.253  1.00 38.34    -0.048 C 
HETATM    7  C7  BCR C 515     -37.276 132.442   8.777  1.00 39.43     0.009 C 
HETATM    8  C8  BCR C 515     -37.494 133.690   9.213  1.00 35.24     0.007 C 
HETATM    9  C9  BCR C 515     -38.685 134.399   8.705  1.00 37.97    -0.062 C 
HETATM   10  C10 BCR C 515     -38.984 135.618   9.224  1.00 36.80     0.007 C 
HETATM   11  C11 BCR C 515     -40.108 136.497   8.872  1.00 32.61     0.001 C 
HETATM   12  C33 BCR C 515     -37.027 131.944  11.572  1.00 42.05     0.044 C 
HETATM   13  C31 BCR C 515     -35.820 130.344   7.147  1.00 31.99     0.020 C 
HETATM   14  C32 BCR C 515     -34.329 132.296   7.691  1.00 38.11     0.020 C 
HETATM   15  C34 BCR C 515     -39.552 133.709   7.672  1.00 32.75     0.048 C 
HETATM   16  C12 BCR C 515     -40.191 137.704   9.487  1.00 33.17     0.007 C 
HETATM   17  C13 BCR C 515     -41.305 138.638   9.177  1.00 34.98    -0.062 C 
HETATM   18  C14 BCR C 515     -41.232 139.943   9.536  1.00 34.48     0.007 C 
HETATM   19  C15 BCR C 515     -42.286 140.938   9.301  1.00 37.70     0.001 C 
HETATM   20  C16 BCR C 515     -42.153 142.214   9.681  1.00 34.86     0.001 C 
HETATM   21  C17 BCR C 515     -43.240 143.165   9.429  1.00 31.74     0.007 C 
HETATM   22  C18 BCR C 515     -43.210 144.524   9.617  1.00 36.05    -0.062 C 
HETATM   23  C19 BCR C 515     -44.465 145.272   9.355  1.00 34.77     0.007 C 
HETATM   24  C20 BCR C 515     -44.652 146.560   9.674  1.00 37.78     0.001 C 
HETATM   25  C21 BCR C 515     -45.963 147.180   9.439  1.00 37.22     0.007 C 
HETATM   26  C22 BCR C 515     -46.298 148.459   9.715  1.00 37.09    -0.062 C 
HETATM   27  C23 BCR C 515     -47.695 148.828   9.464  1.00 34.50     0.007 C 
HETATM   28  C24 BCR C 515     -48.263 149.928   9.965  1.00 34.78     0.009 C 
HETATM   29  C25 BCR C 515     -49.710 150.202   9.734  1.00 32.41    -0.048 C 
HETATM   30  C26 BCR C 515     -50.275 150.364   8.503  1.00 31.92    -0.077 C 
HETATM   31  C27 BCR C 515     -51.755 150.655   8.359  1.00 30.54     0.034 C 
HETATM   32  C28 BCR C 515     -52.551 150.262   9.601  1.00 33.89     0.005 C 
HETATM   33  C29 BCR C 515     -51.910 150.821  10.859  1.00 28.08     0.014 C 
HETATM   34  C30 BCR C 515     -50.511 150.237  11.029  1.00 34.48    -0.020 C 
HETATM   35  C35 BCR C 515     -42.528 138.093   8.475  1.00 35.00     0.048 C 
HETATM   36  C36 BCR C 515     -41.995 145.262  10.179  1.00 34.98     0.048 C 
HETATM   37  C37 BCR C 515     -45.331 149.458  10.336  1.00 38.26     0.048 C 
HETATM   38  C38 BCR C 515     -49.470 150.366   7.211  1.00 29.97     0.044 C 
HETATM   39  C39 BCR C 515     -50.536 148.846  11.692  1.00 29.94     0.020 C 
HETATM   40  C40 BCR C 515     -49.745 151.142  11.998  1.00 31.43     0.020 C 
ENDROOT
TORSDOF 10
