REMARK VINA RESULT:    -9.540      2.782      4.686
REMARK INTER + INTRA:         -11.910
REMARK INTER:                  -5.371
REMARK INTRA:                  -6.539
REMARK UNBOUND:                -2.370
REMARK  0 active torsions:
REMARK  status: ('A' for Active; 'I' for Inactive)
REMARK       I    between atoms: C6_6  and  C7_7 
REMARK       I    between atoms: C8_8  and  C9_9 
REMARK       I    between atoms: C10_10  and  C11_11 
REMARK       I    between atoms: C12_16  and  C13_17 
REMARK       I    between atoms: C14_18  and  C15_19 
REMARK       I    between atoms: C16_20  and  C17_21 
REMARK       I    between atoms: C18_22  and  C19_23 
REMARK       I    between atoms: C20_24  and  C21_25 
REMARK       I    between atoms: C22_26  and  C23_27 
REMARK       I    between atoms: C24_28  and  C25_29 
ROOT
HETATM    1  C1  BCR B 620     -50.054 150.142  12.704  1.00 39.28    -0.020 C 
HETATM    2  C2  BCR B 620     -51.525 150.618  12.642  1.00 40.89     0.014 C 
HETATM    3  C3  BCR B 620     -52.361 150.000  11.528  1.00 44.35     0.005 C 
HETATM    4  C4  BCR B 620     -51.653 150.209  10.196  1.00 42.84     0.034 C 
HETATM    5  C5  BCR B 620     -50.188 149.807  10.209  1.00 41.10    -0.077 C 
HETATM    6  C6  BCR B 620     -49.449 149.768  11.347  1.00 36.33    -0.048 C 
HETATM    7  C7  BCR B 620     -48.007 149.364  11.321  1.00 36.01     0.009 C 
HETATM    8  C8  BCR B 620     -47.611 148.133  10.901  1.00 32.86     0.007 C 
HETATM    9  C9  BCR B 620     -46.182 147.705  10.947  1.00 29.92    -0.062 C 
HETATM   10  C10 BCR B 620     -45.879 146.440  10.550  1.00 29.24     0.007 C 
HETATM   11  C11 BCR B 620     -44.545 145.787  10.592  1.00 31.72     0.001 C 
HETATM   12  C33 BCR B 620     -49.625 149.448   8.861  1.00 37.40     0.044 C 
HETATM   13  C31 BCR B 620     -49.937 148.995  13.727  1.00 36.18     0.020 C 
HETATM   14  C32 BCR B 620     -49.291 151.350  13.172  1.00 36.19     0.020 C 
HETATM   15  C34 BCR B 620     -45.175 148.674  11.502  1.00 28.93     0.048 C 
HETATM   16  C12 BCR B 620     -44.495 144.513  10.169  1.00 27.46     0.007 C 
HETATM   17  C13 BCR B 620     -43.286 143.674  10.204  1.00 29.36    -0.062 C 
HETATM   18  C14 BCR B 620     -43.306 142.451   9.581  1.00 27.29     0.007 C 
HETATM   19  C15 BCR B 620     -42.163 141.506   9.651  1.00 28.74     0.001 C 
HETATM   20  C16 BCR B 620     -42.308 140.267   9.143  1.00 28.84     0.001 C 
HETATM   21  C17 BCR B 620     -41.277 139.251   9.210  1.00 29.32     0.007 C 
HETATM   22  C18 BCR B 620     -41.373 138.021   8.643  1.00 29.55    -0.062 C 
HETATM   23  C19 BCR B 620     -40.226 137.097   8.862  1.00 22.58     0.007 C 
HETATM   24  C20 BCR B 620     -40.204 135.833   8.416  1.00 23.28     0.001 C 
HETATM   25  C21 BCR B 620     -39.007 135.021   8.715  1.00 23.94     0.007 C 
HETATM   26  C22 BCR B 620     -38.717 133.768   8.301  1.00 25.90    -0.062 C 
HETATM   27  C23 BCR B 620     -37.426 133.165   8.791  1.00 28.72     0.007 C 
HETATM   28  C24 BCR B 620     -37.261 131.822   8.737  1.00 28.32     0.009 C 
HETATM   29  C25 BCR B 620     -36.000 131.206   9.222  1.00 33.05    -0.048 C 
HETATM   30  C26 BCR B 620     -35.852 131.087  10.569  1.00 37.74    -0.077 C 
HETATM   31  C27 BCR B 620     -34.614 130.490  11.212  1.00 37.67     0.034 C 
HETATM   32  C28 BCR B 620     -33.409 130.462  10.235  1.00 35.24     0.005 C 
HETATM   33  C29 BCR B 620     -33.855 129.904   8.896  1.00 34.85     0.014 C 
HETATM   34  C30 BCR B 620     -34.969 130.728   8.200  1.00 34.25    -0.020 C 
HETATM   35  C35 BCR B 620     -42.081 144.175  10.998  1.00 27.99     0.048 C 
HETATM   36  C36 BCR B 620     -42.574 137.604   7.794  1.00 31.23     0.048 C 
HETATM   37  C37 BCR B 620     -39.568 132.931   7.354  1.00 27.96     0.048 C 
HETATM   38  C38 BCR B 620     -36.971 131.584  11.471  1.00 37.19     0.044 C 
HETATM   39  C39 BCR B 620     -35.676 129.833   7.152  1.00 34.55     0.020 C 
HETATM   40  C40 BCR B 620     -34.387 131.938   7.427  1.00 30.35     0.020 C 
ENDROOT
TORSDOF 10
