REMARK VINA RESULT:    -8.269      2.815     16.338
REMARK INTER + INTRA:         -10.873
REMARK INTER:                  -7.506
REMARK INTRA:                  -3.367
REMARK UNBOUND:                -2.604
REMARK  0 active torsions:
REMARK  status: ('A' for Active; 'I' for Inactive)
REMARK       I    between atoms: C6_6  and  C7_7 
REMARK       I    between atoms: C8_8  and  C9_9 
REMARK       I    between atoms: C10_10  and  C11_11 
REMARK       I    between atoms: C12_16  and  C13_17 
REMARK       I    between atoms: C14_18  and  C15_19 
REMARK       I    between atoms: C16_20  and  C17_21 
REMARK       I    between atoms: C18_22  and  C19_23 
REMARK       I    between atoms: C20_24  and  C21_25 
REMARK       I    between atoms: C22_26  and  C23_27 
REMARK       I    between atoms: C24_28  and  C25_29 
ROOT
HETATM    1  C1  BCR B 618     -46.010 150.085  11.747  1.00 27.36    -0.020 C 
HETATM    2  C2  BCR B 618     -46.846 151.350  11.496  1.00 29.24     0.014 C 
HETATM    3  C3  BCR B 618     -47.488 151.344  10.107  1.00 30.20     0.005 C 
HETATM    4  C4  BCR B 618     -46.505 151.194   8.966  1.00 26.75     0.034 C 
HETATM    5  C5  BCR B 618     -45.392 150.244   9.274  1.00 26.89    -0.077 C 
HETATM    6  C6  BCR B 618     -45.140 149.756  10.536  1.00 26.00    -0.048 C 
HETATM    7  C7  BCR B 618     -43.966 148.865  10.720  1.00 23.65     0.009 C 
HETATM    8  C8  BCR B 618     -44.080 147.506  10.670  1.00 23.63     0.007 C 
HETATM    9  C9  BCR B 618     -42.906 146.632  10.871  1.00 27.01    -0.062 C 
HETATM   10  C10 BCR B 618     -42.982 145.315  10.626  1.00 25.20     0.007 C 
HETATM   11  C11 BCR B 618     -41.881 144.371  10.783  1.00 28.58     0.001 C 
HETATM   12  C33 BCR B 618     -44.456 149.922   8.135  1.00 28.44     0.044 C 
HETATM   13  C31 BCR B 618     -46.908 148.903  12.111  1.00 28.24     0.020 C 
HETATM   14  C32 BCR B 618     -45.132 150.429  13.003  1.00 26.34     0.020 C 
HETATM   15  C34 BCR B 618     -41.621 147.226  11.433  1.00 27.67     0.048 C 
HETATM   16  C12 BCR B 618     -42.249 143.070  10.620  1.00 27.69     0.007 C 
HETATM   17  C13 BCR B 618     -41.256 141.980  10.591  1.00 26.09    -0.062 C 
HETATM   18  C14 BCR B 618     -41.638 140.693  10.287  1.00 26.27     0.007 C 
HETATM   19  C15 BCR B 618     -40.644 139.591  10.131  1.00 24.53     0.001 C 
HETATM   20  C16 BCR B 618     -41.120 138.381   9.792  1.00 25.46     0.001 C 
HETATM   21  C17 BCR B 618     -40.179 137.288   9.580  1.00 26.22     0.007 C 
HETATM   22  C18 BCR B 618     -40.481 136.059   9.089  1.00 26.11    -0.062 C 
HETATM   23  C19 BCR B 618     -39.378 135.069   8.946  1.00 24.69     0.007 C 
HETATM   24  C20 BCR B 618     -39.519 133.800   8.437  1.00 23.86     0.001 C 
HETATM   25  C21 BCR B 618     -38.327 132.956   8.367  1.00 20.93     0.007 C 
HETATM   26  C22 BCR B 618     -38.242 131.777   7.681  1.00 20.93    -0.062 C 
HETATM   27  C23 BCR B 618     -36.967 131.067   7.789  1.00 23.42     0.007 C 
HETATM   28  C24 BCR B 618     -36.797 129.848   7.251  1.00 24.63     0.009 C 
HETATM   29  C25 BCR B 618     -35.524 129.076   7.420  1.00 27.79    -0.048 C 
HETATM   30  C26 BCR B 618     -34.255 129.548   7.257  1.00 29.36    -0.077 C 
HETATM   31  C27 BCR B 618     -33.000 128.667   7.454  1.00 30.45     0.034 C 
HETATM   32  C28 BCR B 618     -33.255 127.144   7.531  1.00 28.93     0.005 C 
HETATM   33  C29 BCR B 618     -34.517 126.878   8.367  1.00 28.29     0.014 C 
HETATM   34  C30 BCR B 618     -35.782 127.586   7.821  1.00 29.32    -0.020 C 
HETATM   35  C35 BCR B 618     -39.840 142.368  10.718  1.00 23.34     0.048 C 
HETATM   36  C36 BCR B 618     -41.863 135.637   8.711  1.00 27.04     0.048 C 
HETATM   37  C37 BCR B 618     -39.365 131.194   6.805  1.00 22.71     0.048 C 
HETATM   38  C38 BCR B 618     -33.911 130.966   6.923  1.00 27.49     0.044 C 
HETATM   39  C39 BCR B 618     -36.785 127.530   8.989  1.00 24.52     0.020 C 
HETATM   40  C40 BCR B 618     -36.405 126.887   6.597  1.00 27.42     0.020 C 
ENDROOT
TORSDOF 10
