REMARK VINA RESULT:    -8.394      2.631     16.777
REMARK INTER + INTRA:         -14.244
REMARK INTER:                 -10.706
REMARK INTRA:                  -3.538
REMARK UNBOUND:                -5.850
REMARK  0 active torsions:
REMARK  status: ('A' for Active; 'I' for Inactive)
REMARK       I    between atoms: C6_6  and  C7_7 
REMARK       I    between atoms: C8_8  and  C9_9 
REMARK       I    between atoms: C10_10  and  C11_11 
REMARK       I    between atoms: C12_16  and  C13_17 
REMARK       I    between atoms: C14_18  and  C15_19 
REMARK       I    between atoms: C16_20  and  C17_21 
REMARK       I    between atoms: C18_22  and  C19_23 
REMARK       I    between atoms: C20_24  and  C21_25 
REMARK       I    between atoms: C22_26  and  C23_27 
REMARK       I    between atoms: C24_28  and  C25_29 
ROOT
HETATM    1  C1  BCR B 619     -47.031 147.782  12.306  1.00 30.41    -0.020 C 
HETATM    2  C2  BCR B 619     -47.713 148.720  13.335  1.00 29.63     0.014 C 
HETATM    3  C3  BCR B 619     -47.594 148.104  14.742  1.00 28.10     0.005 C 
HETATM    4  C4  BCR B 619     -46.114 147.972  15.158  1.00 30.58     0.034 C 
HETATM    5  C5  BCR B 619     -45.242 147.362  14.064  1.00 27.72    -0.077 C 
HETATM    6  C6  BCR B 619     -45.673 147.268  12.759  1.00 26.65    -0.048 C 
HETATM    7  C7  BCR B 619     -44.843 146.591  11.713  1.00 26.32     0.009 C 
HETATM    8  C8  BCR B 619     -44.323 145.341  11.900  1.00 23.77     0.007 C 
HETATM    9  C9  BCR B 619     -43.527 144.636  10.867  1.00 23.42    -0.062 C 
HETATM   10  C10 BCR B 619     -43.025 143.440  11.214  1.00 22.94     0.007 C 
HETATM   11  C11 BCR B 619     -42.265 142.530  10.336  1.00 21.56     0.001 C 
HETATM   12  C33 BCR B 619     -43.905 146.833  14.547  1.00 25.32     0.044 C 
HETATM   13  C31 BCR B 619     -46.862 148.540  11.002  1.00 32.57     0.020 C 
HETATM   14  C32 BCR B 619     -47.913 146.554  12.047  1.00 28.71     0.020 C 
HETATM   15  C34 BCR B 619     -43.373 145.271   9.486  1.00 22.58     0.048 C 
HETATM   16  C12 BCR B 619     -41.989 141.274  10.778  1.00 19.70     0.007 C 
HETATM   17  C13 BCR B 619     -41.251 140.316   9.930  1.00 21.87    -0.062 C 
HETATM   18  C14 BCR B 619     -40.837 139.157  10.492  1.00 20.70     0.007 C 
HETATM   19  C15 BCR B 619     -40.048 138.096   9.846  1.00 23.20     0.001 C 
HETATM   20  C16 BCR B 619     -39.729 136.887  10.427  1.00 22.02     0.001 C 
HETATM   21  C17 BCR B 619     -38.898 135.934   9.658  1.00 23.03     0.007 C 
HETATM   22  C18 BCR B 619     -38.415 134.738  10.120  1.00 21.71    -0.062 C 
HETATM   23  C19 BCR B 619     -37.631 133.854   9.216  1.00 23.57     0.007 C 
HETATM   24  C20 BCR B 619     -37.154 132.654   9.605  1.00 26.34     0.001 C 
HETATM   25  C21 BCR B 619     -36.411 131.822   8.652  1.00 25.97     0.007 C 
HETATM   26  C22 BCR B 619     -35.611 130.770   8.949  1.00 30.95    -0.062 C 
HETATM   27  C23 BCR B 619     -34.947 130.086   7.790  1.00 33.56     0.007 C 
HETATM   28  C24 BCR B 619     -34.144 128.991   7.872  1.00 40.35     0.009 C 
HETATM   29  C25 BCR B 619     -33.449 128.265   6.719  1.00 41.63    -0.048 C 
HETATM   30  C26 BCR B 619     -32.495 128.843   5.929  1.00 40.62    -0.077 C 
HETATM   31  C27 BCR B 619     -31.833 128.092   4.795  1.00 39.37     0.034 C 
HETATM   32  C28 BCR B 619     -32.789 127.081   4.186  1.00 37.91     0.005 C 
HETATM   33  C29 BCR B 619     -33.153 126.120   5.282  1.00 42.57     0.014 C 
HETATM   34  C30 BCR B 619     -33.830 126.797   6.485  1.00 42.87    -0.020 C 
HETATM   35  C35 BCR B 619     -40.927 140.735   8.478  1.00 21.20     0.048 C 
HETATM   36  C36 BCR B 619     -38.610 134.247  11.557  1.00 21.22     0.048 C 
HETATM   37  C37 BCR B 619     -35.416 130.278  10.393  1.00 32.33     0.048 C 
HETATM   38  C38 BCR B 619     -32.070 130.286   6.059  1.00 44.08     0.044 C 
HETATM   39  C39 BCR B 619     -33.534 125.990   7.783  1.00 45.77     0.020 C 
HETATM   40  C40 BCR B 619     -35.301 126.739   6.175  1.00 41.31     0.020 C 
ENDROOT
TORSDOF 10
