REMARK VINA RESULT:    -9.238      0.000      0.000
REMARK INTER + INTRA:         -13.192
REMARK INTER:                  -9.238
REMARK INTRA:                  -3.953
REMARK UNBOUND:                -3.953
REMARK  0 active torsions:
REMARK  status: ('A' for Active; 'I' for Inactive)
REMARK       I    between atoms: C6_6  and  C7_7 
REMARK       I    between atoms: C8_8  and  C9_9 
REMARK       I    between atoms: C10_10  and  C11_11 
REMARK       I    between atoms: C12_16  and  C13_17 
REMARK       I    between atoms: C14_18  and  C15_19 
REMARK       I    between atoms: C16_20  and  C17_21 
REMARK       I    between atoms: C18_22  and  C19_23 
REMARK       I    between atoms: C20_24  and  C21_25 
REMARK       I    between atoms: C22_26  and  C23_27 
REMARK       I    between atoms: C24_28  and  C25_29 
ROOT
HETATM    1  C1  BCR T 101     -33.759 128.641   6.373  1.00 48.00    -0.020 C 
HETATM    2  C2  BCR T 101     -32.510 127.814   6.036  1.00 45.40     0.014 C 
HETATM    3  C3  BCR T 101     -32.735 126.325   6.050  1.00 45.70     0.005 C 
HETATM    4  C4  BCR T 101     -33.414 125.850   7.330  1.00 45.85     0.034 C 
HETATM    5  C5  BCR T 101     -34.670 126.624   7.625  1.00 47.82    -0.077 C 
HETATM    6  C6  BCR T 101     -34.817 127.914   7.205  1.00 44.72    -0.048 C 
HETATM    7  C7  BCR T 101     -36.086 128.609   7.578  1.00 42.20     0.009 C 
HETATM    8  C8  BCR T 101     -36.297 129.935   7.542  1.00 44.51     0.007 C 
HETATM    9  C9  BCR T 101     -37.595 130.523   7.959  1.00 46.58    -0.062 C 
HETATM   10  C10 BCR T 101     -37.748 131.852   7.814  1.00 43.07     0.007 C 
HETATM   11  C11 BCR T 101     -38.934 132.603   8.211  1.00 43.14     0.001 C 
HETATM   12  C33 BCR T 101     -35.722 125.893   8.419  1.00 47.62     0.044 C 
HETATM   13  C31 BCR T 101     -34.399 129.137   5.073  1.00 41.19     0.020 C 
HETATM   14  C32 BCR T 101     -33.206 129.871   7.111  1.00 53.32     0.020 C 
HETATM   15  C34 BCR T 101     -38.699 129.643   8.514  1.00 45.50     0.048 C 
HETATM   16  C12 BCR T 101     -38.897 133.944   8.132  1.00 43.45     0.007 C 
HETATM   17  C13 BCR T 101     -39.990 134.849   8.591  1.00 44.47    -0.062 C 
HETATM   18  C14 BCR T 101     -39.654 136.156   8.626  1.00 36.71     0.007 C 
HETATM   19  C15 BCR T 101     -40.433 137.296   9.137  1.00 34.79     0.001 C 
HETATM   20  C16 BCR T 101     -40.595 138.479   8.534  1.00 32.63     0.001 C 
HETATM   21  C17 BCR T 101     -41.329 139.521   9.295  1.00 31.36     0.007 C 
HETATM   22  C18 BCR T 101     -41.435 140.824   8.910  1.00 32.34    -0.062 C 
HETATM   23  C19 BCR T 101     -42.119 141.722   9.871  1.00 28.96     0.007 C 
HETATM   24  C20 BCR T 101     -42.241 143.053   9.763  1.00 27.10     0.001 C 
HETATM   25  C21 BCR T 101     -42.843 143.744  10.922  1.00 26.88     0.007 C 
HETATM   26  C22 BCR T 101     -42.972 145.097  10.957  1.00 28.28    -0.062 C 
HETATM   27  C23 BCR T 101     -43.509 145.638  12.216  1.00 26.57     0.007 C 
HETATM   28  C24 BCR T 101     -43.600 146.961  12.458  1.00 26.41     0.009 C 
HETATM   29  C25 BCR T 101     -44.095 147.424  13.794  1.00 26.91    -0.048 C 
HETATM   30  C26 BCR T 101     -45.220 146.933  14.371  1.00 25.86    -0.077 C 
HETATM   31  C27 BCR T 101     -45.717 147.366  15.739  1.00 27.15     0.034 C 
HETATM   32  C28 BCR T 101     -44.557 147.997  16.547  1.00 24.72     0.005 C 
HETATM   33  C29 BCR T 101     -43.989 149.123  15.678  1.00 28.53     0.014 C 
HETATM   34  C30 BCR T 101     -43.258 148.553  14.449  1.00 28.77    -0.020 C 
HETATM   35  C35 BCR T 101     -41.359 134.362   9.018  1.00 39.12     0.048 C 
HETATM   36  C36 BCR T 101     -40.796 141.369   7.637  1.00 30.01     0.048 C 
HETATM   37  C37 BCR T 101     -42.552 146.041   9.823  1.00 26.82     0.048 C 
HETATM   38  C38 BCR T 101     -46.065 145.878  13.746  1.00 26.07     0.044 C 
HETATM   39  C39 BCR T 101     -41.877 148.038  14.873  1.00 27.86     0.020 C 
HETATM   40  C40 BCR T 101     -43.114 149.707  13.436  1.00 24.32     0.020 C 
ENDROOT
TORSDOF 10
