REMARK VINA RESULT:   -11.620      0.000      0.000
REMARK INTER + INTRA:         -14.096
REMARK INTER:                 -11.620
REMARK INTRA:                  -2.477
REMARK UNBOUND:                -2.477
REMARK  0 active torsions:
REMARK  status: ('A' for Active; 'I' for Inactive)
REMARK       I    between atoms: C6_6  and  C7_7 
REMARK       I    between atoms: C8_8  and  C9_9 
REMARK       I    between atoms: C10_10  and  C11_11 
REMARK       I    between atoms: C12_16  and  C13_17 
REMARK       I    between atoms: C14_18  and  C15_19 
REMARK       I    between atoms: C16_20  and  C17_21 
REMARK       I    between atoms: C18_22  and  C19_23 
REMARK       I    between atoms: C20_24  and  C21_25 
REMARK       I    between atoms: C22_26  and  C23_27 
REMARK       I    between atoms: C24_28  and  C25_29 
ROOT
HETATM    1  C1  BCR A 411     -34.071 126.705   6.690  1.00 34.05    -0.020 C 
HETATM    2  C2  BCR A 411     -33.244 125.865   5.712  1.00 36.23     0.014 C 
HETATM    3  C3  BCR A 411     -32.777 126.696   4.526  1.00 33.07     0.005 C 
HETATM    4  C4  BCR A 411     -31.830 127.803   4.997  1.00 33.10     0.034 C 
HETATM    5  C5  BCR A 411     -32.434 128.571   6.182  1.00 30.69    -0.077 C 
HETATM    6  C6  BCR A 411     -33.414 128.054   6.959  1.00 30.04    -0.048 C 
HETATM    7  C7  BCR A 411     -33.959 128.843   8.116  1.00 26.76     0.009 C 
HETATM    8  C8  BCR A 411     -34.633 129.993   7.838  1.00 27.28     0.007 C 
HETATM    9  C9  BCR A 411     -35.255 130.817   8.909  1.00 28.08    -0.062 C 
HETATM   10  C10 BCR A 411     -35.860 131.990   8.545  1.00 26.21     0.007 C 
HETATM   11  C11 BCR A 411     -36.540 132.853   9.506  1.00 26.20     0.001 C 
HETATM   12  C33 BCR A 411     -31.787 129.882   6.506  1.00 31.19     0.044 C 
HETATM   13  C31 BCR A 411     -34.206 125.934   8.024  1.00 32.76     0.020 C 
HETATM   14  C32 BCR A 411     -35.463 126.886   6.088  1.00 29.01     0.020 C 
HETATM   15  C34 BCR A 411     -35.234 130.272  10.331  1.00 27.13     0.048 C 
HETATM   16  C12 BCR A 411     -37.269 133.901   9.041  1.00 25.91     0.007 C 
HETATM   17  C13 BCR A 411     -38.003 134.886   9.896  1.00 28.13    -0.062 C 
HETATM   18  C14 BCR A 411     -38.722 135.859   9.297  1.00 26.80     0.007 C 
HETATM   19  C15 BCR A 411     -39.532 136.886   9.995  1.00 23.65     0.001 C 
HETATM   20  C16 BCR A 411     -40.092 137.894   9.299  1.00 25.01     0.001 C 
HETATM   21  C17 BCR A 411     -40.960 138.808  10.058  1.00 24.87     0.007 C 
HETATM   22  C18 BCR A 411     -41.724 139.804   9.544  1.00 26.74    -0.062 C 
HETATM   23  C19 BCR A 411     -42.571 140.623  10.470  1.00 22.57     0.007 C 
HETATM   24  C20 BCR A 411     -43.047 141.810  10.158  1.00 21.95     0.001 C 
HETATM   25  C21 BCR A 411     -43.867 142.552  11.125  1.00 26.44     0.007 C 
HETATM   26  C22 BCR A 411     -44.200 143.851  10.986  1.00 26.69    -0.062 C 
HETATM   27  C23 BCR A 411     -45.025 144.478  12.054  1.00 22.74     0.007 C 
HETATM   28  C24 BCR A 411     -45.267 145.809  12.085  1.00 21.39     0.009 C 
HETATM   29  C25 BCR A 411     -46.051 146.444  13.167  1.00 21.80    -0.048 C 
HETATM   30  C26 BCR A 411     -47.313 145.988  13.433  1.00 24.09    -0.077 C 
HETATM   31  C27 BCR A 411     -48.251 146.498  14.534  1.00 21.42     0.034 C 
HETATM   32  C28 BCR A 411     -47.442 147.346  15.534  1.00 25.08     0.005 C 
HETATM   33  C29 BCR A 411     -46.474 148.302  14.777  1.00 24.49     0.014 C 
HETATM   34  C30 BCR A 411     -45.395 147.602  13.927  1.00 24.42    -0.020 C 
HETATM   35  C35 BCR A 411     -37.931 134.847  11.416  1.00 27.87     0.048 C 
HETATM   36  C36 BCR A 411     -41.700 140.162   8.087  1.00 23.84     0.048 C 
HETATM   37  C37 BCR A 411     -43.715 144.691   9.804  1.00 27.51     0.048 C 
HETATM   38  C38 BCR A 411     -47.976 144.896  12.647  1.00 22.20     0.044 C 
HETATM   39  C39 BCR A 411     -44.180 147.087  14.749  1.00 24.11     0.020 C 
HETATM   40  C40 BCR A 411     -44.864 148.637  12.936  1.00 24.62     0.020 C 
ENDROOT
TORSDOF 10
