REMARK VINA RESULT:    -9.810      1.559     16.546
REMARK INTER + INTRA:         -12.540
REMARK INTER:                  -9.456
REMARK INTRA:                  -3.084
REMARK UNBOUND:                -2.730
REMARK  0 active torsions:
REMARK  status: ('A' for Active; 'I' for Inactive)
REMARK       I    between atoms: C3_3  and  O3_21 
REMARK       I    between atoms: C6_6  and  C7_7 
REMARK       I    between atoms: C8_8  and  C9_9 
REMARK       I    between atoms: C10_10  and  C11_11 
REMARK       I    between atoms: C12_12  and  C13_13 
REMARK       I    between atoms: C14_14  and  C15_15 
REMARK       I    between atoms: C23_25  and  O23_43 
REMARK       I    between atoms: C26_28  and  C27_29 
REMARK       I    between atoms: C28_30  and  C29_31 
REMARK       I    between atoms: C30_32  and  C31_33 
REMARK       I    between atoms: C32_34  and  C33_35 
REMARK       I    between atoms: C34_36  and  C35_37 
ROOT
HETATM    1  C1  8UH N1621     -34.472 126.895   6.184  1.00 48.43    -0.018 C 
HETATM    2  C2  8UH N1621     -34.044 126.162   4.920  1.00 44.61     0.045 C 
HETATM    3  C3  8UH N1621     -32.960 126.826   4.094  1.00 44.41     0.123 C 
HETATM    4  C4  8UH N1621     -31.884 127.401   4.983  1.00 41.53     0.066 C 
HETATM    5  C5  8UH N1621     -32.521 128.416   5.878  1.00 37.72    -0.074 C 
HETATM    6  C6  8UH N1621     -33.643 128.120   6.533  1.00 43.52    -0.048 C 
HETATM    7  C7  8UH N1621     -34.128 128.950   7.660  1.00 44.60     0.009 C 
HETATM    8  C8  8UH N1621     -34.812 130.071   7.469  1.00 43.22     0.007 C 
HETATM    9  C9  8UH N1621     -35.317 130.848   8.601  1.00 45.04    -0.062 C 
HETATM   10  C10 8UH N1621     -36.177 131.806   8.284  1.00 43.71     0.007 C 
HETATM   11  C11 8UH N1621     -36.852 132.666   9.227  1.00 42.87     0.001 C 
HETATM   12  C12 8UH N1621     -37.744 133.435   8.637  1.00 44.70     0.007 C 
HETATM   13  C13 8UH N1621     -38.622 134.347   9.365  1.00 42.63    -0.062 C 
HETATM   14  C14 8UH N1621     -39.519 135.022   8.644  1.00 42.62     0.007 C 
HETATM   15  C15 8UH N1621     -40.464 135.918   9.273  1.00 44.33     0.001 C 
HETATM   16  C16 8UH N1621     -34.459 125.850   7.295  1.00 47.48     0.020 C 
HETATM   17  C17 8UH N1621     -35.883 127.424   6.005  1.00 54.25     0.020 C 
HETATM   18  C18 8UH N1621     -31.539 129.419   6.384  1.00 37.77     0.044 C 
HETATM   19  C19 8UH N1621     -34.903 130.554  10.006  1.00 46.17     0.048 C 
HETATM   20  C20 8UH N1621     -38.538 134.461  10.856  1.00 40.87     0.048 C 
HETATM   21  O3  8UH N1621     -32.371 125.851   3.233  1.00 48.83    -0.395 OA
ATOM     22  H3  8UH N1621     -31.692 126.267   2.716  1.00  0.00     0.210 HD
HETATM   23  C21 8UH N1621     -50.073 143.798  11.218  1.00 66.61    -0.018 C 
HETATM   24  C22 8UH N1621     -50.814 144.067  12.524  1.00 66.61     0.045 C 
HETATM   25  C23 8UH N1621     -50.042 144.703  13.670  1.00 66.61     0.123 C 
HETATM   26  C24 8UH N1621     -48.972 145.645  13.164  1.00 66.61     0.066 C 
HETATM   27  C25 8UH N1621     -48.078 144.910  12.207  1.00 66.61    -0.074 C 
HETATM   28  C26 8UH N1621     -48.590 144.120  11.258  1.00 66.61    -0.048 C 
HETATM   29  C27 8UH N1621     -47.717 143.548  10.201  1.00 66.61     0.009 C 
HETATM   30  C28 8UH N1621     -47.067 142.396  10.381  1.00 66.61     0.007 C 
HETATM   31  C29 8UH N1621     -46.218 141.818   9.351  1.00 54.19    -0.062 C 
HETATM   32  C30 8UH N1621     -45.805 140.569   9.568  1.00 54.84     0.007 C 
HETATM   33  C31 8UH N1621     -44.958 139.823   8.661  1.00 51.40     0.001 C 
HETATM   34  C32 8UH N1621     -44.090 139.020   9.252  1.00 48.08     0.007 C 
HETATM   35  C33 8UH N1621     -43.156 138.192   8.491  1.00 45.58    -0.062 C 
HETATM   36  C34 8UH N1621     -42.277 137.451   9.165  1.00 47.58     0.007 C 
HETATM   37  C35 8UH N1621     -41.316 136.582   8.510  1.00 48.15     0.001 C 
HETATM   38  C36 8UH N1621     -50.773 144.594  10.122  1.00 66.61     0.020 C 
HETATM   39  C37 8UH N1621     -50.220 142.317  10.907  1.00 66.61     0.020 C 
HETATM   40  C38 8UH N1621     -46.660 145.399  12.174  1.00 66.61     0.044 C 
HETATM   41  C39 8UH N1621     -45.885 142.599   8.119  1.00 53.01     0.048 C 
HETATM   42  C40 8UH N1621     -43.208 138.201   7.003  1.00 46.34     0.048 C 
HETATM   43  O23 8UH N1621     -50.960 145.447  14.475  1.00 66.61    -0.395 OA
ATOM     44  H23 8UH N1621     -50.478 145.844  15.191  1.00  0.00     0.210 HD
ENDROOT
TORSDOF 12
