REMARK VINA RESULT:   -10.287      0.000      0.000
REMARK INTER + INTRA:         -11.059
REMARK INTER:                 -10.287
REMARK INTRA:                  -0.773
REMARK UNBOUND:                -0.773
REMARK  0 active torsions:
REMARK  status: ('A' for Active; 'I' for Inactive)
REMARK       I    between atoms: C3_3  and  O3_21 
REMARK       I    between atoms: C6_6  and  C7_7 
REMARK       I    between atoms: C8_8  and  C9_9 
REMARK       I    between atoms: C10_10  and  C11_11 
REMARK       I    between atoms: C12_12  and  C13_13 
REMARK       I    between atoms: C14_14  and  C15_15 
REMARK       I    between atoms: C23_25  and  O23_43 
REMARK       I    between atoms: C26_28  and  C27_29 
REMARK       I    between atoms: C28_30  and  C29_31 
REMARK       I    between atoms: C30_32  and  C31_33 
REMARK       I    between atoms: C32_34  and  C33_35 
REMARK       I    between atoms: C34_36  and  C35_37 
ROOT
HETATM    1  C1  8UH 3 621     -50.373 145.317  10.434  1.00 19.54    -0.018 C 
HETATM    2  C2  8UH 3 621     -51.288 146.011  11.440  1.00 19.54     0.045 C 
HETATM    3  C3  8UH 3 621     -50.663 146.896  12.501  1.00 19.54     0.123 C 
HETATM    4  C4  8UH 3 621     -49.614 147.779  11.871  1.00 19.54     0.066 C 
HETATM    5  C5  8UH 3 621     -48.620 146.963  11.085  1.00 19.54    -0.074 C 
HETATM    6  C6  8UH 3 621     -48.977 145.906  10.336  1.00 19.54    -0.048 C 
HETATM    7  C7  8UH 3 621     -48.025 145.314   9.349  1.00 19.54     0.009 C 
HETATM    8  C8  8UH 3 621     -47.107 144.391   9.663  1.00 19.54     0.007 C 
HETATM    9  C9  8UH 3 621     -46.165 143.796   8.693  1.00 19.54    -0.062 C 
HETATM   10  C10 8UH 3 621     -45.314 142.869   9.157  1.00 19.54     0.007 C 
HETATM   11  C11 8UH 3 621     -44.311 142.162   8.365  1.00 19.54     0.001 C 
HETATM   12  C12 8UH 3 621     -43.524 141.343   9.055  1.00 19.54     0.007 C 
HETATM   13  C13 8UH 3 621     -42.463 140.513   8.460  1.00 19.54    -0.062 C 
HETATM   14  C14 8UH 3 621     -42.052 139.451   9.168  1.00 19.54     0.007 C 
HETATM   15  C15 8UH 3 621     -41.030 138.523   8.700  1.00 19.54     0.001 C 
HETATM   16  C16 8UH 3 621     -51.115 145.361   9.103  1.00 19.54     0.020 C 
HETATM   17  C17 8UH 3 621     -50.204 143.862  10.844  1.00 19.54     0.020 C 
HETATM   18  C18 8UH 3 621     -47.354 147.718  10.827  1.00 19.54     0.044 C 
HETATM   19  C19 8UH 3 621     -46.151 144.228   7.257  1.00 19.54     0.048 C 
HETATM   20  C20 8UH 3 621     -41.866 140.842   7.125  1.00 19.54     0.048 C 
HETATM   21  O3  8UH 3 621     -51.680 147.735  13.053  1.00 19.54    -0.395 OA
ATOM     22  H3  8UH 3 621     -51.288 148.289  13.718  1.00  0.00     0.210 HD
HETATM   23  C21 8UH 3 621     -34.070 128.330   7.047  1.00 21.11    -0.018 C 
HETATM   24  C22 8UH 3 621     -33.392 127.678   5.829  1.00 20.11     0.045 C 
HETATM   25  C23 8UH 3 621     -31.972 128.084   5.440  1.00 19.41     0.123 C 
HETATM   26  C24 8UH 3 621     -31.349 129.226   6.256  1.00 18.39     0.066 C 
HETATM   27  C25 8UH 3 621     -32.138 130.005   7.255  1.00 18.34    -0.074 C 
HETATM   28  C26 8UH 3 621     -33.395 129.616   7.659  1.00 19.81    -0.048 C 
HETATM   29  C27 8UH 3 621     -34.216 130.308   8.678  1.00 19.02     0.009 C 
HETATM   30  C28 8UH 3 621     -34.963 131.405   8.452  1.00 17.97     0.007 C 
HETATM   31  C29 8UH 3 621     -35.778 132.107   9.418  1.00 19.54    -0.062 C 
HETATM   32  C30 8UH 3 621     -36.798 132.842   8.972  1.00 19.54     0.007 C 
HETATM   33  C31 8UH 3 621     -37.709 133.593   9.826  1.00 19.54     0.001 C 
HETATM   34  C32 8UH 3 621     -38.367 134.558   9.201  1.00 19.54     0.007 C 
HETATM   35  C33 8UH 3 621     -39.356 135.467   9.795  1.00 19.54    -0.062 C 
HETATM   36  C34 8UH 3 621     -39.769 136.484   9.025  1.00 19.54     0.007 C 
HETATM   37  C35 8UH 3 621     -40.760 137.460   9.456  1.00 19.54     0.001 C 
HETATM   38  C36 8UH 3 621     -34.122 127.188   8.092  1.00 19.56     0.020 C 
HETATM   39  C37 8UH 3 621     -35.515 128.634   6.600  1.00 18.49     0.020 C 
HETATM   40  C38 8UH 3 621     -31.308 131.134   7.742  1.00 16.89     0.044 C 
HETATM   41  C39 8UH 3 621     -35.485 132.004  10.877  1.00 19.54     0.048 C 
HETATM   42  C40 8UH 3 621     -39.869 135.256  11.185  1.00 19.54     0.048 C 
HETATM   43  O23 8UH 3 621     -31.119 126.954   5.447  1.00 18.27    -0.395 OA
ATOM     44  H23 8UH 3 621     -30.236 127.206   5.205  1.00  0.00     0.210 HD
ENDROOT
TORSDOF 12
