REMARK VINA RESULT:    -9.211      0.909     16.632
REMARK INTER + INTRA:         -12.244
REMARK INTER:                  -9.838
REMARK INTRA:                  -2.406
REMARK UNBOUND:                -3.033
REMARK  0 active torsions:
REMARK  status: ('A' for Active; 'I' for Inactive)
REMARK       I    between atoms: C3_3  and  O3_21 
REMARK       I    between atoms: C6_6  and  C7_7 
REMARK       I    between atoms: C8_8  and  C9_9 
REMARK       I    between atoms: C10_10  and  C11_11 
REMARK       I    between atoms: C12_12  and  C13_13 
REMARK       I    between atoms: C14_14  and  C15_15 
REMARK       I    between atoms: C23_25  and  O23_43 
REMARK       I    between atoms: C26_28  and  C27_29 
REMARK       I    between atoms: C28_30  and  C29_31 
REMARK       I    between atoms: C30_32  and  C31_33 
REMARK       I    between atoms: C32_34  and  C33_35 
REMARK       I    between atoms: C34_36  and  C35_37 
ROOT
HETATM    1  C1  8UH 1 316     -34.298 127.273   6.605  1.00 73.24    -0.018 C 
HETATM    2  C2  8UH 1 316     -33.722 126.725   5.296  1.00 72.84     0.045 C 
HETATM    3  C3  8UH 1 316     -32.571 127.506   4.675  1.00 72.53     0.123 C 
HETATM    4  C4  8UH 1 316     -31.599 127.950   5.752  1.00 72.61     0.066 C 
HETATM    5  C5  8UH 1 316     -32.329 128.798   6.759  1.00 72.68    -0.074 C 
HETATM    6  C6  8UH 1 316     -33.535 128.442   7.204  1.00 72.79    -0.048 C 
HETATM    7  C7  8UH 1 316     -34.162 129.205   8.310  1.00 71.90     0.009 C 
HETATM    8  C8  8UH 1 316     -34.834 130.332   8.058  1.00 71.51     0.007 C 
HETATM    9  C9  8UH 1 316     -35.484 131.133   9.118  1.00 70.48    -0.062 C 
HETATM   10  C10 8UH 1 316     -36.185 132.216   8.749  1.00 69.46     0.007 C 
HETATM   11  C11 8UH 1 316     -36.888 133.105   9.671  1.00 69.85     0.001 C 
HETATM   12  C12 8UH 1 316     -37.560 134.116   9.120  1.00 72.15     0.007 C 
HETATM   13  C13 8UH 1 316     -38.347 135.111   9.880  1.00 73.74    -0.062 C 
HETATM   14  C14 8UH 1 316     -39.172 135.916   9.186  1.00 74.04     0.007 C 
HETATM   15  C15 8UH 1 316     -40.024 136.924   9.814  1.00 74.62     0.001 C 
HETATM   16  C16 8UH 1 316     -34.321 126.138   7.621  1.00 72.68     0.020 C 
HETATM   17  C17 8UH 1 316     -35.724 127.739   6.339  1.00 73.05     0.020 C 
HETATM   18  C18 8UH 1 316     -31.523 129.838   7.485  1.00 72.13     0.044 C 
HETATM   19  C19 8UH 1 316     -35.354 130.748  10.562  1.00 70.45     0.048 C 
HETATM   20  C20 8UH 1 316     -38.225 135.219  11.374  1.00 72.89     0.048 C 
HETATM   21  O3  8UH 1 316     -31.882 126.671   3.734  1.00 71.04    -0.395 OA
ATOM     22  H3  8UH 1 316     -32.491 126.393   3.059  1.00  0.00     0.210 HD
HETATM   23  C21 8UH 1 316     -49.980 144.924  10.982  1.00 32.96    -0.018 C 
HETATM   24  C22 8UH 1 316     -50.645 144.413  12.259  1.00 32.96     0.045 C 
HETATM   25  C23 8UH 1 316     -49.847 144.601  13.543  1.00 32.96     0.123 C 
HETATM   26  C24 8UH 1 316     -48.887 145.763  13.403  1.00 32.96     0.066 C 
HETATM   27  C25 8UH 1 316     -47.954 145.449  12.268  1.00 32.96    -0.074 C 
HETATM   28  C26 8UH 1 316     -48.488 145.093  11.096  1.00 32.96    -0.048 C 
HETATM   29  C27 8UH 1 316     -47.662 144.608   9.981  1.00 32.96     0.009 C 
HETATM   30  C28 8UH 1 316     -46.791 143.669  10.356  1.00 32.96     0.007 C 
HETATM   31  C29 8UH 1 316     -46.013 142.897   9.364  1.00 94.72    -0.062 C 
HETATM   32  C30 8UH 1 316     -45.173 141.963   9.827  1.00 91.32     0.007 C 
HETATM   33  C31 8UH 1 316     -44.353 141.106   8.972  1.00 87.88     0.001 C 
HETATM   34  C32 8UH 1 316     -43.488 140.308   9.592  1.00 84.19     0.007 C 
HETATM   35  C33 8UH 1 316     -42.600 139.356   8.903  1.00 80.79    -0.062 C 
HETATM   36  C34 8UH 1 316     -41.734 138.638   9.641  1.00 78.84     0.007 C 
HETATM   37  C35 8UH 1 316     -40.842 137.647   9.045  1.00 76.79     0.001 C 
HETATM   38  C36 8UH 1 316     -50.521 146.313  10.664  1.00 32.96     0.020 C 
HETATM   39  C37 8UH 1 316     -50.282 143.983   9.824  1.00 32.96     0.020 C 
HETATM   40  C38 8UH 1 316     -46.512 145.848  12.453  1.00 32.96     0.044 C 
HETATM   41  C39 8UH 1 316     -46.168 143.142   7.894  1.00 95.37     0.048 C 
HETATM   42  C40 8UH 1 316     -42.686 139.180   7.416  1.00 90.13     0.048 C 
HETATM   43  O23 8UH 1 316     -50.737 144.881  14.626  1.00 32.96    -0.395 OA
ATOM     44  H23 8UH 1 316     -51.340 144.153  14.714  1.00  0.00     0.210 HD
ENDROOT
TORSDOF 12
