REMARK VINA RESULT:    -7.421      1.608     17.040
REMARK INTER + INTRA:          -8.590
REMARK INTER:                  -6.574
REMARK INTRA:                  -2.016
REMARK UNBOUND:                -1.169
REMARK  0 active torsions:
REMARK  status: ('A' for Active; 'I' for Inactive)
REMARK       I    between atoms: C3_3  and  O3_21 
REMARK       I    between atoms: C6_6  and  C7_7 
REMARK       I    between atoms: C8_8  and  C9_9 
REMARK       I    between atoms: C10_10  and  C11_11 
REMARK       I    between atoms: C12_12  and  C13_13 
REMARK       I    between atoms: C14_14  and  C15_15 
REMARK       I    between atoms: C23_25  and  O23_43 
REMARK       I    between atoms: C26_28  and  C27_29 
REMARK       I    between atoms: C28_30  and  C29_31 
REMARK       I    between atoms: C30_32  and  C31_33 
REMARK       I    between atoms: C32_34  and  C33_35 
REMARK       I    between atoms: C34_36  and  C35_37 
ROOT
HETATM    1  C1  8UH 2 615     -34.758 127.750   5.381  1.00 79.94    -0.018 C 
HETATM    2  C2  8UH 2 615     -33.493 127.298   4.653  1.00 79.60     0.045 C 
HETATM    3  C3  8UH 2 615     -32.221 128.054   5.006  1.00 80.06     0.123 C 
HETATM    4  C4  8UH 2 615     -32.068 128.125   6.513  1.00 79.91     0.066 C 
HETATM    5  C5  8UH 2 615     -33.275 128.808   7.098  1.00 78.96    -0.074 C 
HETATM    6  C6  8UH 2 615     -34.505 128.553   6.643  1.00 78.99    -0.048 C 
HETATM    7  C7  8UH 2 615     -35.669 129.069   7.401  1.00 78.77     0.009 C 
HETATM    8  C8  8UH 2 615     -36.061 130.338   7.269  1.00 79.10     0.007 C 
HETATM    9  C9  8UH 2 615     -37.215 130.876   8.015  1.00 80.39    -0.062 C 
HETATM   10  C10 8UH 2 615     -37.535 132.168   7.851  1.00 81.39     0.007 C 
HETATM   11  C11 8UH 2 615     -38.658 132.804   8.536  1.00 81.92     0.001 C 
HETATM   12  C12 8UH 2 615     -38.921 134.071   8.227  1.00 82.76     0.007 C 
HETATM   13  C13 8UH 2 615     -40.034 134.828   8.829  1.00 83.90    -0.062 C 
HETATM   14  C14 8UH 2 615     -40.414 135.968   8.233  1.00 84.98     0.007 C 
HETATM   15  C15 8UH 2 615     -41.519 136.786   8.724  1.00 86.34     0.001 C 
HETATM   16  C16 8UH 2 615     -35.561 126.507   5.741  1.00 79.93     0.020 C 
HETATM   17  C17 8UH 2 615     -35.576 128.622   4.434  1.00 80.89     0.020 C 
HETATM   18  C18 8UH 2 615     -33.068 129.398   8.462  1.00 77.35     0.044 C 
HETATM   19  C19 8UH 2 615     -38.002 129.995   8.938  1.00 80.43     0.048 C 
HETATM   20  C20 8UH 2 615     -40.720 134.335  10.069  1.00 83.80     0.048 C 
HETATM   21  O3  8UH 2 615     -31.094 127.363   4.454  1.00 80.93    -0.395 OA
ATOM     22  H3  8UH 2 615     -30.299 127.835   4.675  1.00  0.00     0.210 HD
HETATM   23  C21 8UH 2 615     -50.702 145.260   8.488  1.00 48.79    -0.018 C 
HETATM   24  C22 8UH 2 615     -51.775 145.375   9.563  1.00 49.38     0.045 C 
HETATM   25  C23 8UH 2 615     -51.857 146.695  10.328  1.00 51.85     0.123 C 
HETATM   26  C24 8UH 2 615     -50.500 147.233  10.748  1.00 54.16     0.066 C 
HETATM   27  C25 8UH 2 615     -49.346 146.852   9.862  1.00 52.93    -0.074 C 
HETATM   28  C26 8UH 2 615     -49.388 145.874   8.942  1.00 53.44    -0.048 C 
HETATM   29  C27 8UH 2 615     -48.126 145.383   8.322  1.00 56.18     0.009 C 
HETATM   30  C28 8UH 2 615     -47.515 144.271   8.737  1.00 54.04     0.007 C 
HETATM   31  C29 8UH 2 615     -46.283 143.757   8.130  1.00 89.92    -0.062 C 
HETATM   32  C30 8UH 2 615     -45.841 142.552   8.515  1.00 89.40     0.007 C 
HETATM   33  C31 8UH 2 615     -44.642 141.928   7.968  1.00 87.93     0.001 C 
HETATM   34  C32 8UH 2 615     -44.350 140.712   8.416  1.00 87.59     0.007 C 
HETATM   35  C33 8UH 2 615     -43.187 139.939   7.946  1.00 88.80    -0.062 C 
HETATM   36  C34 8UH 2 615     -42.937 138.743   8.503  1.00 88.99     0.007 C 
HETATM   37  C35 8UH 2 615     -41.820 137.908   8.070  1.00 88.02     0.001 C 
HETATM   38  C36 8UH 2 615     -51.187 145.926   7.210  1.00 50.92     0.020 C 
HETATM   39  C37 8UH 2 615     -50.500 143.779   8.183  1.00 48.05     0.020 C 
HETATM   40  C38 8UH 2 615     -48.071 147.274  10.517  1.00 55.82     0.044 C 
HETATM   41  C39 8UH 2 615     -45.544 144.555   7.096  1.00 89.99     0.048 C 
HETATM   42  C40 8UH 2 615     -42.311 140.478   6.855  1.00 89.61     0.048 C 
HETATM   43  O23 8UH 2 615     -52.582 147.693   9.598  1.00 50.70    -0.395 OA
ATOM     44  H23 8UH 2 615     -52.633 148.514  10.073  1.00  0.00     0.210 HD
ENDROOT
TORSDOF 12
