REMARK VINA RESULT:   -10.320      1.857     16.811
REMARK INTER + INTRA:         -12.185
REMARK INTER:                 -11.951
REMARK INTRA:                  -0.233
REMARK UNBOUND:                -1.864
REMARK  0 active torsions:
REMARK  status: ('A' for Active; 'I' for Inactive)
REMARK       I    between atoms: C3_3  and  O3_21 
REMARK       I    between atoms: C6_6  and  C7_7 
REMARK       I    between atoms: C8_8  and  C9_9 
REMARK       I    between atoms: C10_10  and  C11_11 
REMARK       I    between atoms: C12_12  and  C13_13 
REMARK       I    between atoms: C14_14  and  C15_15 
REMARK       I    between atoms: C23_25  and  O23_43 
REMARK       I    between atoms: C26_28  and  C27_29 
REMARK       I    between atoms: C28_30  and  C29_31 
REMARK       I    between atoms: C30_32  and  C31_33 
REMARK       I    between atoms: C32_34  and  C33_35 
REMARK       I    between atoms: C34_36  and  C35_37 
ROOT
HETATM    1  C1  8UH Y1621     -34.194 128.057   6.923  1.00 30.42    -0.018 C 
HETATM    2  C2  8UH Y1621     -33.603 127.862   5.523  1.00 30.42     0.045 C 
HETATM    3  C3  8UH Y1621     -32.313 128.608   5.205  1.00 30.42     0.123 C 
HETATM    4  C4  8UH Y1621     -31.595 129.058   6.469  1.00 30.42     0.066 C 
HETATM    5  C5  8UH Y1621     -32.579 129.869   7.259  1.00 30.42    -0.074 C 
HETATM    6  C6  8UH Y1621     -33.714 129.295   7.654  1.00 30.42    -0.048 C 
HETATM    7  C7  8UH Y1621     -34.621 129.917   8.640  1.00 30.42     0.009 C 
HETATM    8  C8  8UH Y1621     -34.708 131.250   8.694  1.00 30.42     0.007 C 
HETATM    9  C9  8UH Y1621     -35.785 131.854   9.509  1.00 30.42    -0.062 C 
HETATM   10  C10 8UH Y1621     -36.196 133.088   9.157  1.00 30.42     0.007 C 
HETATM   11  C11 8UH Y1621     -37.356 133.750   9.753  1.00 30.42     0.001 C 
HETATM   12  C12 8UH Y1621     -37.855 134.838   9.169  1.00 30.42     0.007 C 
HETATM   13  C13 8UH Y1621     -39.080 135.493   9.678  1.00 30.42    -0.062 C 
HETATM   14  C14 8UH Y1621     -39.596 136.497   8.940  1.00 30.42     0.007 C 
HETATM   15  C15 8UH Y1621     -40.815 137.233   9.288  1.00 30.42     0.001 C 
HETATM   16  C16 8UH Y1621     -33.774 126.886   7.809  1.00 30.42     0.020 C 
HETATM   17  C17 8UH Y1621     -35.709 128.041   6.803  1.00 30.42     0.020 C 
HETATM   18  C18 8UH Y1621     -31.723 130.674   8.196  1.00 30.42     0.044 C 
HETATM   19  C19 8UH Y1621     -36.436 131.051  10.614  1.00 30.42     0.048 C 
HETATM   20  C20 8UH Y1621     -39.698 134.991  10.959  1.00 30.42     0.048 C 
HETATM   21  O3  8UH Y1621     -31.493 127.698   4.477  1.00 30.42    -0.395 OA
ATOM     22  H3  8UH Y1621     -30.689 128.163   4.279  1.00  0.00     0.210 HD
HETATM   23  C21 8UH Y1621     -50.481 145.817   9.232  1.00 13.13    -0.018 C 
HETATM   24  C22 8UH Y1621     -51.597 146.504  10.005  1.00 13.13     0.045 C 
HETATM   25  C23 8UH Y1621     -51.374 146.605  11.496  1.00 13.13     0.123 C 
HETATM   26  C24 8UH Y1621     -50.026 147.223  11.766  1.00 13.13     0.066 C 
HETATM   27  C25 8UH Y1621     -48.931 146.452  11.081  1.00 13.13    -0.074 C 
HETATM   28  C26 8UH Y1621     -49.109 145.870   9.884  1.00 13.13    -0.048 C 
HETATM   29  C27 8UH Y1621     -47.967 145.305   9.109  1.00 13.13     0.009 C 
HETATM   30  C28 8UH Y1621     -47.425 144.097   9.317  1.00 13.13     0.007 C 
HETATM   31  C29 8UH Y1621     -46.309 143.585   8.505  1.00 30.42    -0.062 C 
HETATM   32  C30 8UH Y1621     -45.807 142.382   8.859  1.00 30.42     0.007 C 
HETATM   33  C31 8UH Y1621     -44.667 141.744   8.203  1.00 30.42     0.001 C 
HETATM   34  C32 8UH Y1621     -44.168 140.624   8.724  1.00 30.42     0.007 C 
HETATM   35  C33 8UH Y1621     -42.970 139.969   8.156  1.00 30.42    -0.062 C 
HETATM   36  C34 8UH Y1621     -42.458 138.934   8.856  1.00 30.42     0.007 C 
HETATM   37  C35 8UH Y1621     -41.249 138.197   8.483  1.00 30.42     0.001 C 
HETATM   38  C36 8UH Y1621     -50.467 146.486   7.868  1.00 13.13     0.020 C 
HETATM   39  C37 8UH Y1621     -50.839 144.346   9.086  1.00 13.13     0.020 C 
HETATM   40  C38 8UH Y1621     -47.579 146.691  11.678  1.00 13.13     0.044 C 
HETATM   41  C39 8UH Y1621     -45.807 144.409   7.347  1.00 30.42     0.048 C 
HETATM   42  C40 8UH Y1621     -42.362 140.509   6.888  1.00 30.42     0.048 C 
HETATM   43  O23 8UH Y1621     -52.378 147.459  12.045  1.00 13.13    -0.395 OA
ATOM     44  H23 8UH Y1621     -53.227 147.069  11.875  1.00  0.00     0.210 HD
ENDROOT
TORSDOF 12
