REMARK VINA RESULT:    -8.227      1.218     16.916
REMARK INTER + INTRA:          -9.396
REMARK INTER:                  -7.512
REMARK INTRA:                  -1.884
REMARK UNBOUND:                -1.169
REMARK  0 active torsions:
REMARK  status: ('A' for Active; 'I' for Inactive)
REMARK       I    between atoms: C3_3  and  O3_21 
REMARK       I    between atoms: C6_6  and  C7_7 
REMARK       I    between atoms: C8_8  and  C9_9 
REMARK       I    between atoms: C10_10  and  C11_11 
REMARK       I    between atoms: C12_12  and  C13_13 
REMARK       I    between atoms: C14_14  and  C15_15 
REMARK       I    between atoms: C23_25  and  O23_43 
REMARK       I    between atoms: C26_28  and  C27_29 
REMARK       I    between atoms: C28_30  and  C29_31 
REMARK       I    between atoms: C30_32  and  C31_33 
REMARK       I    between atoms: C32_34  and  C33_35 
REMARK       I    between atoms: C34_36  and  C35_37 
ROOT
HETATM    1  C1  8UH 2 615     -34.369 127.095   6.617  1.00 79.94    -0.018 C 
HETATM    2  C2  8UH 2 615     -33.702 126.318   5.483  1.00 79.60     0.045 C 
HETATM    3  C3  8UH 2 615     -32.718 127.105   4.631  1.00 80.06     0.123 C 
HETATM    4  C4  8UH 2 615     -31.741 127.843   5.526  1.00 79.91     0.066 C 
HETATM    5  C5  8UH 2 615     -32.507 128.759   6.441  1.00 78.96    -0.074 C 
HETATM    6  C6  8UH 2 615     -33.651 128.372   7.013  1.00 78.99    -0.048 C 
HETATM    7  C7  8UH 2 615     -34.239 129.215   8.080  1.00 78.77     0.009 C 
HETATM    8  C8  8UH 2 615     -34.952 130.301   7.774  1.00 79.10     0.007 C 
HETATM    9  C9  8UH 2 615     -35.546 131.159   8.818  1.00 80.39    -0.062 C 
HETATM   10  C10 8UH 2 615     -36.228 132.250   8.437  1.00 81.39     0.007 C 
HETATM   11  C11 8UH 2 615     -36.859 133.166   9.383  1.00 81.92     0.001 C 
HETATM   12  C12 8UH 2 615     -37.576 134.166   8.877  1.00 82.76     0.007 C 
HETATM   13  C13 8UH 2 615     -38.280 135.153   9.716  1.00 83.90    -0.062 C 
HETATM   14  C14 8UH 2 615     -39.220 135.914   9.138  1.00 84.98     0.007 C 
HETATM   15  C15 8UH 2 615     -39.999 136.905   9.874  1.00 86.34     0.001 C 
HETATM   16  C16 8UH 2 615     -34.449 126.178   7.830  1.00 79.93     0.020 C 
HETATM   17  C17 8UH 2 615     -35.779 127.475   6.179  1.00 80.89     0.020 C 
HETATM   18  C18 8UH 2 615     -31.709 129.893   7.014  1.00 77.35     0.044 C 
HETATM   19  C19 8UH 2 615     -35.380 130.818  10.269  1.00 80.43     0.048 C 
HETATM   20  C20 8UH 2 615     -37.954 135.297  11.174  1.00 83.80     0.048 C 
HETATM   21  O3  8UH 2 615     -31.991 126.200   3.792  1.00 80.93    -0.395 OA
ATOM     22  H3  8UH 2 615     -31.376 126.691   3.260  1.00  0.00     0.210 HD
HETATM   23  C21 8UH 2 615     -49.428 144.687  12.467  1.00 48.79    -0.018 C 
HETATM   24  C22 8UH 2 615     -49.656 145.313  13.836  1.00 49.38     0.045 C 
HETATM   25  C23 8UH 2 615     -49.621 146.838  13.921  1.00 51.85     0.123 C 
HETATM   26  C24 8UH 2 615     -48.475 147.458  13.140  1.00 54.16     0.066 C 
HETATM   27  C25 8UH 2 615     -48.005 146.677  11.945  1.00 52.93    -0.074 C 
HETATM   28  C26 8UH 2 615     -48.315 145.391  11.709  1.00 53.44    -0.048 C 
HETATM   29  C27 8UH 2 615     -47.578 144.629  10.664  1.00 56.18     0.009 C 
HETATM   30  C28 8UH 2 615     -46.573 143.803  10.963  1.00 54.04     0.007 C 
HETATM   31  C29 8UH 2 615     -45.845 143.026   9.954  1.00 89.92    -0.062 C 
HETATM   32  C30 8UH 2 615     -44.962 142.109  10.375  1.00 89.40     0.007 C 
HETATM   33  C31 8UH 2 615     -44.196 141.262   9.469  1.00 87.93     0.001 C 
HETATM   34  C32 8UH 2 615     -43.389 140.369  10.032  1.00 87.59     0.007 C 
HETATM   35  C33 8UH 2 615     -42.565 139.426   9.256  1.00 88.80    -0.062 C 
HETATM   36  C34 8UH 2 615     -41.733 138.602   9.912  1.00 88.99     0.007 C 
HETATM   37  C35 8UH 2 615     -40.907 137.621   9.213  1.00 88.02     0.001 C 
HETATM   38  C36 8UH 2 615     -50.721 144.722  11.669  1.00 50.92     0.020 C 
HETATM   39  C37 8UH 2 615     -49.060 143.221  12.676  1.00 48.05     0.020 C 
HETATM   40  C38 8UH 2 615     -46.754 147.303  11.417  1.00 55.82     0.044 C 
HETATM   41  C39 8UH 2 615     -46.090 143.244   8.490  1.00 89.99     0.048 C 
HETATM   42  C40 8UH 2 615     -42.670 139.384   7.761  1.00 89.61     0.048 C 
HETATM   43  O23 8UH 2 615     -50.867 147.425  13.524  1.00 50.70    -0.395 OA
ATOM     44  H23 8UH 2 615     -50.845 148.373  13.576  1.00  0.00     0.210 HD
ENDROOT
TORSDOF 12
