REMARK VINA RESULT:    -9.053      0.471     16.810
REMARK INTER + INTRA:         -11.322
REMARK INTER:                  -9.030
REMARK INTRA:                  -2.293
REMARK UNBOUND:                -2.269
REMARK  0 active torsions:
REMARK  status: ('A' for Active; 'I' for Inactive)
REMARK       I    between atoms: C3_3  and  O3_21 
REMARK       I    between atoms: C6_6  and  C7_7 
REMARK       I    between atoms: C8_8  and  C9_9 
REMARK       I    between atoms: C10_10  and  C11_11 
REMARK       I    between atoms: C12_12  and  C13_13 
REMARK       I    between atoms: C14_14  and  C15_15 
REMARK       I    between atoms: C23_25  and  O23_43 
REMARK       I    between atoms: C26_28  and  C27_29 
REMARK       I    between atoms: C28_30  and  C29_31 
REMARK       I    between atoms: C30_32  and  C31_33 
REMARK       I    between atoms: C32_34  and  C33_35 
REMARK       I    between atoms: C34_36  and  C35_37 
ROOT
HETATM    1  C1  8UH C2620     -34.474 127.135   6.384  1.00 23.07    -0.018 C 
HETATM    2  C2  8UH C2620     -33.921 126.478   5.105  1.00 21.39     0.045 C 
HETATM    3  C3  8UH C2620     -32.751 127.160   4.404  1.00 23.10     0.123 C 
HETATM    4  C4  8UH C2620     -31.830 127.957   5.333  1.00 23.25     0.066 C 
HETATM    5  C5  8UH C2620     -32.459 128.709   6.462  1.00 22.57    -0.074 C 
HETATM    6  C6  8UH C2620     -33.685 128.348   6.971  1.00 22.63    -0.048 C 
HETATM    7  C7  8UH C2620     -34.302 129.086   8.083  1.00 23.01     0.009 C 
HETATM    8  C8  8UH C2620     -34.934 130.271   7.989  1.00 21.85     0.007 C 
HETATM    9  C9  8UH C2620     -35.455 131.094   9.073  1.00 21.21    -0.062 C 
HETATM   10  C10 8UH C2620     -36.153 132.202   8.738  1.00 18.43     0.007 C 
HETATM   11  C11 8UH C2620     -36.776 133.131   9.638  1.00 19.90     0.001 C 
HETATM   12  C12 8UH C2620     -37.582 134.102   9.166  1.00 21.34     0.007 C 
HETATM   13  C13 8UH C2620     -38.342 135.105   9.926  1.00 23.03    -0.062 C 
HETATM   14  C14 8UH C2620     -39.168 135.921   9.234  1.00 23.84     0.007 C 
HETATM   15  C15 8UH C2620     -40.061 136.909   9.768  1.00 23.61     0.001 C 
HETATM   16  C16 8UH C2620     -34.474 125.973   7.395  1.00 21.40     0.020 C 
HETATM   17  C17 8UH C2620     -35.942 127.530   6.104  1.00 21.74     0.020 C 
HETATM   18  C18 8UH C2620     -31.539 129.804   6.871  1.00 21.99     0.044 C 
HETATM   19  C19 8UH C2620     -35.227 130.619  10.486  1.00 18.93     0.048 C 
HETATM   20  C20 8UH C2620     -38.206 135.119  11.421  1.00 19.82     0.048 C 
HETATM   21  O3  8UH C2620     -31.999 126.212   3.669  1.00 24.94    -0.395 OA
ATOM     22  H3  8UH C2620     -31.270 126.637   3.233  1.00  0.00     0.210 HD
HETATM   23  C21 8UH C2620     -49.714 144.477  12.107  1.00 33.20    -0.018 C 
HETATM   24  C22 8UH C2620     -50.089 144.796  13.547  1.00 33.20     0.045 C 
HETATM   25  C23 8UH C2620     -49.195 145.769  14.296  1.00 33.20     0.123 C 
HETATM   26  C24 8UH C2620     -48.667 146.836  13.384  1.00 33.20     0.066 C 
HETATM   27  C25 8UH C2620     -47.934 146.214  12.247  1.00 33.20    -0.074 C 
HETATM   28  C26 8UH C2620     -48.423 145.130  11.647  1.00 33.20    -0.048 C 
HETATM   29  C27 8UH C2620     -47.698 144.558  10.498  1.00 33.20     0.009 C 
HETATM   30  C28 8UH C2620     -46.820 143.587  10.699  1.00 33.20     0.007 C 
HETATM   31  C29 8UH C2620     -46.037 142.927   9.615  1.00 28.48    -0.062 C 
HETATM   32  C30 8UH C2620     -45.170 141.955   9.964  1.00 28.77     0.007 C 
HETATM   33  C31 8UH C2620     -44.358 141.175   9.069  1.00 29.15     0.001 C 
HETATM   34  C32 8UH C2620     -43.483 140.262   9.523  1.00 28.55     0.007 C 
HETATM   35  C33 8UH C2620     -42.581 139.394   8.763  1.00 27.96    -0.062 C 
HETATM   36  C34 8UH C2620     -41.770 138.573   9.464  1.00 26.60     0.007 C 
HETATM   37  C35 8UH C2620     -40.824 137.630   8.955  1.00 25.80     0.001 C 
HETATM   38  C36 8UH C2620     -50.912 144.865  11.246  1.00 33.20     0.020 C 
HETATM   39  C37 8UH C2620     -49.529 142.972  12.017  1.00 33.20     0.020 C 
HETATM   40  C38 8UH C2620     -46.689 146.921  11.809  1.00 33.20     0.044 C 
HETATM   41  C39 8UH C2620     -46.238 143.385   8.202  1.00 27.66     0.048 C 
HETATM   42  C40 8UH C2620     -42.613 139.487   7.263  1.00 25.55     0.048 C 
HETATM   43  O23 8UH C2620     -49.959 146.429  15.303  1.00 33.20    -0.395 OA
ATOM     44  H23 8UH C2620     -49.400 147.037  15.772  1.00  0.00     0.210 HD
ENDROOT
TORSDOF 12
