REMARK VINA RESULT:   -10.454      0.000      0.000
REMARK INTER + INTRA:         -12.691
REMARK INTER:                 -10.454
REMARK INTRA:                  -2.237
REMARK UNBOUND:                -2.237
REMARK  0 active torsions:
REMARK  status: ('A' for Active; 'I' for Inactive)
REMARK       I    between atoms: C3_3  and  O3_21 
REMARK       I    between atoms: C6_6  and  C7_7 
REMARK       I    between atoms: C8_8  and  C9_9 
REMARK       I    between atoms: C10_10  and  C11_11 
REMARK       I    between atoms: C12_12  and  C13_13 
REMARK       I    between atoms: C14_14  and  C15_15 
REMARK       I    between atoms: C23_25  and  O23_43 
REMARK       I    between atoms: C26_28  and  C27_29 
REMARK       I    between atoms: C28_30  and  C29_31 
REMARK       I    between atoms: C30_32  and  C31_33 
REMARK       I    between atoms: C32_34  and  C33_35 
REMARK       I    between atoms: C34_36  and  C35_37 
ROOT
HETATM    1  C1  8UH 3 316     -34.294 127.424   6.742  1.00 78.71    -0.018 C 
HETATM    2  C2  8UH 3 316     -33.656 126.959   5.431  1.00 77.73     0.045 C 
HETATM    3  C3  8UH 3 316     -32.469 127.777   4.938  1.00 76.79     0.123 C 
HETATM    4  C4  8UH 3 316     -31.549 128.101   6.099  1.00 76.86     0.066 C 
HETATM    5  C5  8UH 3 316     -32.327 128.925   7.087  1.00 77.66    -0.074 C 
HETATM    6  C6  8UH 3 316     -33.573 128.578   7.417  1.00 78.84    -0.048 C 
HETATM    7  C7  8UH 3 316     -34.296 129.345   8.457  1.00 78.35     0.009 C 
HETATM    8  C8  8UH 3 316     -34.860 130.510   8.144  1.00 77.95     0.007 C 
HETATM    9  C9  8UH 3 316     -35.603 131.316   9.129  1.00 78.35    -0.062 C 
HETATM   10  C10 8UH 3 316     -36.228 132.419   8.691  1.00 77.38     0.007 C 
HETATM   11  C11 8UH 3 316     -37.015 133.296   9.550  1.00 77.06     0.001 C 
HETATM   12  C12 8UH 3 316     -37.785 134.176   8.918  1.00 77.59     0.007 C 
HETATM   13  C13 8UH 3 316     -38.677 135.135   9.598  1.00 77.36    -0.062 C 
HETATM   14  C14 8UH 3 316     -39.454 135.909   8.826  1.00 75.86     0.007 C 
HETATM   15  C15 8UH 3 316     -40.397 136.879   9.368  1.00 74.54     0.001 C 
HETATM   16  C16 8UH 3 316     -34.330 126.248   7.711  1.00 78.56     0.020 C 
HETATM   17  C17 8UH 3 316     -35.723 127.872   6.448  1.00 78.60     0.020 C 
HETATM   18  C18 8UH 3 316     -31.584 129.988   7.844  1.00 77.80     0.044 C 
HETATM   19  C19 8UH 3 316     -35.664 130.906  10.571  1.00 79.41     0.048 C 
HETATM   20  C20 8UH 3 316     -38.721 135.231  11.095  1.00 77.68     0.048 C 
HETATM   21  O3  8UH 3 316     -31.739 127.034   3.955  1.00 76.23    -0.395 OA
ATOM     22  H3  8UH 3 316     -31.000 127.545   3.648  1.00  0.00     0.210 HD
HETATM   23  C21 8UH 3 316     -49.989 145.007   9.841  1.00 34.54    -0.018 C 
HETATM   24  C22 8UH 3 316     -50.658 145.625  11.069  1.00 34.54     0.045 C 
HETATM   25  C23 8UH 3 316     -50.062 146.900  11.667  1.00 34.54     0.123 C 
HETATM   26  C24 8UH 3 316     -49.182 147.671  10.695  1.00 34.54     0.066 C 
HETATM   27  C25 8UH 3 316     -48.193 146.716  10.092  1.00 34.54    -0.074 C 
HETATM   28  C26 8UH 3 316     -48.606 145.564   9.553  1.00 34.54    -0.048 C 
HETATM   29  C27 8UH 3 316     -47.695 144.833   8.640  1.00 34.54     0.009 C 
HETATM   30  C28 8UH 3 316     -46.831 143.948   9.131  1.00 34.54     0.007 C 
HETATM   31  C29 8UH 3 316     -45.886 143.194   8.305  1.00 87.05    -0.062 C 
HETATM   32  C30 8UH 3 316     -45.171 142.217   8.875  1.00 83.33     0.007 C 
HETATM   33  C31 8UH 3 316     -44.216 141.402   8.132  1.00 80.71     0.001 C 
HETATM   34  C32 8UH 3 316     -43.552 140.486   8.828  1.00 78.86     0.007 C 
HETATM   35  C33 8UH 3 316     -42.559 139.573   8.235  1.00 77.40    -0.062 C 
HETATM   36  C34 8UH 3 316     -42.016 138.634   9.024  1.00 76.14     0.007 C 
HETATM   37  C35 8UH 3 316     -41.042 137.674   8.520  1.00 74.61     0.001 C 
HETATM   38  C36 8UH 3 316     -50.936 145.194   8.658  1.00 34.54     0.020 C 
HETATM   39  C37 8UH 3 316     -49.842 143.508  10.073  1.00 34.54     0.020 C 
HETATM   40  C38 8UH 3 316     -47.023 147.475   9.534  1.00 34.54     0.044 C 
HETATM   41  C39 8UH 3 316     -45.735 143.510   6.846  1.00 86.53     0.048 C 
HETATM   42  C40 8UH 3 316     -42.166 139.693   6.793  1.00 77.09     0.048 C 
HETATM   43  O23 8UH 3 316     -51.132 147.749  12.093  1.00 34.54    -0.395 OA
ATOM     44  H23 8UH 3 316     -51.682 147.267  12.699  1.00  0.00     0.210 HD
ENDROOT
TORSDOF 12
