REMARK VINA RESULT:    -9.693      1.156     16.251
REMARK INTER + INTRA:         -12.590
REMARK INTER:                 -12.286
REMARK INTRA:                  -0.303
REMARK UNBOUND:                -2.896
REMARK  0 active torsions:
REMARK  status: ('A' for Active; 'I' for Inactive)
REMARK       I    between atoms: C3_3  and  O3_21 
REMARK       I    between atoms: C6_6  and  C7_7 
REMARK       I    between atoms: C8_8  and  C9_9 
REMARK       I    between atoms: C10_10  and  C11_11 
REMARK       I    between atoms: C12_12  and  C13_13 
REMARK       I    between atoms: C14_14  and  C15_15 
REMARK       I    between atoms: C23_25  and  O23_43 
REMARK       I    between atoms: C26_28  and  C27_29 
REMARK       I    between atoms: C28_30  and  C29_31 
REMARK       I    between atoms: C30_32  and  C31_33 
REMARK       I    between atoms: C32_34  and  C33_35 
REMARK       I    between atoms: C34_36  and  C35_37 
ROOT
HETATM    1  C1  8UH X1620     -50.022 144.734  10.134  1.00 33.88    -0.022 C 
HETATM    2  C2  8UH X1620     -49.938 144.742  11.654  1.00 33.88     0.045 C 
HETATM    3  C3  8UH X1620     -48.740 145.479  12.213  1.00 33.88     0.119 C 
HETATM    4  C4  8UH X1620     -48.779 146.884  11.653  1.00 33.88     0.040 C 
HETATM    5  C5  8UH X1620     -48.680 146.826  10.150  1.00 33.88     0.013 C 
HETATM    6  C6  8UH X1620     -49.016 145.701   9.510  1.00 33.88    -0.068 C 
HETATM    7  C7  8UH X1620     -48.209 145.213   8.384  1.00 33.88     0.004 C 
HETATM    8  C8  8UH X1620     -47.314 144.343   8.870  1.00 33.88     0.007 C 
HETATM    9  C9  8UH X1620     -46.275 143.684   8.036  1.00 33.88    -0.062 C 
HETATM   10  C10 8UH X1620     -45.441 142.833   8.680  1.00 33.88     0.007 C 
HETATM   11  C11 8UH X1620     -44.387 142.072   8.018  1.00 33.88     0.001 C 
HETATM   12  C12 8UH X1620     -43.645 141.216   8.704  1.00 33.88     0.007 C 
HETATM   13  C13 8UH X1620     -42.629 140.388   8.030  1.00 33.88    -0.062 C 
HETATM   14  C14 8UH X1620     -42.049 139.445   8.791  1.00 33.88     0.007 C 
HETATM   15  C15 8UH X1620     -41.067 138.468   8.317  1.00 33.88     0.001 C 
HETATM   16  C16 8UH X1620     -51.494 144.987   9.816  1.00 33.88     0.019 C 
HETATM   17  C17 8UH X1620     -49.655 143.322   9.684  1.00 33.88     0.019 C 
HETATM   18  C18 8UH X1620     -47.348 147.509   9.974  1.00 33.88     0.015 C 
HETATM   19  C19 8UH X1620     -46.192 143.957   6.549  1.00 33.88     0.048 C 
HETATM   20  C20 8UH X1620     -42.370 140.569   6.558  1.00 33.88     0.048 C 
HETATM   21  O3  8UH X1620     -48.893 145.507  13.636  1.00 33.88    -0.396 OA
ATOM     22  H3  8UH X1620     -48.141 145.970  13.987  1.00  0.00     0.210 HD
HETATM   23  C21 8UH X1620     -34.158 128.192   7.120  1.00 32.28    -0.018 C 
HETATM   24  C22 8UH X1620     -33.386 127.714   5.903  1.00 32.10     0.045 C 
HETATM   25  C23 8UH X1620     -32.201 128.547   5.475  1.00 30.03     0.123 C 
HETATM   26  C24 8UH X1620     -31.360 128.988   6.642  1.00 27.01     0.066 C 
HETATM   27  C25 8UH X1620     -32.191 129.645   7.698  1.00 26.85    -0.074 C 
HETATM   28  C26 8UH X1620     -33.478 129.316   7.896  1.00 32.38    -0.048 C 
HETATM   29  C27 8UH X1620     -34.275 130.058   8.905  1.00 31.45     0.009 C 
HETATM   30  C28 8UH X1620     -35.003 131.117   8.557  1.00 30.07     0.007 C 
HETATM   31  C29 8UH X1620     -35.817 131.905   9.500  1.00 33.88    -0.062 C 
HETATM   32  C30 8UH X1620     -36.566 132.878   8.938  1.00 33.88     0.007 C 
HETATM   33  C31 8UH X1620     -37.485 133.769   9.651  1.00 33.88     0.001 C 
HETATM   34  C32 8UH X1620     -38.154 134.684   8.943  1.00 33.88     0.007 C 
HETATM   35  C33 8UH X1620     -39.111 135.629   9.563  1.00 33.88    -0.062 C 
HETATM   36  C34 8UH X1620     -39.660 136.560   8.757  1.00 33.88     0.007 C 
HETATM   37  C35 8UH X1620     -40.624 137.569   9.193  1.00 33.88     0.001 C 
HETATM   38  C36 8UH X1620     -34.373 126.934   7.956  1.00 30.09     0.020 C 
HETATM   39  C37 8UH X1620     -35.510 128.711   6.652  1.00 35.00     0.020 C 
HETATM   40  C38 8UH X1620     -31.522 130.808   8.365  1.00 25.72     0.044 C 
HETATM   41  C39 8UH X1620     -35.831 131.573  10.973  1.00 33.88     0.048 C 
HETATM   42  C40 8UH X1620     -39.448 135.478  11.023  1.00 33.88     0.048 C 
HETATM   43  O23 8UH X1620     -31.365 127.744   4.639  1.00 33.60    -0.395 OA
ATOM     44  H23 8UH X1620     -30.620 128.268   4.370  1.00  0.00     0.210 HD
ENDROOT
TORSDOF 12
