REMARK VINA RESULT:    -8.557      1.156     15.835
REMARK INTER + INTRA:         -10.527
REMARK INTER:                  -6.021
REMARK INTRA:                  -4.506
REMARK UNBOUND:                -1.970
REMARK  0 active torsions:
REMARK  status: ('A' for Active; 'I' for Inactive)
REMARK       I    between atoms: C3_3  and  O3_21 
REMARK       I    between atoms: C6_6  and  C7_7 
REMARK       I    between atoms: C8_8  and  C9_9 
REMARK       I    between atoms: C10_10  and  C11_11 
REMARK       I    between atoms: C12_12  and  C13_13 
REMARK       I    between atoms: C14_14  and  C15_15 
REMARK       I    between atoms: C23_25  and  O23_43 
REMARK       I    between atoms: C26_28  and  C27_29 
REMARK       I    between atoms: C28_30  and  C29_31 
REMARK       I    between atoms: C30_32  and  C31_33 
REMARK       I    between atoms: C32_34  and  C33_35 
REMARK       I    between atoms: C34_36  and  C35_37 
ROOT
HETATM    1  C1  8UH Z 617     -34.585 126.979   5.165  1.00 32.73    -0.018 C 
HETATM    2  C2  8UH Z 617     -33.827 126.044   4.242  1.00 32.73     0.045 C 
HETATM    3  C3  8UH Z 617     -32.678 126.750   3.562  1.00 32.73     0.123 C 
HETATM    4  C4  8UH Z 617     -31.687 127.211   4.605  1.00 32.73     0.066 C 
HETATM    5  C5  8UH Z 617     -32.346 127.940   5.749  1.00 32.73    -0.074 C 
HETATM    6  C6  8UH Z 617     -33.663 127.834   6.030  1.00 32.73    -0.048 C 
HETATM    7  C7  8UH Z 617     -34.227 128.506   7.236  1.00 32.73     0.009 C 
HETATM    8  C8  8UH Z 617     -34.650 129.779   7.247  1.00 32.73     0.007 C 
HETATM    9  C9  8UH Z 617     -35.210 130.439   8.434  1.00 32.73    -0.062 C 
HETATM   10  C10 8UH Z 617     -35.969 131.511   8.197  1.00 32.73     0.007 C 
HETATM   11  C11 8UH Z 617     -36.642 132.315   9.203  1.00 32.73     0.001 C 
HETATM   12  C12 8UH Z 617     -37.394 133.266   8.666  1.00 32.73     0.007 C 
HETATM   13  C13 8UH Z 617     -38.230 134.215   9.406  1.00 32.73    -0.062 C 
HETATM   14  C14 8UH Z 617     -38.986 135.026   8.662  1.00 32.73     0.007 C 
HETATM   15  C15 8UH Z 617     -39.910 135.994   9.222  1.00 32.73     0.001 C 
HETATM   16  C16 8UH Z 617     -35.548 126.088   5.946  1.00 32.73     0.020 C 
HETATM   17  C17 8UH Z 617     -35.414 127.939   4.330  1.00 32.73     0.020 C 
HETATM   18  C18 8UH Z 617     -31.391 128.732   6.595  1.00 32.73     0.044 C 
HETATM   19  C19 8UH Z 617     -34.919 129.949   9.821  1.00 32.73     0.048 C 
HETATM   20  C20 8UH Z 617     -38.263 134.252  10.905  1.00 32.73     0.048 C 
HETATM   21  O3  8UH Z 617     -32.019 125.850   2.668  1.00 32.73    -0.395 OA
ATOM     22  H3  8UH Z 617     -31.297 126.294   2.241  1.00  0.00     0.210 HD
HETATM   23  C21 8UH Z 617     -49.336 142.839  10.733  1.00 42.32    -0.018 C 
HETATM   24  C22 8UH Z 617     -49.131 142.001  11.990  1.00 42.32     0.045 C 
HETATM   25  C23 8UH Z 617     -48.002 142.476  12.898  1.00 42.32     0.123 C 
HETATM   26  C24 8UH Z 617     -47.900 143.990  12.865  1.00 42.32     0.066 C 
HETATM   27  C25 8UH Z 617     -47.598 144.415  11.453  1.00 42.32    -0.074 C 
HETATM   28  C26 8UH Z 617     -48.155 143.737  10.450  1.00 42.32    -0.048 C 
HETATM   29  C27 8UH Z 617     -47.427 143.509   9.199  1.00 42.32     0.009 C 
HETATM   30  C28 8UH Z 617     -46.567 142.509   9.448  1.00 42.32     0.007 C 
HETATM   31  C29 8UH Z 617     -45.676 141.939   8.429  1.00 32.73    -0.062 C 
HETATM   32  C30 8UH Z 617     -45.094 140.787   8.753  1.00 32.73     0.007 C 
HETATM   33  C31 8UH Z 617     -44.189 140.030   7.907  1.00 32.73     0.001 C 
HETATM   34  C32 8UH Z 617     -43.423 139.195   8.593  1.00 32.73     0.007 C 
HETATM   35  C33 8UH Z 617     -42.424 138.300   8.002  1.00 32.73    -0.062 C 
HETATM   36  C34 8UH Z 617     -41.762 137.495   8.838  1.00 32.73     0.007 C 
HETATM   37  C35 8UH Z 617     -40.766 136.544   8.372  1.00 32.73     0.001 C 
HETATM   38  C36 8UH Z 617     -50.599 143.673  10.910  1.00 42.32     0.020 C 
HETATM   39  C37 8UH Z 617     -49.502 141.915   9.536  1.00 42.32     0.020 C 
HETATM   40  C38 8UH Z 617     -46.248 145.066  11.374  1.00 42.32     0.044 C 
HETATM   41  C39 8UH Z 617     -45.446 142.608   7.108  1.00 32.73     0.048 C 
HETATM   42  C40 8UH Z 617     -42.157 138.303   6.528  1.00 32.73     0.048 C 
HETATM   43  O23 8UH Z 617     -48.268 142.065  14.242  1.00 42.32    -0.395 OA
ATOM     44  H23 8UH Z 617     -47.564 142.361  14.807  1.00  0.00     0.210 HD
ENDROOT
TORSDOF 12
