REMARK VINA RESULT:    -9.298      0.000      0.000
REMARK INTER + INTRA:         -12.139
REMARK INTER:                  -9.298
REMARK INTRA:                  -2.841
REMARK UNBOUND:                -2.841
REMARK  0 active torsions:
REMARK  status: ('A' for Active; 'I' for Inactive)
REMARK       I    between atoms: C3_3  and  O3_21 
REMARK       I    between atoms: C6_6  and  C7_7 
REMARK       I    between atoms: C8_8  and  C9_9 
REMARK       I    between atoms: C10_10  and  C11_11 
REMARK       I    between atoms: C12_12  and  C13_13 
REMARK       I    between atoms: C14_14  and  C15_15 
REMARK       I    between atoms: C23_25  and  O23_43 
REMARK       I    between atoms: C26_28  and  C27_29 
REMARK       I    between atoms: C28_30  and  C29_31 
REMARK       I    between atoms: C30_32  and  C31_33 
REMARK       I    between atoms: C32_34  and  C33_35 
REMARK       I    between atoms: C34_36  and  C35_37 
ROOT
HETATM    1  C1  8UH E4621     -47.950 146.163  12.688  1.00 16.11    -0.017 A 
HETATM    2  C2  8UH E4621     -48.774 146.814  13.811  1.00 15.05     0.049 A 
HETATM    3  C3  8UH E4621     -48.170 147.931  14.654  1.00 18.47     0.142 A 
HETATM    4  C4  8UH E4621     -46.694 148.259  14.372  1.00 15.72     0.012 A 
HETATM    5  C5  8UH E4621     -45.915 147.573  13.302  1.00 14.51    -0.056 A 
HETATM    6  C6  8UH E4621     -46.455 146.601  12.510  1.00 15.74    -0.044 A 
HETATM    7  C7  8UH E4621     -45.708 145.887  11.443  1.00 14.17     0.009 C 
HETATM    8  C8  8UH E4621     -44.852 144.861  11.578  1.00 12.66     0.007 C 
HETATM    9  C9  8UH E4621     -44.094 144.212  10.515  1.00 13.35    -0.062 C 
HETATM   10  C10 8UH E4621     -43.397 143.101  10.838  1.00 14.12     0.007 C 
HETATM   11  C11 8UH E4621     -42.657 142.252   9.934  1.00 17.35     0.001 C 
HETATM   12  C12 8UH E4621     -42.081 141.100  10.357  1.00 16.42     0.007 C 
HETATM   13  C13 8UH E4621     -41.375 140.102   9.549  1.00 15.51    -0.062 C 
HETATM   14  C14 8UH E4621     -40.913 138.995  10.169  1.00 14.68     0.007 C 
HETATM   15  C15 8UH E4621     -40.253 137.877   9.565  1.00 15.30     0.001 C 
HETATM   16  C16 8UH E4621     -48.764 146.515  11.422  1.00 14.06     0.020 C 
HETATM   17  C17 8UH E4621     -48.040 144.633  12.911  1.00 11.15     0.020 C 
HETATM   18  C18 8UH E4621     -44.530 148.100  13.262  1.00 14.35     0.048 C 
HETATM   19  C19 8UH E4621     -44.209 144.773   9.122  1.00 12.51     0.048 C 
HETATM   20  C20 8UH E4621     -41.246 140.361   8.078  1.00 15.42     0.048 C 
HETATM   21  O3  8UH E4621     -48.962 149.107  14.552  1.00 20.70    -0.392 OA
ATOM     22  H3  8UH E4621     -48.585 149.803  15.077  1.00  0.00     0.210 HD
HETATM   23  C21 8UH E4621     -34.321 126.899   6.352  1.00 23.41    -0.018 C 
HETATM   24  C22 8UH E4621     -33.824 126.116   5.123  1.00 23.79     0.045 C 
HETATM   25  C23 8UH E4621     -32.925 126.787   4.090  1.00 23.28     0.123 C 
HETATM   26  C24 8UH E4621     -32.206 128.044   4.605  1.00 23.70     0.066 C 
HETATM   27  C25 8UH E4621     -32.705 128.776   5.818  1.00 23.84    -0.074 C 
HETATM   28  C26 8UH E4621     -33.681 128.284   6.662  1.00 22.99    -0.048 C 
HETATM   29  C27 8UH E4621     -34.186 128.981   7.875  1.00 20.55     0.009 C 
HETATM   30  C28 8UH E4621     -35.110 129.965   7.869  1.00 19.35     0.007 C 
HETATM   31  C29 8UH E4621     -35.637 130.755   8.983  1.00 19.82    -0.062 C 
HETATM   32  C30 8UH E4621     -36.542 131.729   8.741  1.00 18.83     0.007 C 
HETATM   33  C31 8UH E4621     -37.173 132.575   9.730  1.00 18.73     0.001 C 
HETATM   34  C32 8UH E4621     -37.909 133.663   9.371  1.00 18.34     0.007 C 
HETATM   35  C33 8UH E4621     -38.582 134.659  10.221  1.00 16.35    -0.062 C 
HETATM   36  C34 8UH E4621     -39.150 135.724   9.616  1.00 13.70     0.007 C 
HETATM   37  C35 8UH E4621     -39.800 136.835  10.267  1.00 15.99     0.001 C 
HETATM   38  C36 8UH E4621     -34.034 125.907   7.485  1.00 23.73     0.020 C 
HETATM   39  C37 8UH E4621     -35.842 127.043   6.222  1.00 23.42     0.020 C 
HETATM   40  C38 8UH E4621     -31.963 130.054   5.956  1.00 22.78     0.044 C 
HETATM   41  C39 8UH E4621     -35.069 130.471  10.346  1.00 19.63     0.048 C 
HETATM   42  C40 8UH E4621     -38.525 134.471  11.710  1.00 14.68     0.048 C 
HETATM   43  O23 8UH E4621     -31.987 125.850   3.575  1.00 21.52    -0.395 OA
ATOM     44  H23 8UH E4621     -32.432 125.073   3.257  1.00  0.00     0.210 HD
ENDROOT
TORSDOF 12
