REMARK VINA RESULT:   -10.634      0.000      0.000
REMARK INTER + INTRA:         -13.443
REMARK INTER:                 -10.634
REMARK INTRA:                  -2.809
REMARK UNBOUND:                -2.809
REMARK  0 active torsions:
REMARK  status: ('A' for Active; 'I' for Inactive)
REMARK       I    between atoms: C3_3  and  O3_21 
REMARK       I    between atoms: C6_6  and  C7_7 
REMARK       I    between atoms: C8_8  and  C9_9 
REMARK       I    between atoms: C10_10  and  C11_11 
REMARK       I    between atoms: C12_12  and  C13_13 
REMARK       I    between atoms: C14_14  and  C15_15 
REMARK       I    between atoms: C23_25  and  O23_43 
REMARK       I    between atoms: C26_28  and  C27_29 
REMARK       I    between atoms: C28_30  and  C29_31 
REMARK       I    between atoms: C30_32  and  C31_33 
REMARK       I    between atoms: C32_34  and  C33_35 
REMARK       I    between atoms: C34_36  and  C35_37 
ROOT
HETATM    1  C1  8UH F5620     -49.113 144.781  12.660  1.00 19.30    -0.018 C 
HETATM    2  C2  8UH F5620     -49.571 145.399  13.994  1.00 17.68     0.045 C 
HETATM    3  C3  8UH F5620     -48.751 146.535  14.597  1.00 17.79     0.123 C 
HETATM    4  C4  8UH F5620     -47.847 147.285  13.618  1.00 18.50     0.066 C 
HETATM    5  C5  8UH F5620     -47.263 146.543  12.461  1.00 19.40    -0.074 C 
HETATM    6  C6  8UH F5620     -47.829 145.373  11.994  1.00 19.02    -0.048 C 
HETATM    7  C7  8UH F5620     -47.245 144.631  10.866  1.00 18.60     0.009 C 
HETATM    8  C8  8UH F5620     -46.160 143.829  10.902  1.00 18.09     0.007 C 
HETATM    9  C9  8UH F5620     -45.502 143.181   9.763  1.00 18.23    -0.062 C 
HETATM   10  C10 8UH F5620     -44.486 142.330  10.026  1.00 15.81     0.007 C 
HETATM   11  C11 8UH F5620     -43.722 141.581   9.067  1.00 18.00     0.001 C 
HETATM   12  C12 8UH F5620     -42.865 140.639   9.492  1.00 18.12     0.007 C 
HETATM   13  C13 8UH F5620     -42.031 139.730   8.717  1.00 18.88    -0.062 C 
HETATM   14  C14 8UH F5620     -41.336 138.795   9.400  1.00 21.10     0.007 C 
HETATM   15  C15 8UH F5620     -40.519 137.738   8.867  1.00 24.06     0.001 C 
HETATM   16  C16 8UH F5620     -50.323 144.998  11.735  1.00 17.17     0.020 C 
HETATM   17  C17 8UH F5620     -48.958 143.262  12.894  1.00 16.95     0.020 C 
HETATM   18  C18 8UH F5620     -46.050 147.273  11.981  1.00 19.80     0.044 C 
HETATM   19  C19 8UH F5620     -46.038 143.471   8.380  1.00 17.09     0.048 C 
HETATM   20  C20 8UH F5620     -42.061 139.844   7.224  1.00 16.35     0.048 C 
HETATM   21  O3  8UH F5620     -49.600 147.448  15.269  1.00 17.38    -0.395 OA
ATOM     22  H3  8UH F5620     -49.089 148.155  15.645  1.00  0.00     0.210 HD
HETATM   23  C21 8UH F5620     -34.368 126.861   6.457  1.00 19.63    -0.018 C 
HETATM   24  C22 8UH F5620     -33.955 126.122   5.187  1.00 19.63     0.045 C 
HETATM   25  C23 8UH F5620     -32.990 126.833   4.250  1.00 19.63     0.123 C 
HETATM   26  C24 8UH F5620     -31.963 127.608   5.045  1.00 19.63     0.066 C 
HETATM   27  C25 8UH F5620     -32.724 128.615   5.850  1.00 19.63    -0.074 C 
HETATM   28  C26 8UH F5620     -33.705 128.212   6.662  1.00 19.63    -0.048 C 
HETATM   29  C27 8UH F5620     -34.161 129.039   7.808  1.00 19.63     0.009 C 
HETATM   30  C28 8UH F5620     -34.989 130.075   7.660  1.00 19.63     0.007 C 
HETATM   31  C29 8UH F5620     -35.481 130.906   8.798  1.00 26.61    -0.062 C 
HETATM   32  C30 8UH F5620     -36.317 131.921   8.493  1.00 25.24     0.007 C 
HETATM   33  C31 8UH F5620     -36.953 132.815   9.416  1.00 26.40     0.001 C 
HETATM   34  C32 8UH F5620     -37.736 133.824   8.989  1.00 26.29     0.007 C 
HETATM   35  C33 8UH F5620     -38.445 134.830   9.786  1.00 26.99    -0.062 C 
HETATM   36  C34 8UH F5620     -39.143 135.776   9.120  1.00 26.65     0.007 C 
HETATM   37  C35 8UH F5620     -39.907 136.860   9.670  1.00 25.43     0.001 C 
HETATM   38  C36 8UH F5620     -34.088 125.931   7.633  1.00 19.63     0.020 C 
HETATM   39  C37 8UH F5620     -35.863 127.108   6.383  1.00 19.63     0.020 C 
HETATM   40  C38 8UH F5620     -31.716 129.647   6.251  1.00 19.63     0.044 C 
HETATM   41  C39 8UH F5620     -35.026 130.580  10.200  1.00 26.87     0.048 C 
HETATM   42  C40 8UH F5620     -38.325 134.755  11.280  1.00 24.17     0.048 C 
HETATM   43  O23 8UH F5620     -32.323 125.855   3.449  1.00 19.63    -0.395 OA
ATOM     44  H23 8UH F5620     -32.969 125.368   2.950  1.00  0.00     0.210 HD
ENDROOT
TORSDOF 12
