REMARK VINA RESULT:   -11.227      0.000      0.000
REMARK INTER + INTRA:         -11.573
REMARK INTER:                 -11.227
REMARK INTRA:                  -0.346
REMARK UNBOUND:                -0.346
REMARK  0 active torsions:
REMARK  status: ('A' for Active; 'I' for Inactive)
REMARK       I    between atoms: C3_3  and  O3_21 
REMARK       I    between atoms: C6_6  and  C7_7 
REMARK       I    between atoms: C8_8  and  C9_9 
REMARK       I    between atoms: C10_10  and  C11_11 
REMARK       I    between atoms: C12_12  and  C13_13 
REMARK       I    between atoms: C14_14  and  C15_15 
REMARK       I    between atoms: C23_25  and  O23_43 
REMARK       I    between atoms: C26_28  and  C27_29 
REMARK       I    between atoms: C28_30  and  C29_31 
REMARK       I    between atoms: C30_32  and  C31_33 
REMARK       I    between atoms: C32_34  and  C33_35 
REMARK       I    between atoms: C34_36  and  C35_37 
ROOT
HETATM    1  C1  8UH 4 616     -34.180 128.082   6.936  1.00 72.69    -0.018 C 
HETATM    2  C2  8UH 4 616     -33.505 127.661   5.631  1.00 72.50     0.045 C 
HETATM    3  C3  8UH 4 616     -32.176 128.318   5.270  1.00 72.53     0.123 C 
HETATM    4  C4  8UH 4 616     -31.393 128.750   6.497  1.00 73.67     0.066 C 
HETATM    5  C5  8UH 4 616     -32.262 129.608   7.375  1.00 74.71    -0.074 C 
HETATM    6  C6  8UH 4 616     -33.512 129.239   7.649  1.00 74.26    -0.048 C 
HETATM    7  C7  8UH 4 616     -34.307 129.979   8.656  1.00 75.37     0.009 C 
HETATM    8  C8  8UH 4 616     -34.932 131.102   8.304  1.00 77.10     0.007 C 
HETATM    9  C9  8UH 4 616     -35.753 131.878   9.255  1.00 78.39    -0.062 C 
HETATM   10  C10 8UH 4 616     -36.389 132.971   8.807  1.00 81.08     0.007 C 
HETATM   11  C11 8UH 4 616     -37.242 133.802   9.657  1.00 84.31     0.001 C 
HETATM   12  C12 8UH 4 616     -37.987 134.719   9.045  1.00 87.06     0.007 C 
HETATM   13  C13 8UH 4 616     -38.920 135.622   9.747  1.00 89.04    -0.062 C 
HETATM   14  C14 8UH 4 616     -39.692 136.424   8.995  1.00 90.91     0.007 C 
HETATM   15  C15 8UH 4 616     -40.679 137.343   9.555  1.00 91.21     0.001 C 
HETATM   16  C16 8UH 4 616     -34.204 126.879   7.870  1.00 72.40     0.020 C 
HETATM   17  C17 8UH 4 616     -35.611 128.505   6.631  1.00 73.92     0.020 C 
HETATM   18  C18 8UH 4 616     -31.548 130.611   8.232  1.00 74.98     0.044 C 
HETATM   19  C19 8UH 4 616     -35.876 131.440  10.684  1.00 77.08     0.048 C 
HETATM   20  C20 8UH 4 616     -39.012 135.634  11.244  1.00 88.60     0.048 C 
HETATM   21  O3  8UH 4 616     -31.390 127.370   4.540  1.00 71.08    -0.395 OA
ATOM     22  H3  8UH 4 616     -31.879 127.100   3.772  1.00  0.00     0.210 HD
HETATM   23  C21 8UH 4 616     -50.834 144.748  10.276  1.00 23.68    -0.018 C 
HETATM   24  C22 8UH 4 616     -51.713 145.275  11.406  1.00 23.68     0.045 C 
HETATM   25  C23 8UH 4 616     -51.254 146.510  12.171  1.00 23.68     0.123 C 
HETATM   26  C24 8UH 4 616     -50.372 147.406  11.322  1.00 23.68     0.066 C 
HETATM   27  C25 8UH 4 616     -49.241 146.581  10.777  1.00 23.68    -0.074 C 
HETATM   28  C26 8UH 4 616     -49.486 145.435  10.137  1.00 23.68    -0.048 C 
HETATM   29  C27 8UH 4 616     -48.461 144.828   9.243  1.00 23.68     0.009 C 
HETATM   30  C28 8UH 4 616     -47.476 144.042   9.689  1.00 23.68     0.007 C 
HETATM   31  C29 8UH 4 616     -46.477 143.443   8.793  1.00 94.55    -0.062 C 
HETATM   32  C30 8UH 4 616     -45.767 142.397   9.237  1.00 95.44     0.007 C 
HETATM   33  C31 8UH 4 616     -44.759 141.700   8.439  1.00 95.37     0.001 C 
HETATM   34  C32 8UH 4 616     -44.096 140.728   9.060  1.00 94.20     0.007 C 
HETATM   35  C33 8UH 4 616     -43.057 139.884   8.443  1.00 92.43    -0.062 C 
HETATM   36  C34 8UH 4 616     -42.391 139.029   9.235  1.00 91.40     0.007 C 
HETATM   37  C35 8UH 4 616     -41.368 138.124   8.722  1.00 91.41     0.001 C 
HETATM   38  C36 8UH 4 616     -51.653 144.878   9.003  1.00 23.68     0.020 C 
HETATM   39  C37 8UH 4 616     -50.564 143.273  10.534  1.00 23.68     0.020 C 
HETATM   40  C38 8UH 4 616     -48.126 147.489  10.354  1.00 23.68     0.044 C 
HETATM   41  C39 8UH 4 616     -46.263 143.995   7.414  1.00 93.92     0.048 C 
HETATM   42  C40 8UH 4 616     -42.771 139.968   6.974  1.00 91.99     0.048 C 
HETATM   43  O23 8UH 4 616     -52.412 147.245  12.576  1.00 23.68    -0.395 OA
ATOM     44  H23 8UH 4 616     -52.965 146.684  13.107  1.00  0.00     0.210 HD
ENDROOT
TORSDOF 12
