REMARK VINA RESULT:   -11.847      0.000      0.000
REMARK INTER + INTRA:         -12.199
REMARK INTER:                 -11.847
REMARK INTRA:                  -0.352
REMARK UNBOUND:                -0.352
REMARK  0 active torsions:
REMARK  status: ('A' for Active; 'I' for Inactive)
REMARK       I    between atoms: C3_3  and  O3_21 
REMARK       I    between atoms: C6_6  and  C7_7 
REMARK       I    between atoms: C8_8  and  C9_9 
REMARK       I    between atoms: C10_10  and  C11_11 
REMARK       I    between atoms: C12_12  and  C13_13 
REMARK       I    between atoms: C14_14  and  C15_15 
REMARK       I    between atoms: C23_25  and  O23_43 
REMARK       I    between atoms: C26_28  and  C27_29 
REMARK       I    between atoms: C28_30  and  C29_31 
REMARK       I    between atoms: C30_32  and  C31_33 
REMARK       I    between atoms: C32_34  and  C33_35 
REMARK       I    between atoms: C34_36  and  C35_37 
ROOT
HETATM    1  C1  8UH G1620     -34.141 128.119   6.982  1.00 66.29    -0.018 C 
HETATM    2  C2  8UH G1620     -33.402 127.682   5.723  1.00 66.29     0.045 C 
HETATM    3  C3  8UH G1620     -32.102 128.388   5.370  1.00 66.29     0.123 C 
HETATM    4  C4  8UH G1620     -31.352 128.824   6.610  1.00 66.29     0.066 C 
HETATM    5  C5  8UH G1620     -32.251 129.670   7.461  1.00 66.29    -0.074 C 
HETATM    6  C6  8UH G1620     -33.516 129.304   7.697  1.00 66.29    -0.048 C 
HETATM    7  C7  8UH G1620     -34.342 130.044   8.686  1.00 66.29     0.009 C 
HETATM    8  C8  8UH G1620     -35.043 131.127   8.340  1.00 66.29     0.007 C 
HETATM    9  C9  8UH G1620     -35.877 131.868   9.295  1.00 66.29    -0.062 C 
HETATM   10  C10 8UH G1620     -36.464 132.985   8.857  1.00 66.29     0.007 C 
HETATM   11  C11 8UH G1620     -37.327 133.809   9.687  1.00 66.29     0.001 C 
HETATM   12  C12 8UH G1620     -37.996 134.753   9.044  1.00 66.29     0.007 C 
HETATM   13  C13 8UH G1620     -38.930 135.673   9.706  1.00 66.29    -0.062 C 
HETATM   14  C14 8UH G1620     -39.640 136.497   8.928  1.00 66.29     0.007 C 
HETATM   15  C15 8UH G1620     -40.612 137.432   9.470  1.00 66.29     0.001 C 
HETATM   16  C16 8UH G1620     -34.228 126.911   7.905  1.00 66.29     0.020 C 
HETATM   17  C17 8UH G1620     -35.551 128.512   6.571  1.00 66.29     0.020 C 
HETATM   18  C18 8UH G1620     -31.547 130.715   8.275  1.00 66.29     0.044 C 
HETATM   19  C19 8UH G1620     -36.063 131.377  10.698  1.00 66.29     0.048 C 
HETATM   20  C20 8UH G1620     -39.087 135.679  11.197  1.00 66.29     0.048 C 
HETATM   21  O3  8UH G1620     -31.278 127.479   4.634  1.00 66.29    -0.395 OA
ATOM     22  H3  8UH G1620     -31.748 127.205   3.855  1.00  0.00     0.210 HD
HETATM   23  C21 8UH G1620     -50.633 144.908   9.576  1.00 25.46    -0.018 C 
HETATM   24  C22 8UH G1620     -51.531 145.516  10.650  1.00 25.46     0.045 C 
HETATM   25  C23 8UH G1620     -50.962 146.670  11.457  1.00 25.46     0.123 C 
HETATM   26  C24 8UH G1620     -50.144 147.577  10.565  1.00 25.46     0.066 C 
HETATM   27  C25 8UH G1620     -49.029 146.754   9.991  1.00 25.46    -0.074 C 
HETATM   28  C26 8UH G1620     -49.285 145.585   9.395  1.00 25.46    -0.048 C 
HETATM   29  C27 8UH G1620     -48.272 144.944   8.508  1.00 25.46     0.009 C 
HETATM   30  C28 8UH G1620     -47.306 144.156   8.989  1.00 25.46     0.007 C 
HETATM   31  C29 8UH G1620     -46.295 143.499   8.166  1.00 66.29    -0.062 C 
HETATM   32  C30 8UH G1620     -45.647 142.463   8.705  1.00 66.29     0.007 C 
HETATM   33  C31 8UH G1620     -44.628 141.681   8.019  1.00 66.29     0.001 C 
HETATM   34  C32 8UH G1620     -44.015 140.766   8.758  1.00 66.29     0.007 C 
HETATM   35  C33 8UH G1620     -42.979 139.873   8.226  1.00 66.29    -0.062 C 
HETATM   36  C34 8UH G1620     -42.388 139.025   9.072  1.00 66.29     0.007 C 
HETATM   37  C35 8UH G1620     -41.371 138.093   8.605  1.00 66.29     0.001 C 
HETATM   38  C36 8UH G1620     -51.430 144.887   8.275  1.00 25.46     0.020 C 
HETATM   39  C37 8UH G1620     -50.328 143.484   9.996  1.00 25.46     0.020 C 
HETATM   40  C38 8UH G1620     -47.891 147.630   9.574  1.00 25.46     0.044 C 
HETATM   41  C39 8UH G1620     -46.011 143.975   6.771  1.00 66.29     0.048 C 
HETATM   42  C40 8UH G1620     -42.624 139.912   6.769  1.00 66.29     0.048 C 
HETATM   43  O23 8UH G1620     -52.050 147.413  12.012  1.00 25.46    -0.395 OA
ATOM     44  H23 8UH G1620     -52.563 146.843  12.573  1.00  0.00     0.210 HD
ENDROOT
TORSDOF 12
