REMARK VINA RESULT:   -10.222      0.000      0.000
REMARK INTER + INTRA:         -11.566
REMARK INTER:                 -10.222
REMARK INTRA:                  -1.344
REMARK UNBOUND:                -1.344
REMARK  0 active torsions:
REMARK  status: ('A' for Active; 'I' for Inactive)
REMARK       I    between atoms: C3_3  and  O3_21 
REMARK       I    between atoms: C6_6  and  C7_7 
REMARK       I    between atoms: C8_8  and  C9_9 
REMARK       I    between atoms: C10_10  and  C11_11 
REMARK       I    between atoms: C12_12  and  C13_13 
REMARK       I    between atoms: C14_14  and  C15_15 
REMARK       I    between atoms: C23_25  and  O23_43 
REMARK       I    between atoms: C26_28  and  C27_29 
REMARK       I    between atoms: C28_30  and  C29_31 
REMARK       I    between atoms: C30_32  and  C31_33 
REMARK       I    between atoms: C32_34  and  C33_35 
REMARK       I    between atoms: C34_36  and  C35_37 
ROOT
HETATM    1  C1  8UH 71620     -34.264 128.734   6.660  1.00 70.34    -0.018 C 
HETATM    2  C2  8UH 71620     -33.376 128.546   5.447  1.00 70.34     0.045 C 
HETATM    3  C3  8UH 71620     -31.898 128.324   5.718  1.00 70.34     0.123 C 
HETATM    4  C4  8UH 71620     -31.344 129.265   6.772  1.00 70.34     0.066 C 
HETATM    5  C5  8UH 71620     -32.305 129.751   7.818  1.00 70.34    -0.074 C 
HETATM    6  C6  8UH 71620     -33.628 129.585   7.736  1.00 70.34    -0.048 C 
HETATM    7  C7  8UH 71620     -34.530 130.204   8.735  1.00 70.34     0.009 C 
HETATM    8  C8  8UH 71620     -35.109 131.386   8.546  1.00 70.34     0.007 C 
HETATM    9  C9  8UH 71620     -36.017 131.971   9.531  1.00 70.34    -0.062 C 
HETATM   10  C10 8UH 71620     -36.502 133.170   9.227  1.00 70.34     0.007 C 
HETATM   11  C11 8UH 71620     -37.435 133.922  10.037  1.00 70.34     0.001 C 
HETATM   12  C12 8UH 71620     -38.067 134.848   9.335  1.00 70.34     0.007 C 
HETATM   13  C13 8UH 71620     -39.081 135.749   9.884  1.00 70.34    -0.062 C 
HETATM   14  C14 8UH 71620     -39.653 136.588   9.029  1.00 70.34     0.007 C 
HETATM   15  C15 8UH 71620     -40.684 137.519   9.438  1.00 70.34     0.001 C 
HETATM   16  C16 8UH 71620     -34.657 127.365   7.196  1.00 70.34     0.020 C 
HETATM   17  C17 8UH 71620     -35.511 129.459   6.172  1.00 70.34     0.020 C 
HETATM   18  C18 8UH 71620     -31.681 130.716   8.785  1.00 70.34     0.044 C 
HETATM   19  C19 8UH 71620     -36.374 131.234  10.780  1.00 70.34     0.048 C 
HETATM   20  C20 8UH 71620     -39.457 135.721  11.332  1.00 70.34     0.048 C 
HETATM   21  O3  8UH 71620     -31.631 126.967   6.082  1.00 70.34    -0.395 OA
ATOM     22  H3  8UH 71620     -30.706 126.828   6.252  1.00  0.00     0.210 HD
HETATM   23  C21 8UH 71620     -50.532 144.983   9.703  1.00 19.63    -0.018 C 
HETATM   24  C22 8UH 71620     -51.448 145.547  10.787  1.00 19.63     0.045 C 
HETATM   25  C23 8UH 71620     -50.864 146.598  11.717  1.00 19.63     0.123 C 
HETATM   26  C24 8UH 71620     -49.938 147.519  10.951  1.00 19.63     0.066 C 
HETATM   27  C25 8UH 71620     -48.843 146.658  10.405  1.00 19.63    -0.074 C 
HETATM   28  C26 8UH 71620     -49.144 145.599   9.649  1.00 19.63    -0.048 C 
HETATM   29  C27 8UH 71620     -48.161 145.006   8.706  1.00 19.63     0.009 C 
HETATM   30  C28 8UH 71620     -47.190 144.185   9.107  1.00 19.63     0.007 C 
HETATM   31  C29 8UH 71620     -46.240 143.584   8.167  1.00 70.34    -0.062 C 
HETATM   32  C30 8UH 71620     -45.467 142.623   8.660  1.00 70.34     0.007 C 
HETATM   33  C31 8UH 71620     -44.468 141.900   7.896  1.00 70.34     0.001 C 
HETATM   34  C32 8UH 71620     -43.839 140.983   8.613  1.00 70.34     0.007 C 
HETATM   35  C33 8UH 71620     -42.787 140.115   8.086  1.00 70.34    -0.062 C 
HETATM   36  C34 8UH 71620     -42.293 139.197   8.914  1.00 70.34     0.007 C 
HETATM   37  C35 8UH 71620     -41.251 138.275   8.507  1.00 70.34     0.001 C 
HETATM   38  C36 8UH 71620     -51.253 145.145   8.370  1.00 19.63     0.020 C 
HETATM   39  C37 8UH 71620     -50.349 143.502   9.975  1.00 19.63     0.020 C 
HETATM   40  C38 8UH 71620     -47.728 147.600  10.071  1.00 19.63     0.044 C 
HETATM   41  C39 8UH 71620     -46.153 144.027   6.738  1.00 70.34     0.048 C 
HETATM   42  C40 8UH 71620     -42.293 140.267   6.684  1.00 70.34     0.048 C 
HETATM   43  O23 8UH 71620     -51.933 147.364  12.273  1.00 19.63    -0.395 OA
ATOM     44  H23 8UH 71620     -52.514 146.785  12.754  1.00  0.00     0.210 HD
ENDROOT
TORSDOF 12
