REMARK VINA RESULT:   -11.208      0.000      0.000
REMARK INTER + INTRA:         -14.547
REMARK INTER:                 -11.208
REMARK INTRA:                  -3.339
REMARK UNBOUND:                -3.339
REMARK  0 active torsions:
REMARK  status: ('A' for Active; 'I' for Inactive)
REMARK       I    between atoms: C3_3  and  O3_21 
REMARK       I    between atoms: C6_6  and  C7_7 
REMARK       I    between atoms: C8_8  and  C9_9 
REMARK       I    between atoms: C10_10  and  C11_11 
REMARK       I    between atoms: C12_12  and  C13_13 
REMARK       I    between atoms: C14_14  and  C15_15 
REMARK       I    between atoms: C23_25  and  O23_43 
REMARK       I    between atoms: C26_28  and  C27_29 
REMARK       I    between atoms: C28_30  and  C29_31 
REMARK       I    between atoms: C30_32  and  C31_33 
REMARK       I    between atoms: C32_34  and  C33_35 
REMARK       I    between atoms: C34_36  and  C35_37 
ROOT
HETATM    1  C1  8UH J9621     -48.013 145.957  12.627  1.00 21.11    -0.018 C 
HETATM    2  C2  8UH J9621     -48.647 146.473  13.931  1.00 20.11     0.045 C 
HETATM    3  C3  8UH J9621     -48.016 147.650  14.671  1.00 19.41     0.123 C 
HETATM    4  C4  8UH J9621     -46.696 148.181  14.094  1.00 18.39     0.066 C 
HETATM    5  C5  8UH J9621     -45.982 147.484  12.984  1.00 18.34    -0.074 C 
HETATM    6  C6  8UH J9621     -46.563 146.460  12.270  1.00 19.81    -0.048 C 
HETATM    7  C7  8UH J9621     -45.939 145.757  11.126  1.00 19.02     0.009 C 
HETATM    8  C8  8UH J9621     -45.038 144.761  11.231  1.00 17.97     0.007 C 
HETATM    9  C9  8UH J9621     -44.384 144.022  10.147  1.00 18.85    -0.062 C 
HETATM   10  C10 8UH J9621     -43.604 142.970  10.493  1.00 18.38     0.007 C 
HETATM   11  C11 8UH J9621     -42.934 142.048   9.607  1.00 18.57     0.001 C 
HETATM   12  C12 8UH J9621     -42.247 140.981  10.070  1.00 17.11     0.007 C 
HETATM   13  C13 8UH J9621     -41.592 139.924   9.284  1.00 20.42    -0.062 C 
HETATM   14  C14 8UH J9621     -40.985 138.918   9.955  1.00 20.50     0.007 C 
HETATM   15  C15 8UH J9621     -40.331 137.768   9.380  1.00 20.22     0.001 C 
HETATM   16  C16 8UH J9621     -49.025 146.381  11.534  1.00 19.56     0.020 C 
HETATM   17  C17 8UH J9621     -48.044 144.418  12.733  1.00 18.49     0.020 C 
HETATM   18  C18 8UH J9621     -44.668 148.140  12.774  1.00 16.89     0.044 C 
HETATM   19  C19 8UH J9621     -44.685 144.438   8.735  1.00 14.61     0.048 C 
HETATM   20  C20 8UH J9621     -41.666 140.007   7.778  1.00 17.59     0.048 C 
HETATM   21  O3  8UH J9621     -48.953 148.705  14.800  1.00 18.27    -0.395 OA
ATOM     22  H3  8UH J9621     -49.770 148.377  15.157  1.00  0.00     0.210 HD
HETATM   23  C21 8UH J9621     -34.308 126.961   6.356  1.00 43.24    -0.018 C 
HETATM   24  C22 8UH J9621     -34.091 126.447   4.931  1.00 43.24     0.045 C 
HETATM   25  C23 8UH J9621     -33.085 127.177   4.042  1.00 43.24     0.123 C 
HETATM   26  C24 8UH J9621     -31.988 127.852   4.839  1.00 43.24     0.066 C 
HETATM   27  C25 8UH J9621     -32.618 128.737   5.877  1.00 43.24    -0.074 C 
HETATM   28  C26 8UH J9621     -33.603 128.277   6.657  1.00 43.24    -0.048 C 
HETATM   29  C27 8UH J9621     -33.999 129.069   7.849  1.00 43.24     0.009 C 
HETATM   30  C28 8UH J9621     -34.959 129.992   7.771  1.00 43.24     0.007 C 
HETATM   31  C29 8UH J9621     -35.405 130.844   8.910  1.00 19.55    -0.062 C 
HETATM   32  C30 8UH J9621     -36.360 131.772   8.674  1.00 17.66     0.007 C 
HETATM   33  C31 8UH J9621     -36.916 132.693   9.636  1.00 19.12     0.001 C 
HETATM   34  C32 8UH J9621     -37.746 133.701   9.280  1.00 19.40     0.007 C 
HETATM   35  C33 8UH J9621     -38.368 134.741  10.119  1.00 19.31    -0.062 C 
HETATM   36  C34 8UH J9621     -39.085 135.703   9.498  1.00 17.72     0.007 C 
HETATM   37  C35 8UH J9621     -39.726 136.833  10.113  1.00 19.92     0.001 C 
HETATM   38  C36 8UH J9621     -33.858 125.850   7.300  1.00 43.24     0.020 C 
HETATM   39  C37 8UH J9621     -35.798 127.182   6.572  1.00 43.24     0.020 C 
HETATM   40  C38 8UH J9621     -31.725 129.867   6.306  1.00 43.24     0.044 C 
HETATM   41  C39 8UH J9621     -34.716 130.671  10.238  1.00 18.53     0.048 C 
HETATM   42  C40 8UH J9621     -38.107 134.701  11.600  1.00 15.86     0.048 C 
HETATM   43  O23 8UH J9621     -32.479 126.231   3.155  1.00 43.24    -0.395 OA
ATOM     44  H23 8UH J9621     -31.853 126.685   2.602  1.00  0.00     0.210 HD
ENDROOT
TORSDOF 12
