REMARK VINA RESULT:   -10.909      0.000      0.000
REMARK INTER + INTRA:         -13.619
REMARK INTER:                 -10.909
REMARK INTRA:                  -2.710
REMARK UNBOUND:                -2.710
REMARK  0 active torsions:
REMARK  status: ('A' for Active; 'I' for Inactive)
REMARK       I    between atoms: C3_3  and  O3_21 
REMARK       I    between atoms: C6_6  and  C7_7 
REMARK       I    between atoms: C8_8  and  C9_9 
REMARK       I    between atoms: C10_10  and  C11_11 
REMARK       I    between atoms: C12_12  and  C13_13 
REMARK       I    between atoms: C14_14  and  C15_15 
REMARK       I    between atoms: C23_25  and  O23_43 
REMARK       I    between atoms: C26_28  and  C27_29 
REMARK       I    between atoms: C28_30  and  C29_31 
REMARK       I    between atoms: C30_32  and  C31_33 
REMARK       I    between atoms: C32_34  and  C33_35 
REMARK       I    between atoms: C34_36  and  C35_37 
ROOT
HETATM    1  C1  8UH 1 617     -34.386 127.419   6.464  1.00 21.49    -0.018 C 
HETATM    2  C2  8UH 1 617     -33.866 127.072   5.073  1.00 21.49     0.045 C 
HETATM    3  C3  8UH 1 617     -32.560 127.712   4.627  1.00 21.49     0.123 C 
HETATM    4  C4  8UH 1 617     -31.590 127.882   5.774  1.00 21.49     0.066 C 
HETATM    5  C5  8UH 1 617     -32.247 128.634   6.897  1.00 21.49    -0.074 C 
HETATM    6  C6  8UH 1 617     -33.529 128.419   7.225  1.00 21.49    -0.048 C 
HETATM    7  C7  8UH 1 617     -34.134 129.159   8.364  1.00 21.49     0.009 C 
HETATM    8  C8  8UH 1 617     -34.815 130.290   8.179  1.00 21.49     0.007 C 
HETATM    9  C9  8UH 1 617     -35.429 131.061   9.271  1.00 21.49    -0.062 C 
HETATM   10  C10 8UH 1 617     -36.170 132.112   8.903  1.00 21.49     0.007 C 
HETATM   11  C11 8UH 1 617     -36.886 133.023   9.785  1.00 21.49     0.001 C 
HETATM   12  C12 8UH 1 617     -37.539 133.961   9.116  1.00 21.49     0.007 C 
HETATM   13  C13 8UH 1 617     -38.381 135.009   9.705  1.00 21.49    -0.062 C 
HETATM   14  C14 8UH 1 617     -39.120 135.720   8.849  1.00 21.49     0.007 C 
HETATM   15  C15 8UH 1 617     -40.036 136.766   9.277  1.00 21.49     0.001 C 
HETATM   16  C16 8UH 1 617     -34.522 126.099   7.221  1.00 21.49     0.020 C 
HETATM   17  C17 8UH 1 617     -35.768 128.030   6.295  1.00 21.49     0.020 C 
HETATM   18  C18 8UH 1 617     -31.380 129.599   7.654  1.00 21.49     0.044 C 
HETATM   19  C19 8UH 1 617     -35.212 130.692  10.705  1.00 21.49     0.048 C 
HETATM   20  C20 8UH 1 617     -38.430 135.260  11.180  1.00 21.49     0.048 C 
HETATM   21  O3  8UH 1 617     -31.951 126.851   3.660  1.00 21.49    -0.395 OA
ATOM     22  H3  8UH 1 617     -31.136 127.251   3.381  1.00  0.00     0.210 HD
HETATM   23  C21 8UH 1 617     -49.725 144.675   9.478  1.00 73.56    -0.018 C 
HETATM   24  C22 8UH 1 617     -50.485 145.344  10.625  1.00 73.56     0.045 C 
HETATM   25  C23 8UH 1 617     -49.772 146.425  11.435  1.00 73.56     0.123 C 
HETATM   26  C24 8UH 1 617     -48.765 147.185  10.584  1.00 73.56     0.066 C 
HETATM   27  C25 8UH 1 617     -47.809 146.175  10.009  1.00 73.56    -0.074 C 
HETATM   28  C26 8UH 1 617     -48.275 145.116   9.338  1.00 73.56    -0.048 C 
HETATM   29  C27 8UH 1 617     -47.385 144.370   8.415  1.00 73.56     0.009 C 
HETATM   30  C28 8UH 1 617     -46.561 143.403   8.829  1.00 73.56     0.007 C 
HETATM   31  C29 8UH 1 617     -45.695 142.683   7.887  1.00 21.49    -0.062 C 
HETATM   32  C30 8UH 1 617     -45.134 141.572   8.353  1.00 21.49     0.007 C 
HETATM   33  C31 8UH 1 617     -44.264 140.706   7.578  1.00 21.49     0.001 C 
HETATM   34  C32 8UH 1 617     -43.500 139.929   8.328  1.00 21.49     0.007 C 
HETATM   35  C33 8UH 1 617     -42.539 138.950   7.816  1.00 21.49    -0.062 C 
HETATM   36  C34 8UH 1 617     -41.806 138.295   8.724  1.00 21.49     0.007 C 
HETATM   37  C35 8UH 1 617     -40.843 137.276   8.353  1.00 21.49     0.001 C 
HETATM   38  C36 8UH 1 617     -50.503 144.947   8.192  1.00 73.56     0.020 C 
HETATM   39  C37 8UH 1 617     -49.708 143.172   9.729  1.00 73.56     0.020 C 
HETATM   40  C38 8UH 1 617     -46.559 146.889   9.579  1.00 73.56     0.044 C 
HETATM   41  C39 8UH 1 617     -45.468 143.161   6.486  1.00 21.49     0.048 C 
HETATM   42  C40 8UH 1 617     -42.407 138.697   6.349  1.00 21.49     0.048 C 
HETATM   43  O23 8UH 1 617     -50.746 147.344  11.944  1.00 73.56    -0.395 OA
ATOM     44  H23 8UH 1 617     -50.303 148.016  12.448  1.00  0.00     0.210 HD
ENDROOT
TORSDOF 12
