REMARK VINA RESULT:   -11.454      0.000      0.000
REMARK INTER + INTRA:         -14.575
REMARK INTER:                 -11.454
REMARK INTRA:                  -3.121
REMARK UNBOUND:                -3.121
REMARK  0 active torsions:
REMARK  status: ('A' for Active; 'I' for Inactive)
REMARK       I    between atoms: C3_3  and  O3_21 
REMARK       I    between atoms: C6_6  and  C7_7 
REMARK       I    between atoms: C8_8  and  C9_9 
REMARK       I    between atoms: C10_10  and  C11_11 
REMARK       I    between atoms: C12_12  and  C13_13 
REMARK       I    between atoms: C14_14  and  C15_15 
REMARK       I    between atoms: C23_25  and  O23_43 
REMARK       I    between atoms: C26_28  and  C27_29 
REMARK       I    between atoms: C28_30  and  C29_31 
REMARK       I    between atoms: C30_32  and  C31_33 
REMARK       I    between atoms: C32_34  and  C33_35 
REMARK       I    between atoms: C34_36  and  C35_37 
ROOT
HETATM    1  C1  8UH 7 621     -49.006 144.589  12.206  1.00 16.14    -0.018 C 
HETATM    2  C2  8UH 7 621     -49.556 145.237  13.475  1.00 16.14     0.045 C 
HETATM    3  C3  8UH 7 621     -48.650 146.231  14.180  1.00 16.14     0.123 C 
HETATM    4  C4  8UH 7 621     -47.964 147.125  13.175  1.00 16.14     0.066 C 
HETATM    5  C5  8UH 7 621     -47.151 146.259  12.262  1.00 16.14    -0.074 C 
HETATM    6  C6  8UH 7 621     -47.684 145.158  11.720  1.00 16.14    -0.048 C 
HETATM    7  C7  8UH 7 621     -46.988 144.493  10.593  1.00 16.14     0.009 C 
HETATM    8  C8  8UH 7 621     -46.009 143.599  10.756  1.00 16.14     0.007 C 
HETATM    9  C9  8UH 7 621     -45.354 142.985   9.594  1.00 16.14    -0.062 C 
HETATM   10  C10 8UH 7 621     -44.415 142.052   9.821  1.00 16.14     0.007 C 
HETATM   11  C11 8UH 7 621     -43.644 141.306   8.825  1.00 16.14     0.001 C 
HETATM   12  C12 8UH 7 621     -42.660 140.548   9.307  1.00 16.14     0.007 C 
HETATM   13  C13 8UH 7 621     -41.793 139.672   8.498  1.00 16.14    -0.062 C 
HETATM   14  C14 8UH 7 621     -41.201 138.665   9.152  1.00 16.14     0.007 C 
HETATM   15  C15 8UH 7 621     -40.366 137.650   8.523  1.00 16.14     0.001 C 
HETATM   16  C16 8UH 7 621     -50.089 144.704  11.138  1.00 16.14     0.020 C 
HETATM   17  C17 8UH 7 621     -48.764 143.114  12.491  1.00 16.14     0.020 C 
HETATM   18  C18 8UH 7 621     -46.027 147.018  11.621  1.00 16.14     0.044 C 
HETATM   19  C19 8UH 7 621     -45.735 143.456   8.228  1.00 16.14     0.048 C 
HETATM   20  C20 8UH 7 621     -41.602 139.867   7.027  1.00 16.14     0.048 C 
HETATM   21  O3  8UH 7 621     -49.431 147.045  15.056  1.00 16.14    -0.395 OA
ATOM     22  H3  8UH 7 621     -48.864 147.666  15.497  1.00  0.00     0.210 HD
HETATM   23  C21 8UH 7 621     -34.349 126.856   6.371  1.00 89.78    -0.018 C 
HETATM   24  C22 8UH 7 621     -34.023 126.281   4.988  1.00 90.48     0.045 C 
HETATM   25  C23 8UH 7 621     -33.071 127.083   4.107  1.00 89.65     0.123 C 
HETATM   26  C24 8UH 7 621     -31.995 127.746   4.943  1.00 88.26     0.066 C 
HETATM   27  C25 8UH 7 621     -32.675 128.646   5.933  1.00 86.93    -0.074 C 
HETATM   28  C26 8UH 7 621     -33.687 128.188   6.664  1.00 87.83    -0.048 C 
HETATM   29  C27 8UH 7 621     -34.190 129.009   7.786  1.00 88.05     0.009 C 
HETATM   30  C28 8UH 7 621     -35.027 130.018   7.545  1.00 88.38     0.007 C 
HETATM   31  C29 8UH 7 621     -35.552 130.863   8.628  1.00 16.14    -0.062 C 
HETATM   32  C30 8UH 7 621     -36.609 131.628   8.339  1.00 16.14     0.007 C 
HETATM   33  C31 8UH 7 621     -37.248 132.528   9.287  1.00 16.14     0.001 C 
HETATM   34  C32 8UH 7 621     -37.943 133.503   8.722  1.00 16.14     0.007 C 
HETATM   35  C33 8UH 7 621     -38.673 134.553   9.445  1.00 16.14    -0.062 C 
HETATM   36  C34 8UH 7 621     -39.254 135.506   8.705  1.00 16.14     0.007 C 
HETATM   37  C35 8UH 7 621     -40.039 136.598   9.267  1.00 16.14     0.001 C 
HETATM   38  C36 8UH 7 621     -33.916 125.850   7.431  1.00 89.80     0.020 C 
HETATM   39  C37 8UH 7 621     -35.856 127.049   6.473  1.00 89.92     0.020 C 
HETATM   40  C38 8UH 7 621     -31.870 129.829   6.381  1.00 86.44     0.044 C 
HETATM   41  C39 8UH 7 621     -34.931 130.864   9.990  1.00 16.14     0.048 C 
HETATM   42  C40 8UH 7 621     -38.727 134.563  10.941  1.00 16.14     0.048 C 
HETATM   43  O23 8UH 7 621     -32.436 126.212   3.162  1.00 90.37    -0.395 OA
ATOM     44  H23 8UH 7 621     -31.843 126.711   2.613  1.00  0.00     0.210 HD
ENDROOT
TORSDOF 12
