REMARK VINA RESULT:    -9.020      0.000      0.000
REMARK INTER + INTRA:         -10.189
REMARK INTER:                  -9.020
REMARK INTRA:                  -1.169
REMARK UNBOUND:                -1.169
REMARK  0 active torsions:
REMARK  status: ('A' for Active; 'I' for Inactive)
REMARK       I    between atoms: C3_3  and  O3_21 
REMARK       I    between atoms: C6_6  and  C7_7 
REMARK       I    between atoms: C8_8  and  C9_9 
REMARK       I    between atoms: C10_10  and  C11_11 
REMARK       I    between atoms: C12_12  and  C13_13 
REMARK       I    between atoms: C14_14  and  C15_15 
REMARK       I    between atoms: C23_25  and  O23_43 
REMARK       I    between atoms: C26_28  and  C27_29 
REMARK       I    between atoms: C28_30  and  C29_31 
REMARK       I    between atoms: C30_32  and  C31_33 
REMARK       I    between atoms: C32_34  and  C33_35 
REMARK       I    between atoms: C34_36  and  C35_37 
ROOT
HETATM    1  C1  8UH 2 615     -50.922 145.342  10.513  1.00 79.94    -0.018 C 
HETATM    2  C2  8UH 2 615     -51.876 145.980  11.521  1.00 79.60     0.045 C 
HETATM    3  C3  8UH 2 615     -51.220 146.734  12.668  1.00 80.06     0.123 C 
HETATM    4  C4  8UH 2 615     -50.176 147.688  12.123  1.00 79.91     0.066 C 
HETATM    5  C5  8UH 2 615     -49.153 146.907  11.342  1.00 78.96    -0.074 C 
HETATM    6  C6  8UH 2 615     -49.513 145.906  10.534  1.00 78.99    -0.048 C 
HETATM    7  C7  8UH 2 615     -48.503 145.327   9.618  1.00 78.77     0.009 C 
HETATM    8  C8  8UH 2 615     -47.616 144.433  10.059  1.00 79.10     0.007 C 
HETATM    9  C9  8UH 2 615     -46.599 143.844   9.168  1.00 80.39    -0.062 C 
HETATM   10  C10 8UH 2 615     -45.722 142.971   9.687  1.00 81.39     0.007 C 
HETATM   11  C11 8UH 2 615     -44.677 142.325   8.897  1.00 81.92     0.001 C 
HETATM   12  C12 8UH 2 615     -43.923 141.417   9.510  1.00 82.76     0.007 C 
HETATM   13  C13 8UH 2 615     -42.845 140.677   8.829  1.00 83.90    -0.062 C 
HETATM   14  C14 8UH 2 615     -42.364 139.575   9.424  1.00 84.98     0.007 C 
HETATM   15  C15 8UH 2 615     -41.317 138.750   8.831  1.00 86.34     0.001 C 
HETATM   16  C16 8UH 2 615     -51.510 145.537   9.122  1.00 79.93     0.020 C 
HETATM   17  C17 8UH 2 615     -50.826 143.850  10.815  1.00 80.89     0.020 C 
HETATM   18  C18 8UH 2 615     -47.829 147.592  11.172  1.00 77.35     0.044 C 
HETATM   19  C19 8UH 2 615     -46.545 144.223   7.718  1.00 80.43     0.048 C 
HETATM   20  C20 8UH 2 615     -42.306 141.144   7.509  1.00 83.80     0.048 C 
HETATM   21  O3  8UH 2 615     -52.217 147.483  13.371  1.00 80.93    -0.395 OA
ATOM     22  H3  8UH 2 615     -51.807 147.955  14.088  1.00  0.00     0.210 HD
HETATM   23  C21 8UH 2 615     -34.259 128.646   6.758  1.00 48.79    -0.018 C 
HETATM   24  C22 8UH 2 615     -33.341 128.488   5.553  1.00 49.38     0.045 C 
HETATM   25  C23 8UH 2 615     -31.850 128.309   5.831  1.00 51.85     0.123 C 
HETATM   26  C24 8UH 2 615     -31.318 129.254   6.894  1.00 54.16     0.066 C 
HETATM   27  C25 8UH 2 615     -32.314 129.694   7.932  1.00 52.93    -0.074 C 
HETATM   28  C26 8UH 2 615     -33.645 129.549   7.814  1.00 53.44    -0.048 C 
HETATM   29  C27 8UH 2 615     -34.554 130.265   8.750  1.00 56.18     0.009 C 
HETATM   30  C28 8UH 2 615     -35.160 131.408   8.418  1.00 54.04     0.007 C 
HETATM   31  C29 8UH 2 615     -36.076 132.121   9.315  1.00 89.92    -0.062 C 
HETATM   32  C30 8UH 2 615     -36.752 133.170   8.827  1.00 89.40     0.007 C 
HETATM   33  C31 8UH 2 615     -37.705 133.943   9.615  1.00 87.93     0.001 C 
HETATM   34  C32 8UH 2 615     -38.332 134.931   8.985  1.00 87.59     0.007 C 
HETATM   35  C33 8UH 2 615     -39.338 135.789   9.633  1.00 88.80    -0.062 C 
HETATM   36  C34 8UH 2 615     -39.873 136.803   8.934  1.00 88.99     0.007 C 
HETATM   37  C35 8UH 2 615     -40.896 137.677   9.499  1.00 88.02     0.001 C 
HETATM   38  C36 8UH 2 615     -34.572 127.279   7.343  1.00 50.92     0.020 C 
HETATM   39  C37 8UH 2 615     -35.575 129.246   6.271  1.00 48.05     0.020 C 
HETATM   40  C38 8UH 2 615     -31.701 130.770   8.768  1.00 55.82     0.044 C 
HETATM   41  C39 8UH 2 615     -36.259 131.679  10.738  1.00 89.99     0.048 C 
HETATM   42  C40 8UH 2 615     -39.764 135.520  11.046  1.00 89.61     0.048 C 
HETATM   43  O23 8UH 2 615     -31.526 126.953   6.166  1.00 50.70    -0.395 OA
ATOM     44  H23 8UH 2 615     -30.599 126.842   6.339  1.00  0.00     0.210 HD
ENDROOT
TORSDOF 12
