REMARK VINA RESULT:    -7.926      0.364     16.956
REMARK INTER + INTRA:         -10.602
REMARK INTER:                  -8.066
REMARK INTRA:                  -2.537
REMARK UNBOUND:                -2.676
REMARK  0 active torsions:
REMARK  status: ('A' for Active; 'I' for Inactive)
REMARK       I    between atoms: C3_3  and  O3_21 
REMARK       I    between atoms: C6_6  and  C7_7 
REMARK       I    between atoms: C8_8  and  C9_9 
REMARK       I    between atoms: C10_10  and  C11_11 
REMARK       I    between atoms: C12_12  and  C13_13 
REMARK       I    between atoms: C14_14  and  C15_15 
REMARK       I    between atoms: C23_25  and  O23_43 
REMARK       I    between atoms: C26_28  and  C27_29 
REMARK       I    between atoms: C28_30  and  C29_31 
REMARK       I    between atoms: C30_32  and  C31_33 
REMARK       I    between atoms: C32_34  and  C33_35 
REMARK       I    between atoms: C34_36  and  C35_37 
ROOT
HETATM    1  C1  8UH I8620     -34.570 126.938   6.222  1.00 16.69    -0.018 C 
HETATM    2  C2  8UH I8620     -34.021 126.194   4.993  1.00 15.88     0.045 C 
HETATM    3  C3  8UH I8620     -32.911 126.850   4.184  1.00 15.19     0.123 C 
HETATM    4  C4  8UH I8620     -31.965 127.736   5.000  1.00 16.30     0.066 C 
HETATM    5  C5  8UH I8620     -32.534 128.503   6.150  1.00 15.97    -0.074 C 
HETATM    6  C6  8UH I8620     -33.733 128.156   6.727  1.00 16.56    -0.048 C 
HETATM    7  C7  8UH I8620     -34.279 128.932   7.842  1.00 18.44     0.009 C 
HETATM    8  C8  8UH I8620     -34.907 130.117   7.754  1.00 18.42     0.007 C 
HETATM    9  C9  8UH I8620     -35.338 130.945   8.867  1.00 20.59    -0.062 C 
HETATM   10  C10 8UH I8620     -36.048 132.058   8.584  1.00 20.51     0.007 C 
HETATM   11  C11 8UH I8620     -36.573 132.994   9.527  1.00 21.63     0.001 C 
HETATM   12  C12 8UH I8620     -37.417 133.949   9.125  1.00 21.98     0.007 C 
HETATM   13  C13 8UH I8620     -38.085 134.967   9.933  1.00 23.28    -0.062 C 
HETATM   14  C14 8UH I8620     -38.990 135.750   9.305  1.00 23.72     0.007 C 
HETATM   15  C15 8UH I8620     -39.836 136.759   9.876  1.00 25.53     0.001 C 
HETATM   16  C16 8UH I8620     -34.634 125.850   7.309  1.00 15.77     0.020 C 
HETATM   17  C17 8UH I8620     -36.017 127.355   5.898  1.00 17.40     0.020 C 
HETATM   18  C18 8UH I8620     -31.600 129.615   6.477  1.00 16.04     0.044 C 
HETATM   19  C19 8UH I8620     -35.007 130.475  10.261  1.00 19.43     0.048 C 
HETATM   20  C20 8UH I8620     -37.774 135.022  11.406  1.00 18.80     0.048 C 
HETATM   21  O3  8UH I8620     -32.173 125.865   3.491  1.00 16.64    -0.395 OA
ATOM     22  H3  8UH I8620     -31.481 126.275   2.985  1.00  0.00     0.210 HD
HETATM   23  C21 8UH I8620     -49.409 144.740  12.596  1.00 19.63    -0.018 C 
HETATM   24  C22 8UH I8620     -49.935 145.389  13.873  1.00 19.63     0.045 C 
HETATM   25  C23 8UH I8620     -48.997 146.328  14.615  1.00 19.63     0.123 C 
HETATM   26  C24 8UH I8620     -48.180 147.139  13.634  1.00 19.63     0.066 C 
HETATM   27  C25 8UH I8620     -47.385 146.155  12.832  1.00 19.63    -0.074 C 
HETATM   28  C26 8UH I8620     -48.009 145.166  12.186  1.00 19.63    -0.048 C 
HETATM   29  C27 8UH I8620     -47.387 144.475  11.028  1.00 19.63     0.009 C 
HETATM   30  C28 8UH I8620     -46.466 143.520  11.175  1.00 19.63     0.007 C 
HETATM   31  C29 8UH I8620     -45.842 142.790  10.024  1.00 33.65    -0.062 C 
HETATM   32  C30 8UH I8620     -44.923 141.845  10.316  1.00 30.63     0.007 C 
HETATM   33  C31 8UH I8620     -44.239 140.980   9.391  1.00 28.70     0.001 C 
HETATM   34  C32 8UH I8620     -43.303 140.100   9.805  1.00 25.67     0.007 C 
HETATM   35  C33 8UH I8620     -42.509 139.154   9.019  1.00 24.63    -0.062 C 
HETATM   36  C34 8UH I8620     -41.599 138.402   9.672  1.00 23.98     0.007 C 
HETATM   37  C35 8UH I8620     -40.710 137.425   9.112  1.00 25.49     0.001 C 
HETATM   38  C36 8UH I8620     -50.416 145.032  11.489  1.00 19.63     0.020 C 
HETATM   39  C37 8UH I8620     -49.364 143.240  12.824  1.00 19.63     0.020 C 
HETATM   40  C38 8UH I8620     -46.276 146.949  12.218  1.00 19.63     0.044 C 
HETATM   41  C39 8UH I8620     -46.264 143.148   8.622  1.00 33.66     0.048 C 
HETATM   42  C40 8UH I8620     -42.742 139.099   7.544  1.00 25.13     0.048 C 
HETATM   43  O23 8UH I8620     -49.778 147.214  15.420  1.00 19.63    -0.395 OA
ATOM     44  H23 8UH I8620     -49.192 147.801  15.884  1.00  0.00     0.210 HD
ENDROOT
TORSDOF 12
