REMARK VINA RESULT:    -9.963      1.446     15.897
REMARK INTER + INTRA:         -12.764
REMARK INTER:                 -10.689
REMARK INTRA:                  -2.076
REMARK UNBOUND:                -2.802
REMARK  0 active torsions:
REMARK  status: ('A' for Active; 'I' for Inactive)
REMARK       I    between atoms: C3_3  and  O3_21 
REMARK       I    between atoms: C6_6  and  C7_7 
REMARK       I    between atoms: C8_8  and  C9_9 
REMARK       I    between atoms: C10_10  and  C11_11 
REMARK       I    between atoms: C12_12  and  C13_13 
REMARK       I    between atoms: C14_14  and  C15_15 
REMARK       I    between atoms: C23_25  and  O23_43 
REMARK       I    between atoms: C26_28  and  C27_29 
REMARK       I    between atoms: C28_30  and  C29_31 
REMARK       I    between atoms: C30_32  and  C31_33 
REMARK       I    between atoms: C32_34  and  C33_35 
REMARK       I    between atoms: C34_36  and  C35_37 
ROOT
HETATM    1  C1  8UH W1620     -49.259 143.844  10.015  1.00 24.23    -0.018 C 
HETATM    2  C2  8UH W1620     -49.253 143.839  11.528  1.00 24.23     0.045 C 
HETATM    3  C3  8UH W1620     -48.004 144.418  12.136  1.00 24.23     0.123 C 
HETATM    4  C4  8UH W1620     -47.902 145.820  11.609  1.00 24.23     0.066 C 
HETATM    5  C5  8UH W1620     -47.741 145.789  10.125  1.00 24.23    -0.074 C 
HETATM    6  C6  8UH W1620     -48.186 144.745   9.437  1.00 24.23    -0.048 C 
HETATM    7  C7  8UH W1620     -47.408 144.224   8.320  1.00 24.23     0.009 C 
HETATM    8  C8  8UH W1620     -46.475 143.412   8.830  1.00 24.23     0.007 C 
HETATM    9  C9  8UH W1620     -45.488 142.687   8.009  1.00 24.23    -0.062 C 
HETATM   10  C10 8UH W1620     -44.639 141.862   8.648  1.00 24.23     0.007 C 
HETATM   11  C11 8UH W1620     -43.640 141.058   7.959  1.00 24.23     0.001 C 
HETATM   12  C12 8UH W1620     -42.869 140.220   8.642  1.00 24.23     0.007 C 
HETATM   13  C13 8UH W1620     -41.914 139.365   7.928  1.00 24.23    -0.062 C 
HETATM   14  C14 8UH W1620     -41.287 138.427   8.643  1.00 24.23     0.007 C 
HETATM   15  C15 8UH W1620     -40.366 137.434   8.110  1.00 24.23     0.001 C 
HETATM   16  C16 8UH W1620     -50.669 144.235   9.619  1.00 24.23     0.020 C 
HETATM   17  C17 8UH W1620     -48.986 142.433   9.528  1.00 24.23     0.020 C 
HETATM   18  C18 8UH W1620     -46.426 146.452   9.875  1.00 24.23     0.044 C 
HETATM   19  C19 8UH W1620     -45.468 142.877   6.524  1.00 24.23     0.048 C 
HETATM   20  C20 8UH W1620     -41.765 139.531   6.451  1.00 24.23     0.048 C 
HETATM   21  O3  8UH W1620     -48.166 144.488  13.547  1.00 24.23    -0.395 OA
ATOM     22  H3  8UH W1620     -48.230 143.601  13.881  1.00  0.00     0.210 HD
HETATM   23  C21 8UH W1620     -33.886 126.919   6.890  1.00 45.52    -0.018 C 
HETATM   24  C22 8UH W1620     -34.396 126.938   5.451  1.00 45.52     0.045 C 
HETATM   25  C23 8UH W1620     -33.802 128.049   4.593  1.00 45.52     0.123 C 
HETATM   26  C24 8UH W1620     -32.379 128.330   5.040  1.00 45.52     0.066 C 
HETATM   27  C25 8UH W1620     -32.466 128.871   6.437  1.00 45.52    -0.074 C 
HETATM   28  C26 8UH W1620     -33.253 128.221   7.305  1.00 45.52    -0.048 C 
HETATM   29  C27 8UH W1620     -33.752 128.886   8.511  1.00 45.52     0.009 C 
HETATM   30  C28 8UH W1620     -34.459 129.959   8.150  1.00 45.52     0.007 C 
HETATM   31  C29 8UH W1620     -35.235 130.769   9.113  1.00 24.23    -0.062 C 
HETATM   32  C30 8UH W1620     -35.981 131.753   8.580  1.00 24.23     0.007 C 
HETATM   33  C31 8UH W1620     -36.855 132.662   9.318  1.00 24.23     0.001 C 
HETATM   34  C32 8UH W1620     -37.524 133.590   8.636  1.00 24.23     0.007 C 
HETATM   35  C33 8UH W1620     -38.429 134.558   9.281  1.00 24.23    -0.062 C 
HETATM   36  C34 8UH W1620     -38.998 135.482   8.491  1.00 24.23     0.007 C 
HETATM   37  C35 8UH W1620     -39.907 136.523   8.956  1.00 24.23     0.001 C 
HETATM   38  C36 8UH W1620     -32.807 125.850   7.029  1.00 45.52     0.020 C 
HETATM   39  C37 8UH W1620     -35.026 126.613   7.850  1.00 45.52     0.020 C 
HETATM   40  C38 8UH W1620     -31.794 130.195   6.712  1.00 45.52     0.044 C 
HETATM   41  C39 8UH W1620     -35.205 130.435  10.577  1.00 24.23     0.048 C 
HETATM   42  C40 8UH W1620     -38.685 134.453  10.755  1.00 24.23     0.048 C 
HETATM   43  O23 8UH W1620     -33.793 127.656   3.218  1.00 45.52    -0.395 OA
ATOM     44  H23 8UH W1620     -34.684 127.480   2.939  1.00  0.00     0.210 HD
ENDROOT
TORSDOF 12
