REMARK VINA RESULT:    -6.305      1.232     16.516
REMARK INTER + INTRA:          -9.104
REMARK INTER:                  -6.982
REMARK INTRA:                  -2.122
REMARK UNBOUND:                -2.799
REMARK  0 active torsions:
REMARK  status: ('A' for Active; 'I' for Inactive)
REMARK       I    between atoms: C3_3  and  O3_21 
REMARK       I    between atoms: C6_6  and  C7_7 
REMARK       I    between atoms: C8_8  and  C9_9 
REMARK       I    between atoms: C10_10  and  C11_11 
REMARK       I    between atoms: C12_12  and  C13_13 
REMARK       I    between atoms: C14_14  and  C15_15 
REMARK       I    between atoms: C23_25  and  O23_43 
REMARK       I    between atoms: C26_28  and  C27_29 
REMARK       I    between atoms: C28_30  and  C29_31 
REMARK       I    between atoms: C30_32  and  C31_33 
REMARK       I    between atoms: C32_34  and  C33_35 
REMARK       I    between atoms: C34_36  and  C35_37 
ROOT
HETATM    1  C1  8UH g1620     -48.437 144.618  12.006  1.00 59.27    -0.018 C 
HETATM    2  C2  8UH g1620     -49.357 145.105  13.115  1.00 64.60     0.045 C 
HETATM    3  C3  8UH g1620     -48.648 145.625  14.347  1.00 63.28     0.123 C 
HETATM    4  C4  8UH g1620     -47.669 146.701  13.959  1.00 61.00     0.066 C 
HETATM    5  C5  8UH g1620     -46.701 146.178  12.936  1.00 64.87    -0.074 C 
HETATM    6  C6  8UH g1620     -47.054 145.254  12.019  1.00 63.96    -0.048 C 
HETATM    7  C7  8UH g1620     -46.108 144.852  10.944  1.00 64.82     0.009 C 
HETATM    8  C8  8UH g1620     -45.177 143.908  11.115  1.00 58.91     0.007 C 
HETATM    9  C9  8UH g1620     -44.255 143.505  10.054  1.00 59.76    -0.062 C 
HETATM   10  C10 8UH g1620     -43.440 142.489  10.352  1.00 59.44     0.007 C 
HETATM   11  C11 8UH g1620     -42.451 141.903   9.467  1.00 53.66     0.001 C 
HETATM   12  C12 8UH g1620     -41.917 140.795   9.954  1.00 59.47     0.007 C 
HETATM   13  C13 8UH g1620     -40.914 139.999   9.240  1.00 64.69    -0.062 C 
HETATM   14  C14 8UH g1620     -40.584 138.817   9.766  1.00 66.67     0.007 C 
HETATM   15  C15 8UH g1620     -39.629 137.922   9.129  1.00 73.65     0.001 C 
HETATM   16  C16 8UH g1620     -49.197 144.875  10.708  1.00 56.55     0.020 C 
HETATM   17  C17 8UH g1620     -48.232 143.121  12.170  1.00 59.14     0.020 C 
HETATM   18  C18 8UH g1620     -45.377 146.886  12.927  1.00 61.00     0.044 C 
HETATM   19  C19 8UH g1620     -44.238 144.219   8.736  1.00 55.95     0.048 C 
HETATM   20  C20 8UH g1620     -40.308 140.497   7.964  1.00 67.83     0.048 C 
HETATM   21  O3  8UH g1620     -49.617 146.177  15.242  1.00 73.40    -0.395 OA
ATOM     22  H3  8UH g1620     -49.172 146.503  16.016  1.00  0.00     0.210 HD
HETATM   23  C21 8UH g1620     -33.721 126.611   6.953  1.00 27.99    -0.018 C 
HETATM   24  C22 8UH g1620     -33.781 125.931   5.578  1.00 27.99     0.045 C 
HETATM   25  C23 8UH g1620     -33.621 126.861   4.383  1.00 27.99     0.123 C 
HETATM   26  C24 8UH g1620     -32.531 127.867   4.697  1.00 27.99     0.066 C 
HETATM   27  C25 8UH g1620     -33.076 128.714   5.810  1.00 27.99    -0.074 C 
HETATM   28  C26 8UH g1620     -33.505 128.117   6.929  1.00 27.99    -0.048 C 
HETATM   29  C27 8UH g1620     -34.000 128.888   8.092  1.00 27.99     0.009 C 
HETATM   30  C28 8UH g1620     -34.709 129.999   7.849  1.00 27.99     0.007 C 
HETATM   31  C29 8UH g1620     -35.438 130.670   8.958  1.00 93.82    -0.062 C 
HETATM   32  C30 8UH g1620     -36.128 131.742   8.573  1.00 83.29     0.007 C 
HETATM   33  C31 8UH g1620     -36.949 132.552   9.450  1.00 75.18     0.001 C 
HETATM   34  C32 8UH g1620     -37.407 133.660   8.893  1.00 71.38     0.007 C 
HETATM   35  C33 8UH g1620     -38.289 134.586   9.609  1.00 70.67    -0.062 C 
HETATM   36  C34 8UH g1620     -38.621 135.731   9.004  1.00 74.09     0.007 C 
HETATM   37  C35 8UH g1620     -39.524 136.693   9.617  1.00 74.87     0.001 C 
HETATM   38  C36 8UH g1620     -32.477 126.086   7.674  1.00 27.99     0.020 C 
HETATM   39  C37 8UH g1620     -34.976 126.228   7.734  1.00 27.99     0.020 C 
HETATM   40  C38 8UH g1620     -32.440 130.077   5.804  1.00 27.99     0.044 C 
HETATM   41  C39 8UH g1620     -35.418 130.190  10.377  1.00 99.93     0.048 C 
HETATM   42  C40 8UH g1620     -38.812 134.227  10.964  1.00 65.73     0.048 C 
HETATM   43  O23 8UH g1620     -33.282 126.108   3.211  1.00 27.99    -0.395 OA
ATOM     44  H23 8UH g1620     -33.965 125.477   3.014  1.00  0.00     0.210 HD
ENDROOT
TORSDOF 12
