REMARK VINA RESULT:    -8.172      2.051     16.526
REMARK INTER + INTRA:          -8.628
REMARK INTER:                  -5.388
REMARK INTRA:                  -3.240
REMARK UNBOUND:                -0.456
REMARK  0 active torsions:
REMARK  status: ('A' for Active; 'I' for Inactive)
REMARK       I    between atoms: C3_3  and  O3_21 
REMARK       I    between atoms: C6_6  and  C7_7 
REMARK       I    between atoms: C8_8  and  C9_9 
REMARK       I    between atoms: C10_10  and  C11_11 
REMARK       I    between atoms: C12_12  and  C13_13 
REMARK       I    between atoms: C14_14  and  C15_15 
REMARK       I    between atoms: C23_25  and  O23_43 
REMARK       I    between atoms: C26_28  and  C27_29 
REMARK       I    between atoms: C28_30  and  C29_31 
REMARK       I    between atoms: C30_32  and  C31_33 
REMARK       I    between atoms: C32_34  and  C33_35 
REMARK       I    between atoms: C34_36  and  C35_37 
ROOT
HETATM    1  C1  8UH F5620     -48.550 147.714   8.996  1.00 19.30    -0.018 C 
HETATM    2  C2  8UH F5620     -50.083 147.857   9.046  1.00 17.68     0.045 C 
HETATM    3  C3  8UH F5620     -50.786 147.758  10.396  1.00 17.79     0.123 C 
HETATM    4  C4  8UH F5620     -49.902 148.014  11.617  1.00 18.50     0.066 C 
HETATM    5  C5  8UH F5620     -48.458 147.636  11.555  1.00 19.40    -0.074 C 
HETATM    6  C6  8UH F5620     -47.803 147.487  10.349  1.00 19.02    -0.048 C 
HETATM    7  C7  8UH F5620     -46.385 147.099  10.285  1.00 18.60     0.009 C 
HETATM    8  C8  8UH F5620     -45.879 145.860  10.459  1.00 18.09     0.007 C 
HETATM    9  C9  8UH F5620     -44.463 145.484  10.515  1.00 18.23    -0.062 C 
HETATM   10  C10 8UH F5620     -44.165 144.169  10.592  1.00 15.81     0.007 C 
HETATM   11  C11 8UH F5620     -42.853 143.586  10.638  1.00 18.00     0.001 C 
HETATM   12  C12 8UH F5620     -42.714 142.255  10.531  1.00 18.12     0.007 C 
HETATM   13  C13 8UH F5620     -41.499 141.451  10.500  1.00 18.88    -0.062 C 
HETATM   14  C14 8UH F5620     -41.640 140.128  10.272  1.00 21.10     0.007 C 
HETATM   15  C15 8UH F5620     -40.602 139.144  10.109  1.00 24.06     0.001 C 
HETATM   16  C16 8UH F5620     -48.091 149.040   8.366  1.00 17.17     0.020 C 
HETATM   17  C17 8UH F5620     -48.234 146.577   7.998  1.00 16.95     0.020 C 
HETATM   18  C18 8UH F5620     -47.942 147.467  12.948  1.00 19.80     0.044 C 
HETATM   19  C19 8UH F5620     -43.435 146.590  10.431  1.00 17.09     0.048 C 
HETATM   20  C20 8UH F5620     -40.184 142.152  10.648  1.00 16.35     0.048 C 
HETATM   21  O3  8UH F5620     -51.911 148.617  10.425  1.00 17.38    -0.395 OA
ATOM     22  H3  8UH F5620     -52.349 148.555  11.266  1.00  0.00     0.210 HD
HETATM   23  C21 8UH F5620     -33.465 129.397   6.550  1.00 15.23    -0.018 C 
HETATM   24  C22 8UH F5620     -32.343 130.135   5.848  1.00 15.23     0.045 C 
HETATM   25  C23 8UH F5620     -31.776 131.298   6.618  1.00 15.23     0.123 C 
HETATM   26  C24 8UH F5620     -31.534 130.841   8.026  1.00 15.23     0.066 C 
HETATM   27  C25 8UH F5620     -32.824 130.450   8.676  1.00 15.23    -0.074 C 
HETATM   28  C26 8UH F5620     -33.779 129.868   7.946  1.00 15.23    -0.048 C 
HETATM   29  C27 8UH F5620     -35.193 129.939   8.327  1.00 15.23     0.009 C 
HETATM   30  C28 8UH F5620     -35.600 131.198   8.506  1.00 15.23     0.007 C 
HETATM   31  C29 8UH F5620     -37.035 131.572   8.696  1.00 26.61    -0.062 C 
HETATM   32  C30 8UH F5620     -37.300 132.885   8.863  1.00 25.24     0.007 C 
HETATM   33  C31 8UH F5620     -38.593 133.486   9.012  1.00 26.40     0.001 C 
HETATM   34  C32 8UH F5620     -38.733 134.810   9.219  1.00 26.29     0.007 C 
HETATM   35  C33 8UH F5620     -39.966 135.581   9.405  1.00 26.99    -0.062 C 
HETATM   36  C34 8UH F5620     -39.845 136.905   9.638  1.00 26.65     0.007 C 
HETATM   37  C35 8UH F5620     -40.893 137.862   9.857  1.00 25.43     0.001 C 
HETATM   38  C36 8UH F5620     -32.991 127.966   6.726  1.00 15.23     0.020 C 
HETATM   39  C37 8UH F5620     -34.697 129.458   5.665  1.00 15.23     0.020 C 
HETATM   40  C38 8UH F5620     -33.044 131.059  10.030  1.00 15.23     0.044 C 
HETATM   41  C39 8UH F5620     -38.088 130.492   8.697  1.00 26.87     0.048 C 
HETATM   42  C40 8UH F5620     -41.271 134.842   9.348  1.00 24.17     0.048 C 
HETATM   43  O23 8UH F5620     -30.509 131.650   6.073  1.00 15.23    -0.395 OA
ATOM     44  H23 8UH F5620     -30.662 131.940   5.182  1.00  0.00     0.210 HD
ENDROOT
TORSDOF 12
