REMARK VINA RESULT:    -8.792      1.400     16.565
REMARK INTER + INTRA:         -11.701
REMARK INTER:                 -10.963
REMARK INTRA:                  -0.739
REMARK UNBOUND:                -2.909
REMARK  0 active torsions:
REMARK  status: ('A' for Active; 'I' for Inactive)
REMARK       I    between atoms: C3_3  and  O3_21 
REMARK       I    between atoms: C6_6  and  C7_7 
REMARK       I    between atoms: C8_8  and  C9_9 
REMARK       I    between atoms: C10_10  and  C11_11 
REMARK       I    between atoms: C12_12  and  C13_13 
REMARK       I    between atoms: C14_14  and  C15_15 
REMARK       I    between atoms: C23_25  and  O23_43 
REMARK       I    between atoms: C26_28  and  C27_29 
REMARK       I    between atoms: C28_30  and  C29_31 
REMARK       I    between atoms: C30_32  and  C31_33 
REMARK       I    between atoms: C32_34  and  C33_35 
REMARK       I    between atoms: C34_36  and  C35_37 
ROOT
HETATM    1  C1  8UH s1620     -34.165 128.276   6.861  1.00 51.12    -0.018 C 
HETATM    2  C2  8UH s1620     -33.479 127.863   5.567  1.00 51.12     0.045 C 
HETATM    3  C3  8UH s1620     -32.085 128.391   5.260  1.00 51.12     0.123 C 
HETATM    4  C4  8UH s1620     -31.389 128.972   6.472  1.00 51.12     0.066 C 
HETATM    5  C5  8UH s1620     -32.319 129.899   7.183  1.00 51.12    -0.074 C 
HETATM    6  C6  8UH s1620     -33.524 129.468   7.538  1.00 51.12    -0.048 C 
HETATM    7  C7  8UH s1620     -34.268 130.127   8.626  1.00 51.12     0.009 C 
HETATM    8  C8  8UH s1620     -34.937 131.247   8.393  1.00 51.12     0.007 C 
HETATM    9  C9  8UH s1620     -35.707 131.904   9.445  1.00 51.12    -0.062 C 
HETATM   10  C10 8UH s1620     -36.309 133.038   9.094  1.00 51.12     0.007 C 
HETATM   11  C11 8UH s1620     -37.153 133.848   9.949  1.00 51.12     0.001 C 
HETATM   12  C12 8UH s1620     -37.868 134.714   9.253  1.00 51.12     0.007 C 
HETATM   13  C13 8UH s1620     -38.834 135.640   9.837  1.00 51.12    -0.062 C 
HETATM   14  C14 8UH s1620     -39.564 136.364   8.987  1.00 51.12     0.007 C 
HETATM   15  C15 8UH s1620     -40.591 137.282   9.445  1.00 51.12     0.001 C 
HETATM   16  C16 8UH s1620     -34.223 127.054   7.770  1.00 51.12     0.020 C 
HETATM   17  C17 8UH s1620     -35.591 128.673   6.525  1.00 51.12     0.020 C 
HETATM   18  C18 8UH s1620     -31.453 130.715   8.093  1.00 51.12     0.044 C 
HETATM   19  C19 8UH s1620     -35.801 131.303  10.812  1.00 51.12     0.048 C 
HETATM   20  C20 8UH s1620     -38.996 135.747  11.316  1.00 51.12     0.048 C 
HETATM   21  O3  8UH s1620     -31.282 127.303   4.796  1.00 51.12    -0.395 OA
ATOM     22  H3  8UH s1620     -31.719 126.939   4.035  1.00  0.00     0.210 HD
HETATM   23  C21 8UH s1620     -50.849 144.108  10.620  1.00 57.09    -0.018 C 
HETATM   24  C22 8UH s1620     -51.789 144.411  11.778  1.00 57.09     0.045 C 
HETATM   25  C23 8UH s1620     -51.293 145.367  12.847  1.00 57.09     0.123 C 
HETATM   26  C24 8UH s1620     -50.460 146.469  12.231  1.00 57.09     0.066 C 
HETATM   27  C25 8UH s1620     -49.312 145.844  11.491  1.00 57.09    -0.074 C 
HETATM   28  C26 8UH s1620     -49.522 144.836  10.638  1.00 57.09    -0.048 C 
HETATM   29  C27 8UH s1620     -48.478 144.406   9.668  1.00 57.09     0.009 C 
HETATM   30  C28 8UH s1620     -47.472 143.603  10.024  1.00 57.09     0.007 C 
HETATM   31  C29 8UH s1620     -46.445 143.149   9.097  1.00 51.12    -0.062 C 
HETATM   32  C30 8UH s1620     -45.862 141.974   9.340  1.00 51.12     0.007 C 
HETATM   33  C31 8UH s1620     -44.845 141.380   8.487  1.00 51.12     0.001 C 
HETATM   34  C32 8UH s1620     -44.151 140.391   9.027  1.00 51.12     0.007 C 
HETATM   35  C33 8UH s1620     -43.105 139.646   8.315  1.00 51.12    -0.062 C 
HETATM   36  C34 8UH s1620     -42.376 138.804   9.049  1.00 51.12     0.007 C 
HETATM   37  C35 8UH s1620     -41.324 137.935   8.549  1.00 51.12     0.001 C 
HETATM   38  C36 8UH s1620     -51.613 144.404   9.338  1.00 57.09     0.020 C 
HETATM   39  C37 8UH s1620     -50.531 142.629  10.676  1.00 57.09     0.020 C 
HETATM   40  C38 8UH s1620     -48.162 146.796  11.346  1.00 57.09     0.044 C 
HETATM   41  C39 8UH s1620     -46.070 143.981   7.912  1.00 51.12     0.048 C 
HETATM   42  C40 8UH s1620     -42.900 139.809   6.842  1.00 51.12     0.048 C 
HETATM   43  O23 8UH s1620     -52.437 145.950  13.474  1.00 57.09    -0.395 OA
ATOM     44  H23 8UH s1620     -52.127 146.548  14.143  1.00  0.00     0.210 HD
ENDROOT
TORSDOF 12
