REMARK VINA RESULT:    -6.590      1.709     16.367
REMARK INTER + INTRA:          -9.930
REMARK INTER:                  -7.969
REMARK INTRA:                  -1.961
REMARK UNBOUND:                -3.340
REMARK  0 active torsions:
REMARK  status: ('A' for Active; 'I' for Inactive)
REMARK       I    between atoms: C3_3  and  O3_21 
REMARK       I    between atoms: C6_6  and  C7_7 
REMARK       I    between atoms: C8_8  and  C9_9 
REMARK       I    between atoms: C10_10  and  C11_11 
REMARK       I    between atoms: C12_12  and  C13_13 
REMARK       I    between atoms: C14_14  and  C15_15 
REMARK       I    between atoms: C23_25  and  O23_43 
REMARK       I    between atoms: C26_28  and  C27_29 
REMARK       I    between atoms: C28_30  and  C29_31 
REMARK       I    between atoms: C30_32  and  C31_33 
REMARK       I    between atoms: C32_34  and  C33_35 
REMARK       I    between atoms: C34_36  and  C35_37 
ROOT
HETATM    1  C1  8UH X1620     -47.834 146.444   9.345  1.00 33.88    -0.022 C 
HETATM    2  C2  8UH X1620     -48.977 145.627   9.930  1.00 33.88     0.045 C 
HETATM    3  C3  8UH X1620     -48.770 145.195  11.366  1.00 33.88     0.119 C 
HETATM    4  C4  8UH X1620     -48.511 146.448  12.175  1.00 33.88     0.040 C 
HETATM    5  C5  8UH X1620     -47.263 147.124  11.666  1.00 33.88     0.013 C 
HETATM    6  C6  8UH X1620     -46.840 146.874  10.422  1.00 33.88    -0.068 C 
HETATM    7  C7  8UH X1620     -45.409 146.689  10.144  1.00 33.88     0.004 C 
HETATM    8  C8  8UH X1620     -45.149 145.376  10.201  1.00 33.88     0.007 C 
HETATM    9  C9  8UH X1620     -43.788 144.803  10.036  1.00 33.88    -0.062 C 
HETATM   10  C10 8UH X1620     -43.691 143.455  10.126  1.00 33.88     0.007 C 
HETATM   11  C11 8UH X1620     -42.444 142.717   9.954  1.00 33.88     0.001 C 
HETATM   12  C12 8UH X1620     -42.435 141.393  10.002  1.00 33.88     0.007 C 
HETATM   13  C13 8UH X1620     -41.195 140.636   9.755  1.00 33.88    -0.062 C 
HETATM   14  C14 8UH X1620     -41.334 139.303   9.670  1.00 33.88     0.007 C 
HETATM   15  C15 8UH X1620     -40.255 138.362   9.365  1.00 33.88     0.001 C 
HETATM   16  C16 8UH X1620     -48.509 147.565   8.558  1.00 33.88     0.019 C 
HETATM   17  C17 8UH X1620     -47.100 145.527   8.369  1.00 33.88     0.019 C 
HETATM   18  C18 8UH X1620     -46.391 146.958  12.884  1.00 33.88     0.015 C 
HETATM   19  C19 8UH X1620     -42.600 145.701   9.764  1.00 33.88     0.048 C 
HETATM   20  C20 8UH X1620     -39.902 141.371   9.525  1.00 33.88     0.048 C 
HETATM   21  O3  8UH X1620     -49.983 144.570  11.794  1.00 33.88    -0.396 OA
ATOM     22  H3  8UH X1620     -49.854 144.298  12.696  1.00  0.00     0.210 HD
HETATM   23  C21 8UH X1620     -34.480 127.244   5.719  1.00 31.86    -0.018 C 
HETATM   24  C22 8UH X1620     -33.403 127.305   4.631  1.00 31.86     0.045 C 
HETATM   25  C23 8UH X1620     -32.160 128.132   4.936  1.00 31.86     0.123 C 
HETATM   26  C24 8UH X1620     -31.998 128.381   6.429  1.00 31.86     0.066 C 
HETATM   27  C25 8UH X1620     -33.272 129.018   6.898  1.00 31.86    -0.074 C 
HETATM   28  C26 8UH X1620     -34.416 128.352   6.747  1.00 31.86    -0.048 C 
HETATM   29  C27 8UH X1620     -35.674 128.772   7.399  1.00 31.86     0.009 C 
HETATM   30  C28 8UH X1620     -35.895 130.073   7.610  1.00 31.86     0.007 C 
HETATM   31  C29 8UH X1620     -37.254 130.533   8.047  1.00 33.88    -0.062 C 
HETATM   32  C30 8UH X1620     -37.378 131.876   8.124  1.00 33.88     0.007 C 
HETATM   33  C31 8UH X1620     -38.597 132.603   8.488  1.00 33.88     0.001 C 
HETATM   34  C32 8UH X1620     -38.550 133.939   8.519  1.00 33.88     0.007 C 
HETATM   35  C33 8UH X1620     -39.725 134.769   8.867  1.00 33.88    -0.062 C 
HETATM   36  C34 8UH X1620     -39.530 136.101   8.945  1.00 33.88     0.007 C 
HETATM   37  C35 8UH X1620     -40.573 137.073   9.272  1.00 33.88     0.001 C 
HETATM   38  C36 8UH X1620     -34.312 125.952   6.515  1.00 31.86     0.020 C 
HETATM   39  C37 8UH X1620     -35.837 127.205   5.034  1.00 31.86     0.020 C 
HETATM   40  C38 8UH X1620     -32.897 129.678   8.196  1.00 31.86     0.044 C 
HETATM   41  C39 8UH X1620     -38.383 129.565   8.311  1.00 33.88     0.048 C 
HETATM   42  C40 8UH X1620     -41.061 134.102   9.069  1.00 33.88     0.048 C 
HETATM   43  O23 8UH X1620     -31.050 127.383   4.445  1.00 31.86    -0.395 OA
ATOM     44  H23 8UH X1620     -30.275 127.899   4.635  1.00  0.00     0.210 HD
ENDROOT
TORSDOF 12
