REMARK VINA RESULT:    -8.798      0.690     16.853
REMARK INTER + INTRA:         -11.953
REMARK INTER:                  -9.172
REMARK INTRA:                  -2.781
REMARK UNBOUND:                -3.155
REMARK  0 active torsions:
REMARK  status: ('A' for Active; 'I' for Inactive)
REMARK       I    between atoms: C3_3  and  O3_21 
REMARK       I    between atoms: C6_6  and  C7_7 
REMARK       I    between atoms: C8_8  and  C9_9 
REMARK       I    between atoms: C10_10  and  C11_11 
REMARK       I    between atoms: C12_12  and  C13_13 
REMARK       I    between atoms: C14_14  and  C15_15 
REMARK       I    between atoms: C23_25  and  O23_43 
REMARK       I    between atoms: C26_28  and  C27_29 
REMARK       I    between atoms: C28_30  and  C29_31 
REMARK       I    between atoms: C30_32  and  C31_33 
REMARK       I    between atoms: C32_34  and  C33_35 
REMARK       I    between atoms: C34_36  and  C35_37 
ROOT
HETATM    1  C1  8UH 3 622     -47.091 146.279  13.053  1.00 17.54    -0.018 C 
HETATM    2  C2  8UH 3 622     -47.479 146.485  14.507  1.00 17.54     0.045 C 
HETATM    3  C3  8UH 3 622     -47.098 147.806  15.170  1.00 17.54     0.123 C 
HETATM    4  C4  8UH 3 622     -45.831 148.453  14.629  1.00 17.54     0.066 C 
HETATM    5  C5  8UH 3 622     -45.074 147.592  13.651  1.00 17.54    -0.074 C 
HETATM    6  C6  8UH 3 622     -45.644 146.663  12.870  1.00 17.54    -0.048 C 
HETATM    7  C7  8UH 3 622     -44.866 146.025  11.783  1.00 17.54     0.009 C 
HETATM    8  C8  8UH 3 622     -44.247 144.855  11.925  1.00 17.54     0.007 C 
HETATM    9  C9  8UH 3 622     -43.482 144.269  10.810  1.00 17.54    -0.062 C 
HETATM   10  C10 8UH 3 622     -42.884 143.088  11.011  1.00 17.54     0.007 C 
HETATM   11  C11 8UH 3 622     -42.095 142.376  10.008  1.00 17.54     0.001 C 
HETATM   12  C12 8UH 3 622     -41.795 141.124  10.332  1.00 17.54     0.007 C 
HETATM   13  C13 8UH 3 622     -41.024 140.149   9.543  1.00 17.54    -0.062 C 
HETATM   14  C14 8UH 3 622     -40.713 139.004  10.164  1.00 17.54     0.007 C 
HETATM   15  C15 8UH 3 622     -39.975 137.923   9.532  1.00 17.54     0.001 C 
HETATM   16  C16 8UH 3 622     -48.005 147.043  12.097  1.00 17.54     0.020 C 
HETATM   17  C17 8UH 3 622     -47.269 144.803  12.754  1.00 17.54     0.020 C 
HETATM   18  C18 8UH 3 622     -43.709 148.105  13.354  1.00 17.54     0.044 C 
HETATM   19  C19 8UH 3 622     -43.384 144.979   9.496  1.00 17.54     0.048 C 
HETATM   20  C20 8UH 3 622     -40.608 140.405   8.127  1.00 17.54     0.048 C 
HETATM   21  O3  8UH 3 622     -48.189 148.719  15.014  1.00 17.54    -0.395 OA
ATOM     22  H3  8UH 3 622     -48.980 148.314  15.352  1.00  0.00     0.210 HD
HETATM   23  C21 8UH 3 622     -34.440 126.999   6.285  1.00 20.77    -0.018 C 
HETATM   24  C22 8UH 3 622     -34.108 126.360   4.927  1.00 19.21     0.045 C 
HETATM   25  C23 8UH 3 622     -32.954 126.897   4.084  1.00 20.68     0.123 C 
HETATM   26  C24 8UH 3 622     -32.204 128.100   4.668  1.00 17.77     0.066 C 
HETATM   27  C25 8UH 3 622     -32.712 128.820   5.875  1.00 19.05    -0.074 C 
HETATM   28  C26 8UH 3 622     -33.748 128.349   6.660  1.00 19.48    -0.048 C 
HETATM   29  C27 8UH 3 622     -34.290 129.040   7.861  1.00 16.56     0.009 C 
HETATM   30  C28 8UH 3 622     -35.162 130.083   7.839  1.00 15.55     0.007 C 
HETATM   31  C29 8UH 3 622     -35.688 130.813   8.961  1.00 17.54    -0.062 C 
HETATM   32  C30 8UH 3 622     -36.583 131.774   8.722  1.00 17.54     0.007 C 
HETATM   33  C31 8UH 3 622     -37.206 132.596   9.747  1.00 17.54     0.001 C 
HETATM   34  C32 8UH 3 622     -37.770 133.710   9.303  1.00 17.54     0.007 C 
HETATM   35  C33 8UH 3 622     -38.454 134.688  10.163  1.00 17.54    -0.062 C 
HETATM   36  C34 8UH 3 622     -38.990 135.751   9.551  1.00 17.54     0.007 C 
HETATM   37  C35 8UH 3 622     -39.707 136.822  10.226  1.00 17.54     0.001 C 
HETATM   38  C36 8UH 3 622     -34.048 125.904   7.310  1.00 20.67     0.020 C 
HETATM   39  C37 8UH 3 622     -35.976 127.147   6.318  1.00 19.98     0.020 C 
HETATM   40  C38 8UH 3 622     -31.917 130.067   6.055  1.00 17.40     0.044 C 
HETATM   41  C39 8UH 3 622     -35.229 130.476  10.346  1.00 17.54     0.048 C 
HETATM   42  C40 8UH 3 622     -38.534 134.499  11.644  1.00 17.54     0.048 C 
HETATM   43  O23 8UH 3 622     -32.043 125.850   3.760  1.00 20.33    -0.395 OA
ATOM     44  H23 8UH 3 622     -32.507 125.104   3.398  1.00  0.00     0.210 HD
ENDROOT
TORSDOF 12
