REMARK VINA RESULT:    -7.850      1.935     17.072
REMARK INTER + INTRA:         -10.684
REMARK INTER:                 -10.253
REMARK INTRA:                  -0.431
REMARK UNBOUND:                -2.833
REMARK  0 active torsions:
REMARK  status: ('A' for Active; 'I' for Inactive)
REMARK       I    between atoms: C3_3  and  O3_21 
REMARK       I    between atoms: C6_6  and  C7_7 
REMARK       I    between atoms: C8_8  and  C9_9 
REMARK       I    between atoms: C10_10  and  C11_11 
REMARK       I    between atoms: C12_12  and  C13_13 
REMARK       I    between atoms: C14_14  and  C15_15 
REMARK       I    between atoms: C23_25  and  O23_43 
REMARK       I    between atoms: C26_28  and  C27_29 
REMARK       I    between atoms: C28_30  and  C29_31 
REMARK       I    between atoms: C30_32  and  C31_33 
REMARK       I    between atoms: C32_34  and  C33_35 
REMARK       I    between atoms: C34_36  and  C35_37 
ROOT
HETATM    1  C1  8UH J9621     -34.106 128.311   7.112  1.00 21.11    -0.018 C 
HETATM    2  C2  8UH J9621     -33.381 127.695   5.903  1.00 20.11     0.045 C 
HETATM    3  C3  8UH J9621     -31.942 128.100   5.590  1.00 19.41     0.123 C 
HETATM    4  C4  8UH J9621     -31.345 129.205   6.473  1.00 18.39     0.066 C 
HETATM    5  C5  8UH J9621     -32.171 129.957   7.463  1.00 18.34    -0.074 C 
HETATM    6  C6  8UH J9621     -33.448 129.568   7.797  1.00 19.81    -0.048 C 
HETATM    7  C7  8UH J9621     -34.307 130.232   8.803  1.00 19.02     0.009 C 
HETATM    8  C8  8UH J9621     -35.034 131.345   8.584  1.00 17.97     0.007 C 
HETATM    9  C9  8UH J9621     -35.903 132.052   9.529  1.00 18.85    -0.062 C 
HETATM   10  C10 8UH J9621     -36.639 133.081   9.047  1.00 18.38     0.007 C 
HETATM   11  C11 8UH J9621     -37.622 133.865   9.758  1.00 18.57     0.001 C 
HETATM   12  C12 8UH J9621     -38.358 134.818   9.146  1.00 17.11     0.007 C 
HETATM   13  C13 8UH J9621     -39.441 135.626   9.725  1.00 20.42    -0.062 C 
HETATM   14  C14 8UH J9621     -40.077 136.506   8.918  1.00 20.50     0.007 C 
HETATM   15  C15 8UH J9621     -41.190 137.355   9.271  1.00 20.22     0.001 C 
HETATM   16  C16 8UH J9621     -34.216 127.134   8.113  1.00 19.56     0.020 C 
HETATM   17  C17 8UH J9621     -35.528 128.646   6.613  1.00 18.49     0.020 C 
HETATM   18  C18 8UH J9621     -31.353 131.061   8.026  1.00 16.89     0.044 C 
HETATM   19  C19 8UH J9621     -35.969 131.537  10.938  1.00 14.61     0.048 C 
HETATM   20  C20 8UH J9621     -39.803 135.400  11.175  1.00 17.59     0.048 C 
HETATM   21  O3  8UH J9621     -31.100 126.961   5.596  1.00 18.27    -0.395 OA
ATOM     22  H3  8UH J9621     -30.205 127.212   5.401  1.00  0.00     0.210 HD
HETATM   23  C21 8UH J9621     -51.012 145.758  10.219  1.00 23.07    -0.018 C 
HETATM   24  C22 8UH J9621     -51.975 146.176  11.345  1.00 21.39     0.045 C 
HETATM   25  C23 8UH J9621     -51.371 146.561  12.691  1.00 23.10     0.123 C 
HETATM   26  C24 8UH J9621     -49.962 147.155  12.609  1.00 23.25     0.066 C 
HETATM   27  C25 8UH J9621     -49.022 146.583  11.597  1.00 22.57    -0.074 C 
HETATM   28  C26 8UH J9621     -49.481 145.931  10.477  1.00 22.63    -0.048 C 
HETATM   29  C27 8UH J9621     -48.557 145.371   9.479  1.00 23.01     0.009 C 
HETATM   30  C28 8UH J9621     -47.870 144.220   9.601  1.00 21.85     0.007 C 
HETATM   31  C29 8UH J9621     -46.849 143.683   8.690  1.00 19.55    -0.062 C 
HETATM   32  C30 8UH J9621     -46.233 142.523   9.009  1.00 17.66     0.007 C 
HETATM   33  C31 8UH J9621     -45.207 141.858   8.243  1.00 19.12     0.001 C 
HETATM   34  C32 8UH J9621     -44.525 140.789   8.715  1.00 19.40     0.007 C 
HETATM   35  C33 8UH J9621     -43.436 140.020   8.087  1.00 19.31    -0.062 C 
HETATM   36  C34 8UH J9621     -42.848 139.049   8.817  1.00 17.72     0.007 C 
HETATM   37  C35 8UH J9621     -41.742 138.222   8.423  1.00 19.92     0.001 C 
HETATM   38  C36 8UH J9621     -51.447 146.653   9.044  1.00 21.40     0.020 C 
HETATM   39  C37 8UH J9621     -51.335 144.291   9.854  1.00 21.74     0.020 C 
HETATM   40  C38 8UH J9621     -47.628 146.872  12.031  1.00 21.99     0.044 C 
HETATM   41  C39 8UH J9621     -46.502 144.510   7.480  1.00 18.53     0.048 C 
HETATM   42  C40 8UH J9621     -43.005 140.416   6.700  1.00 15.86     0.048 C 
HETATM   43  O23 8UH J9621     -52.233 147.448  13.381  1.00 24.94    -0.395 OA
ATOM     44  H23 8UH J9621     -51.857 147.688  14.219  1.00  0.00     0.210 HD
ENDROOT
TORSDOF 12
