REMARK VINA RESULT:   -11.564      0.000      0.000
REMARK INTER + INTRA:         -13.954
REMARK INTER:                 -11.564
REMARK INTRA:                  -2.390
REMARK UNBOUND:                -2.390
REMARK  0 active torsions:
REMARK  status: ('A' for Active; 'I' for Inactive)
REMARK       I    between atoms: C3_3  and  O3_21 
REMARK       I    between atoms: C6_6  and  C7_7 
REMARK       I    between atoms: C8_8  and  C9_9 
REMARK       I    between atoms: C10_10  and  C11_11 
REMARK       I    between atoms: C12_12  and  C13_13 
REMARK       I    between atoms: C14_14  and  C15_15 
REMARK       I    between atoms: C23_25  and  O23_43 
REMARK       I    between atoms: C26_28  and  C27_29 
REMARK       I    between atoms: C28_30  and  C29_31 
REMARK       I    between atoms: C30_32  and  C31_33 
REMARK       I    between atoms: C32_34  and  C33_35 
REMARK       I    between atoms: C34_36  and  C35_37 
ROOT
HETATM    1  C1  8UH n1620     -49.084 144.551  12.199  1.00 57.79    -0.018 C 
HETATM    2  C2  8UH n1620     -49.946 145.257  13.231  1.00 59.26     0.045 C 
HETATM    3  C3  8UH n1620     -49.151 145.839  14.379  1.00 62.25     0.123 C 
HETATM    4  C4  8UH n1620     -48.175 146.852  13.837  1.00 57.83     0.066 C 
HETATM    5  C5  8UH n1620     -47.329 146.266  12.740  1.00 54.66    -0.074 C 
HETATM    6  C6  8UH n1620     -47.733 145.225  11.980  1.00 55.29    -0.048 C 
HETATM    7  C7  8UH n1620     -46.879 144.740  10.863  1.00 55.61     0.009 C 
HETATM    8  C8  8UH n1620     -45.892 143.860  11.035  1.00 56.19     0.007 C 
HETATM    9  C9  8UH n1620     -45.054 143.377   9.940  1.00 61.49    -0.062 C 
HETATM   10  C10 8UH n1620     -44.168 142.445  10.275  1.00 57.47     0.007 C 
HETATM   11  C11 8UH n1620     -43.246 141.815   9.355  1.00 53.29     0.001 C 
HETATM   12  C12 8UH n1620     -42.550 140.838   9.905  1.00 52.45     0.007 C 
HETATM   13  C13 8UH n1620     -41.589 140.048   9.140  1.00 52.04    -0.062 C 
HETATM   14  C14 8UH n1620     -41.139 138.937   9.722  1.00 54.29     0.007 C 
HETATM   15  C15 8UH n1620     -40.213 138.031   9.074  1.00 53.12     0.001 C 
HETATM   16  C16 8UH n1620     -49.942 144.464  10.941  1.00 58.39     0.020 C 
HETATM   17  C17 8UH n1620     -48.810 143.135  12.680  1.00 64.45     0.020 C 
HETATM   18  C18 8UH n1620     -46.019 146.979  12.560  1.00 58.11     0.044 C 
HETATM   19  C19 8UH n1620     -45.183 143.924   8.548  1.00 70.55     0.048 C 
HETATM   20  C20 8UH n1620     -41.164 140.471   7.771  1.00 53.04     0.048 C 
HETATM   21  O3  8UH n1620     -50.030 146.506  15.286  1.00 65.91    -0.395 OA
ATOM     22  H3  8UH n1620     -49.531 146.871  16.007  1.00  0.00     0.210 HD
HETATM   23  C21 8UH n1620     -34.342 127.378   6.701  1.00 97.95    -0.018 C 
HETATM   24  C22 8UH n1620     -33.881 126.948   5.313  1.00 97.95     0.045 C 
HETATM   25  C23 8UH n1620     -32.685 127.672   4.719  1.00 97.95     0.123 C 
HETATM   26  C24 8UH n1620     -31.660 128.016   5.775  1.00 97.95     0.066 C 
HETATM   27  C25 8UH n1620     -32.320 128.832   6.846  1.00 97.95    -0.074 C 
HETATM   28  C26 8UH n1620     -33.541 128.521   7.297  1.00 97.95    -0.048 C 
HETATM   29  C27 8UH n1620     -34.152 129.288   8.408  1.00 97.95     0.009 C 
HETATM   30  C28 8UH n1620     -34.885 130.377   8.176  1.00 97.95     0.007 C 
HETATM   31  C29 8UH n1620     -35.513 131.145   9.252  1.00 71.47    -0.062 C 
HETATM   32  C30 8UH n1620     -36.371 132.083   8.858  1.00 69.97     0.007 C 
HETATM   33  C31 8UH n1620     -37.128 132.945   9.744  1.00 65.68     0.001 C 
HETATM   34  C32 8UH n1620     -37.785 133.905   9.119  1.00 62.75     0.007 C 
HETATM   35  C33 8UH n1620     -38.639 134.865   9.822  1.00 61.08    -0.062 C 
HETATM   36  C34 8UH n1620     -39.089 135.909   9.123  1.00 59.90     0.007 C 
HETATM   37  C35 8UH n1620     -39.975 136.896   9.710  1.00 55.64     0.001 C 
HETATM   38  C36 8UH n1620     -34.292 126.138   7.587  1.00 97.95     0.020 C 
HETATM   39  C37 8UH n1620     -35.788 127.845   6.593  1.00 97.95     0.020 C 
HETATM   40  C38 8UH n1620     -31.478 129.914   7.452  1.00 97.95     0.044 C 
HETATM   41  C39 8UH n1620     -35.213 130.884  10.694  1.00 74.91     0.048 C 
HETATM   42  C40 8UH n1620     -39.005 134.651  11.257  1.00 55.73     0.048 C 
HETATM   43  O23 8UH n1620     -32.058 126.822   3.753  1.00 97.95    -0.395 OA
ATOM     44  H23 8UH n1620     -32.702 126.606   3.090  1.00  0.00     0.210 HD
ENDROOT
TORSDOF 12
