REMARK VINA RESULT:    -8.244      2.078      2.595
REMARK INTER + INTRA:         -11.085
REMARK INTER:                 -10.647
REMARK INTRA:                  -0.438
REMARK UNBOUND:                -2.841
REMARK  0 active torsions:
REMARK  status: ('A' for Active; 'I' for Inactive)
REMARK       I    between atoms: C3_3  and  O3_21 
REMARK       I    between atoms: C6_6  and  C7_7 
REMARK       I    between atoms: C8_8  and  C9_9 
REMARK       I    between atoms: C10_10  and  C11_11 
REMARK       I    between atoms: C12_12  and  C13_13 
REMARK       I    between atoms: C14_14  and  C15_15 
REMARK       I    between atoms: C23_25  and  O23_43 
REMARK       I    between atoms: C26_28  and  C27_29 
REMARK       I    between atoms: C28_30  and  C29_31 
REMARK       I    between atoms: C30_32  and  C31_33 
REMARK       I    between atoms: C32_34  and  C33_35 
REMARK       I    between atoms: C34_36  and  C35_37 
ROOT
HETATM    1  C1  8UH E4621     -50.835 145.635   9.271  1.00 16.11    -0.017 A 
HETATM    2  C2  8UH E4621     -51.942 146.223  10.162  1.00 15.05     0.049 A 
HETATM    3  C3  8UH E4621     -51.660 147.449  11.021  1.00 18.47     0.142 A 
HETATM    4  C4  8UH E4621     -50.208 147.956  11.009  1.00 15.72     0.012 A 
HETATM    5  C5  8UH E4621     -49.152 147.330  10.164  1.00 14.51    -0.056 A 
HETATM    6  C6  8UH E4621     -49.399 146.258   9.355  1.00 15.74    -0.044 A 
HETATM    7  C7  8UH E4621     -48.371 145.600   8.509  1.00 14.17     0.009 C 
HETATM    8  C8  8UH E4621     -47.442 144.705   8.882  1.00 12.66     0.007 C 
HETATM    9  C9  8UH E4621     -46.412 144.112   8.038  1.00 13.35    -0.062 C 
HETATM   10  C10 8UH E4621     -45.666 143.121   8.570  1.00 14.12     0.007 C 
HETATM   11  C11 8UH E4621     -44.661 142.336   7.891  1.00 17.35     0.001 C 
HETATM   12  C12 8UH E4621     -44.048 141.292   8.502  1.00 16.42     0.007 C 
HETATM   13  C13 8UH E4621     -43.077 140.359   7.921  1.00 15.51    -0.062 C 
HETATM   14  C14 8UH E4621     -42.621 139.354   8.699  1.00 14.68     0.007 C 
HETATM   15  C15 8UH E4621     -41.721 138.307   8.319  1.00 15.30     0.001 C 
HETATM   16  C16 8UH E4621     -51.413 145.815   7.849  1.00 14.06     0.020 C 
HETATM   17  C17 8UH E4621     -50.782 144.119   9.583  1.00 11.15     0.020 C 
HETATM   18  C18 8UH E4621     -47.861 148.034  10.356  1.00 14.35     0.048 C 
HETATM   19  C19 8UH E4621     -46.310 144.587   6.612  1.00 12.51     0.048 C 
HETATM   20  C20 8UH E4621     -42.687 140.563   6.489  1.00 15.42     0.048 C 
HETATM   21  O3  8UH E4621     -52.551 148.503  10.682  1.00 20.70    -0.392 OA
ATOM     22  H3  8UH E4621     -52.375 149.268  11.217  1.00  0.00     0.210 HD
HETATM   23  C21 8UH E4621     -33.980 128.075   7.132  1.00 23.41    -0.018 C 
HETATM   24  C22 8UH E4621     -33.155 127.308   6.083  1.00 23.79     0.045 C 
HETATM   25  C23 8UH E4621     -32.152 128.041   5.198  1.00 23.28     0.123 C 
HETATM   26  C24 8UH E4621     -31.709 129.406   5.750  1.00 23.70     0.066 C 
HETATM   27  C25 8UH E4621     -32.529 130.122   6.786  1.00 23.84    -0.074 C 
HETATM   28  C26 8UH E4621     -33.589 129.545   7.458  1.00 22.99    -0.048 C 
HETATM   29  C27 8UH E4621     -34.408 130.226   8.495  1.00 20.55     0.009 C 
HETATM   30  C28 8UH E4621     -35.425 131.077   8.238  1.00 19.35     0.007 C 
HETATM   31  C29 8UH E4621     -36.257 131.842   9.167  1.00 19.82    -0.062 C 
HETATM   32  C30 8UH E4621     -37.206 132.674   8.684  1.00 18.83     0.007 C 
HETATM   33  C31 8UH E4621     -38.121 133.476   9.466  1.00 18.73     0.001 C 
HETATM   34  C32 8UH E4621     -38.896 134.437   8.892  1.00 18.34     0.007 C 
HETATM   35  C33 8UH E4621     -39.842 135.375   9.520  1.00 16.35    -0.062 C 
HETATM   36  C34 8UH E4621     -40.399 136.324   8.740  1.00 13.70     0.007 C 
HETATM   37  C35 8UH E4621     -41.297 137.369   9.169  1.00 15.99     0.001 C 
HETATM   38  C36 8UH E4621     -33.811 127.184   8.367  1.00 23.73     0.020 C 
HETATM   39  C37 8UH E4621     -35.450 128.009   6.698  1.00 23.42     0.020 C 
HETATM   40  C38 8UH E4621     -31.990 131.493   6.972  1.00 22.78     0.044 C 
HETATM   41  C39 8UH E4621     -35.947 131.702  10.632  1.00 19.63     0.048 C 
HETATM   42  C40 8UH E4621     -40.064 135.267  11.002  1.00 14.68     0.048 C 
HETATM   43  O23 8UH E4621     -31.024 127.214   4.945  1.00 21.52    -0.395 OA
ATOM     44  H23 8UH E4621     -31.298 126.371   4.605  1.00  0.00     0.210 HD
ENDROOT
TORSDOF 12
