REMARK VINA RESULT:   -10.660      1.265     16.332
REMARK INTER + INTRA:         -11.480
REMARK INTER:                  -9.498
REMARK INTRA:                  -1.982
REMARK UNBOUND:                -0.819
REMARK  0 active torsions:
REMARK  status: ('A' for Active; 'I' for Inactive)
REMARK       I    between atoms: C3_3  and  O3_21 
REMARK       I    between atoms: C6_6  and  C7_7 
REMARK       I    between atoms: C8_8  and  C9_9 
REMARK       I    between atoms: C10_10  and  C11_11 
REMARK       I    between atoms: C12_12  and  C13_13 
REMARK       I    between atoms: C14_14  and  C15_15 
REMARK       I    between atoms: C23_25  and  O23_43 
REMARK       I    between atoms: C26_28  and  C27_29 
REMARK       I    between atoms: C28_30  and  C29_31 
REMARK       I    between atoms: C30_32  and  C31_33 
REMARK       I    between atoms: C32_34  and  C33_35 
REMARK       I    between atoms: C34_36  and  C35_37 
ROOT
HETATM    1  C1  8UH V1620     -34.235 127.210   6.751  1.00 15.23    -0.018 C 
HETATM    2  C2  8UH V1620     -33.985 127.281   5.257  1.00 15.23     0.045 C 
HETATM    3  C3  8UH V1620     -33.078 128.402   4.823  1.00 15.23     0.123 C 
HETATM    4  C4  8UH V1620     -31.882 128.398   5.728  1.00 15.23     0.066 C 
HETATM    5  C5  8UH V1620     -32.296 128.670   7.141  1.00 15.23    -0.074 C 
HETATM    6  C6  8UH V1620     -33.465 128.200   7.586  1.00 15.23    -0.048 C 
HETATM    7  C7  8UH V1620     -34.175 128.828   8.704  1.00 15.23     0.009 C 
HETATM    8  C8  8UH V1620     -34.371 130.133   8.500  1.00 15.23     0.007 C 
HETATM    9  C9  8UH V1620     -35.238 130.934   9.386  1.00 15.23    -0.062 C 
HETATM   10  C10 8UH V1620     -35.638 132.126   8.925  1.00 15.23     0.007 C 
HETATM   11  C11 8UH V1620     -36.599 132.975   9.616  1.00 15.23     0.001 C 
HETATM   12  C12 8UH V1620     -37.129 134.006   8.977  1.00 15.23     0.007 C 
HETATM   13  C13 8UH V1620     -38.179 134.832   9.590  1.00 15.23    -0.062 C 
HETATM   14  C14 8UH V1620     -38.808 135.707   8.800  1.00 15.23     0.007 C 
HETATM   15  C15 8UH V1620     -39.906 136.564   9.235  1.00 15.23     0.001 C 
HETATM   16  C16 8UH V1620     -33.730 125.853   7.203  1.00 15.23     0.020 C 
HETATM   17  C17 8UH V1620     -35.728 127.344   6.987  1.00 15.23     0.020 C 
HETATM   18  C18 8UH V1620     -31.496 129.738   7.826  1.00 15.23     0.044 C 
HETATM   19  C19 8UH V1620     -35.669 130.382  10.714  1.00 15.23     0.048 C 
HETATM   20  C20 8UH V1620     -38.521 134.625  11.027  1.00 15.23     0.048 C 
HETATM   21  O3  8UH V1620     -32.602 128.139   3.508  1.00 15.23    -0.395 OA
ATOM     22  H3  8UH V1620     -32.030 128.845   3.234  1.00  0.00     0.210 HD
HETATM   23  C21 8UH V1620     -49.749 144.110   9.621  1.00 70.34    -0.018 C 
HETATM   24  C22 8UH V1620     -50.512 144.475  10.879  1.00 70.34     0.045 C 
HETATM   25  C23 8UH V1620     -50.441 145.929  11.314  1.00 70.34     0.123 C 
HETATM   26  C24 8UH V1620     -49.038 146.502  11.231  1.00 70.34     0.066 C 
HETATM   27  C25 8UH V1620     -48.127 145.914  10.194  1.00 70.34    -0.074 C 
HETATM   28  C26 8UH V1620     -48.404 144.793   9.522  1.00 70.34    -0.048 C 
HETATM   29  C27 8UH V1620     -47.404 144.193   8.607  1.00 70.34     0.009 C 
HETATM   30  C28 8UH V1620     -46.566 143.234   8.989  1.00 70.34     0.007 C 
HETATM   31  C29 8UH V1620     -45.598 142.633   8.067  1.00 15.23    -0.062 C 
HETATM   32  C30 8UH V1620     -44.918 141.599   8.568  1.00 15.23     0.007 C 
HETATM   33  C31 8UH V1620     -43.907 140.832   7.862  1.00 15.23     0.001 C 
HETATM   34  C32 8UH V1620     -43.284 139.879   8.545  1.00 15.23     0.007 C 
HETATM   35  C33 8UH V1620     -42.216 139.068   7.955  1.00 15.23    -0.062 C 
HETATM   36  C34 8UH V1620     -41.584 138.210   8.766  1.00 15.23     0.007 C 
HETATM   37  C35 8UH V1620     -40.485 137.352   8.347  1.00 15.23     0.001 C 
HETATM   38  C36 8UH V1620     -50.620 144.423   8.413  1.00 70.34     0.020 C 
HETATM   39  C37 8UH V1620     -49.503 142.609   9.688  1.00 70.34     0.020 C 
HETATM   40  C38 8UH V1620     -46.749 146.508  10.220  1.00 70.34     0.044 C 
HETATM   41  C39 8UH V1620     -45.464 143.147   6.669  1.00 15.23     0.048 C 
HETATM   42  C40 8UH V1620     -41.891 139.268   6.511  1.00 15.23     0.048 C 
HETATM   43  O23 8UH V1620     -51.351 146.742  10.569  1.00 70.34    -0.395 OA
ATOM     44  H23 8UH V1620     -52.229 146.383  10.622  1.00  0.00     0.210 HD
ENDROOT
TORSDOF 12
