REMARK VINA RESULT:    -8.852      0.000      0.000
REMARK INTER + INTRA:         -11.942
REMARK INTER:                  -8.852
REMARK INTRA:                  -3.089
REMARK UNBOUND:                -3.089
REMARK  0 active torsions:
REMARK  status: ('A' for Active; 'I' for Inactive)
REMARK       I    between atoms: C3_3  and  O3_21 
REMARK       I    between atoms: C6_6  and  C7_7 
REMARK       I    between atoms: C8_8  and  C9_9 
REMARK       I    between atoms: C10_10  and  C11_11 
REMARK       I    between atoms: C12_12  and  C13_13 
REMARK       I    between atoms: C14_14  and  C15_15 
REMARK       I    between atoms: C23_25  and  O23_43 
REMARK       I    between atoms: C26_28  and  C27_29 
REMARK       I    between atoms: C28_30  and  C29_31 
REMARK       I    between atoms: C30_32  and  C31_33 
REMARK       I    between atoms: C32_34  and  C33_35 
REMARK       I    between atoms: C34_36  and  C35_37 
ROOT
HETATM    1  C1  8UH 31620     -50.268 142.228  13.016  1.00 70.34    -0.018 C 
HETATM    2  C2  8UH 31620     -50.296 143.011  14.314  1.00 70.34     0.045 C 
HETATM    3  C3  8UH 31620     -50.581 144.498  14.199  1.00 70.34     0.123 C 
HETATM    4  C4  8UH 31620     -49.814 145.161  13.071  1.00 70.34     0.066 C 
HETATM    5  C5  8UH 31620     -49.468 144.303  11.890  1.00 70.34    -0.074 C 
HETATM    6  C6  8UH 31620     -49.595 142.973  11.886  1.00 70.34    -0.048 C 
HETATM    7  C7  8UH 31620     -49.113 142.171  10.736  1.00 70.34     0.009 C 
HETATM    8  C8  8UH 31620     -47.906 141.615  10.705  1.00 70.34     0.007 C 
HETATM    9  C9  8UH 31620     -47.454 140.806   9.574  1.00 70.34    -0.062 C 
HETATM   10  C10 8UH 31620     -46.215 140.336   9.660  1.00 70.34     0.007 C 
HETATM   11  C11 8UH 31620     -45.571 139.493   8.675  1.00 70.34     0.001 C 
HETATM   12  C12 8UH 31620     -44.541 138.836   9.182  1.00 70.34     0.007 C 
HETATM   13  C13 8UH 31620     -43.712 137.897   8.426  1.00 70.34    -0.062 C 
HETATM   14  C14 8UH 31620     -42.747 137.285   9.102  1.00 70.34     0.007 C 
HETATM   15  C15 8UH 31620     -41.866 136.317   8.478  1.00 70.34     0.001 C 
HETATM   16  C16 8UH 31620     -51.694 141.837  12.652  1.00 70.34     0.020 C 
HETATM   17  C17 8UH 31620     -49.456 140.968  13.291  1.00 70.34     0.020 C 
HETATM   18  C18 8UH 31620     -48.667 145.030  10.850  1.00 70.34     0.044 C 
HETATM   19  C19 8UH 31620     -48.360 140.527   8.418  1.00 70.34     0.048 C 
HETATM   20  C20 8UH 31620     -43.944 137.636   6.971  1.00 70.34     0.048 C 
HETATM   21  O3  8UH 31620     -51.981 144.752  14.058  1.00 70.34    -0.395 OA
ATOM     22  H3  8UH 31620     -52.462 144.336  14.765  1.00  0.00     0.210 HD
HETATM   23  C21 8UH 31620     -34.343 126.799   6.237  1.00 16.14    -0.018 C 
HETATM   24  C22 8UH 31620     -33.855 126.036   5.006  1.00 16.14     0.045 C 
HETATM   25  C23 8UH 31620     -32.935 126.786   4.060  1.00 16.14     0.123 C 
HETATM   26  C24 8UH 31620     -31.919 127.590   4.837  1.00 16.14     0.066 C 
HETATM   27  C25 8UH 31620     -32.662 128.564   5.700  1.00 16.14    -0.074 C 
HETATM   28  C26 8UH 31620     -33.700 128.159   6.441  1.00 16.14    -0.048 C 
HETATM   29  C27 8UH 31620     -34.218 129.044   7.509  1.00 16.14     0.009 C 
HETATM   30  C28 8UH 31620     -35.110 130.015   7.295  1.00 16.14     0.007 C 
HETATM   31  C29 8UH 31620     -35.578 130.866   8.396  1.00 70.34    -0.062 C 
HETATM   32  C30 8UH 31620     -36.614 131.646   8.112  1.00 70.34     0.007 C 
HETATM   33  C31 8UH 31620     -37.237 132.559   9.053  1.00 70.34     0.001 C 
HETATM   34  C32 8UH 31620     -38.259 133.216   8.530  1.00 70.34     0.007 C 
HETATM   35  C33 8UH 31620     -39.062 134.194   9.263  1.00 70.34    -0.062 C 
HETATM   36  C34 8UH 31620     -40.100 134.724   8.620  1.00 70.34     0.007 C 
HETATM   37  C35 8UH 31620     -40.972 135.702   9.240  1.00 70.34     0.001 C 
HETATM   38  C36 8UH 31620     -34.122 125.892   7.443  1.00 16.14     0.020 C 
HETATM   39  C37 8UH 31620     -35.836 127.042   6.084  1.00 16.14     0.020 C 
HETATM   40  C38 8UH 31620     -31.815 129.748   6.066  1.00 16.14     0.044 C 
HETATM   41  C39 8UH 31620     -34.933 130.853   9.747  1.00 70.34     0.048 C 
HETATM   42  C40 8UH 31620     -38.716 134.581  10.663  1.00 70.34     0.048 C 
HETATM   43  O23 8UH 31620     -32.241 125.851   3.232  1.00 16.14    -0.395 OA
ATOM     44  H23 8UH 31620     -31.665 126.321   2.640  1.00  0.00     0.210 HD
ENDROOT
TORSDOF 12
