REMARK VINA RESULT:   -10.534      0.000      0.000
REMARK INTER + INTRA:         -13.480
REMARK INTER:                 -10.534
REMARK INTRA:                  -2.945
REMARK UNBOUND:                -2.945
REMARK  0 active torsions:
REMARK  status: ('A' for Active; 'I' for Inactive)
REMARK       I    between atoms: C3_3  and  O3_21 
REMARK       I    between atoms: C6_6  and  C7_7 
REMARK       I    between atoms: C8_8  and  C9_9 
REMARK       I    between atoms: C10_10  and  C11_11 
REMARK       I    between atoms: C12_12  and  C13_13 
REMARK       I    between atoms: C14_14  and  C15_15 
REMARK       I    between atoms: C23_25  and  O23_43 
REMARK       I    between atoms: C26_28  and  C27_29 
REMARK       I    between atoms: C28_30  and  C29_31 
REMARK       I    between atoms: C30_32  and  C31_33 
REMARK       I    between atoms: C32_34  and  C33_35 
REMARK       I    between atoms: C34_36  and  C35_37 
ROOT
HETATM    1  C1  8UH G1621     -49.058 144.581  11.887  1.00 57.09    -0.018 C 
HETATM    2  C2  8UH G1621     -49.654 145.000  13.224  1.00 57.09     0.045 C 
HETATM    3  C3  8UH G1621     -48.891 146.033  14.034  1.00 57.09     0.123 C 
HETATM    4  C4  8UH G1621     -48.259 147.062  13.124  1.00 57.09     0.066 C 
HETATM    5  C5  8UH G1621     -47.351 146.356  12.160  1.00 57.09    -0.074 C 
HETATM    6  C6  8UH G1621     -47.778 145.283  11.486  1.00 57.09    -0.048 C 
HETATM    7  C7  8UH G1621     -47.031 144.753  10.313  1.00 57.09     0.009 C 
HETATM    8  C8  8UH G1621     -45.962 143.962  10.454  1.00 57.09     0.007 C 
HETATM    9  C9  8UH G1621     -45.202 143.397   9.328  1.00 57.09    -0.062 C 
HETATM   10  C10 8UH G1621     -44.489 142.303   9.604  1.00 57.09     0.007 C 
HETATM   11  C11 8UH G1621     -43.675 141.532   8.673  1.00 57.09     0.001 C 
HETATM   12  C12 8UH G1621     -43.108 140.452   9.199  1.00 57.09     0.007 C 
HETATM   13  C13 8UH G1621     -42.281 139.499   8.447  1.00 57.09    -0.062 C 
HETATM   14  C14 8UH G1621     -41.689 138.497   9.112  1.00 57.09     0.007 C 
HETATM   15  C15 8UH G1621     -40.895 137.488   8.422  1.00 57.09     0.001 C 
HETATM   16  C16 8UH G1621     -50.139 144.783  10.836  1.00 57.09     0.020 C 
HETATM   17  C17 8UH G1621     -48.731 143.107  11.984  1.00 57.09     0.020 C 
HETATM   18  C18 8UH G1621     -46.285 147.269  11.630  1.00 57.09     0.044 C 
HETATM   19  C19 8UH G1621     -45.228 144.014   7.962  1.00 57.09     0.048 C 
HETATM   20  C20 8UH G1621     -42.152 139.627   6.962  1.00 57.09     0.048 C 
HETATM   21  O3  8UH G1621     -49.827 146.689  14.892  1.00 57.09    -0.395 OA
ATOM     22  H3  8UH G1621     -49.350 147.335  15.398  1.00  0.00     0.210 HD
HETATM   23  C21 8UH G1621     -34.389 126.784   6.379  1.00 62.55    -0.018 C 
HETATM   24  C22 8UH G1621     -34.027 126.107   5.059  1.00 62.55     0.045 C 
HETATM   25  C23 8UH G1621     -33.050 126.820   4.129  1.00 62.55     0.123 C 
HETATM   26  C24 8UH G1621     -32.019 127.608   4.913  1.00 62.55     0.066 C 
HETATM   27  C25 8UH G1621     -32.775 128.587   5.769  1.00 62.55    -0.074 C 
HETATM   28  C26 8UH G1621     -33.790 128.173   6.535  1.00 62.55    -0.048 C 
HETATM   29  C27 8UH G1621     -34.330 129.076   7.576  1.00 62.55     0.009 C 
HETATM   30  C28 8UH G1621     -35.327 129.920   7.315  1.00 62.55     0.007 C 
HETATM   31  C29 8UH G1621     -35.868 130.829   8.339  1.00 57.09    -0.062 C 
HETATM   32  C30 8UH G1621     -36.984 131.483   8.012  1.00 57.09     0.007 C 
HETATM   33  C31 8UH G1621     -37.657 132.423   8.894  1.00 57.09     0.001 C 
HETATM   34  C32 8UH G1621     -38.244 133.456   8.304  1.00 57.09     0.007 C 
HETATM   35  C33 8UH G1621     -38.962 134.482   9.059  1.00 57.09    -0.062 C 
HETATM   36  C34 8UH G1621     -39.650 135.428   8.414  1.00 57.09     0.007 C 
HETATM   37  C35 8UH G1621     -40.404 136.464   9.108  1.00 57.09     0.001 C 
HETATM   38  C36 8UH G1621     -33.952 125.850   7.509  1.00 62.55     0.020 C 
HETATM   39  C37 8UH G1621     -35.903 126.931   6.438  1.00 62.55     0.020 C 
HETATM   40  C38 8UH G1621     -31.983 129.818   6.105  1.00 62.55     0.044 C 
HETATM   41  C39 8UH G1621     -35.197 131.020   9.663  1.00 57.09     0.048 C 
HETATM   42  C40 8UH G1621     -38.882 134.443  10.541  1.00 57.09     0.048 C 
HETATM   43  O23 8UH G1621     -32.383 125.850   3.314  1.00 62.55    -0.395 OA
ATOM     44  H23 8UH G1621     -31.774 126.294   2.735  1.00  0.00     0.210 HD
ENDROOT
TORSDOF 12
