REMARK VINA RESULT:   -11.201      0.000      0.000
REMARK INTER + INTRA:         -13.816
REMARK INTER:                 -11.201
REMARK INTRA:                  -2.615
REMARK UNBOUND:                -2.615
REMARK  0 active torsions:
REMARK  status: ('A' for Active; 'I' for Inactive)
REMARK       I    between atoms: C3_3  and  O3_21 
REMARK       I    between atoms: C6_6  and  C7_7 
REMARK       I    between atoms: C8_8  and  C9_9 
REMARK       I    between atoms: C10_10  and  C11_11 
REMARK       I    between atoms: C12_12  and  C13_13 
REMARK       I    between atoms: C14_14  and  C15_15 
REMARK       I    between atoms: C23_25  and  O23_43 
REMARK       I    between atoms: C26_28  and  C27_29 
REMARK       I    between atoms: C28_30  and  C29_31 
REMARK       I    between atoms: C30_32  and  C31_33 
REMARK       I    between atoms: C32_34  and  C33_35 
REMARK       I    between atoms: C34_36  and  C35_37 
ROOT
HETATM    1  C1  8UH y1620     -34.274 127.297   6.647  1.00 33.20    -0.018 C 
HETATM    2  C2  8UH y1620     -33.848 126.981   5.220  1.00 33.20     0.045 C 
HETATM    3  C3  8UH y1620     -32.638 127.722   4.678  1.00 33.20     0.123 C 
HETATM    4  C4  8UH y1620     -31.617 127.955   5.751  1.00 33.20     0.066 C 
HETATM    5  C5  8UH y1620     -32.233 128.705   6.881  1.00 33.20    -0.074 C 
HETATM    6  C6  8UH y1620     -33.455 128.393   7.305  1.00 33.20    -0.048 C 
HETATM    7  C7  8UH y1620     -34.025 129.125   8.450  1.00 33.20     0.009 C 
HETATM    8  C8  8UH y1620     -34.782 130.189   8.235  1.00 33.20     0.007 C 
HETATM    9  C9  8UH y1620     -35.391 130.963   9.309  1.00 33.20    -0.062 C 
HETATM   10  C10 8UH y1620     -35.937 132.107   8.916  1.00 33.20     0.007 C 
HETATM   11  C11 8UH y1620     -36.626 133.043   9.771  1.00 33.20     0.001 C 
HETATM   12  C12 8UH y1620     -37.359 133.882   9.070  1.00 33.20     0.007 C 
HETATM   13  C13 8UH y1620     -38.196 134.892   9.693  1.00 33.20    -0.062 C 
HETATM   14  C14 8UH y1620     -38.948 135.628   8.887  1.00 33.20     0.007 C 
HETATM   15  C15 8UH y1620     -39.860 136.609   9.431  1.00 33.20     0.001 C 
HETATM   16  C16 8UH y1620     -34.228 125.982   7.419  1.00 33.20     0.020 C 
HETATM   17  C17 8UH y1620     -35.717 127.766   6.588  1.00 33.20     0.020 C 
HETATM   18  C18 8UH y1620     -31.367 129.747   7.519  1.00 33.20     0.044 C 
HETATM   19  C19 8UH y1620     -35.375 130.486  10.725  1.00 33.20     0.048 C 
HETATM   20  C20 8UH y1620     -38.227 135.049  11.175  1.00 33.20     0.048 C 
HETATM   21  O3  8UH y1620     -32.008 126.924   3.677  1.00 33.20    -0.395 OA
ATOM     22  H3  8UH y1620     -32.655 126.776   2.997  1.00  0.00     0.210 HD
HETATM   23  C21 8UH y1620     -49.892 144.115   9.865  1.00 37.79    -0.018 C 
HETATM   24  C22 8UH y1620     -50.860 144.919  10.717  1.00 37.79     0.045 C 
HETATM   25  C23 8UH y1620     -50.252 145.707  11.854  1.00 37.79     0.123 C 
HETATM   26  C24 8UH y1620     -49.095 146.519  11.335  1.00 37.79     0.066 C 
HETATM   27  C25 8UH y1620     -48.100 145.686  10.584  1.00 37.79    -0.074 C 
HETATM   28  C26 8UH y1620     -48.466 144.628   9.846  1.00 37.79    -0.048 C 
HETATM   29  C27 8UH y1620     -47.499 143.946   8.943  1.00 37.79     0.009 C 
HETATM   30  C28 8UH y1620     -46.624 143.025   9.360  1.00 37.79     0.007 C 
HETATM   31  C29 8UH y1620     -45.702 142.369   8.447  1.00 33.20    -0.062 C 
HETATM   32  C30 8UH y1620     -45.101 141.283   8.910  1.00 33.20     0.007 C 
HETATM   33  C31 8UH y1620     -44.163 140.499   8.140  1.00 33.20     0.001 C 
HETATM   34  C32 8UH y1620     -43.388 139.732   8.875  1.00 33.20     0.007 C 
HETATM   35  C33 8UH y1620     -42.402 138.848   8.270  1.00 33.20    -0.062 C 
HETATM   36  C34 8UH y1620     -41.668 138.113   9.096  1.00 33.20     0.007 C 
HETATM   37  C35 8UH y1620     -40.700 137.169   8.586  1.00 33.20     0.001 C 
HETATM   38  C36 8UH y1620     -50.516 144.043   8.479  1.00 37.79     0.020 C 
HETATM   39  C37 8UH y1620     -49.820 142.712  10.419  1.00 37.79     0.020 C 
HETATM   40  C38 8UH y1620     -46.757 146.336  10.472  1.00 37.79     0.044 C 
HETATM   41  C39 8UH y1620     -45.437 142.898   7.072  1.00 33.20     0.048 C 
HETATM   42  C40 8UH y1620     -42.258 138.760   6.787  1.00 33.20     0.048 C 
HETATM   43  O23 8UH y1620     -51.230 146.631  12.329  1.00 37.79    -0.395 OA
ATOM     44  H23 8UH y1620     -50.847 147.126  13.044  1.00  0.00     0.210 HD
ENDROOT
TORSDOF 12
