REMARK VINA RESULT:    -9.472      0.000      0.000
REMARK INTER + INTRA:         -11.931
REMARK INTER:                  -9.472
REMARK INTRA:                  -2.459
REMARK UNBOUND:                -2.459
REMARK  0 active torsions:
REMARK  status: ('A' for Active; 'I' for Inactive)
REMARK       I    between atoms: C3_3  and  O3_21 
REMARK       I    between atoms: C6_6  and  C7_7 
REMARK       I    between atoms: C8_8  and  C9_9 
REMARK       I    between atoms: C10_10  and  C11_11 
REMARK       I    between atoms: C12_12  and  C13_13 
REMARK       I    between atoms: C14_14  and  C15_15 
REMARK       I    between atoms: C23_25  and  O23_43 
REMARK       I    between atoms: C26_28  and  C27_29 
REMARK       I    between atoms: C28_30  and  C29_31 
REMARK       I    between atoms: C30_32  and  C31_33 
REMARK       I    between atoms: C32_34  and  C33_35 
REMARK       I    between atoms: C34_36  and  C35_37 
ROOT
HETATM    1  C1  8UH 1 316     -34.433 126.945   6.382  1.00 73.24    -0.018 C 
HETATM    2  C2  8UH 1 316     -33.996 126.347   5.043  1.00 72.84     0.045 C 
HETATM    3  C3  8UH 1 316     -32.919 127.102   4.274  1.00 72.53     0.123 C 
HETATM    4  C4  8UH 1 316     -31.841 127.586   5.225  1.00 72.61     0.066 C 
HETATM    5  C5  8UH 1 316     -32.463 128.473   6.271  1.00 72.68    -0.074 C 
HETATM    6  C6  8UH 1 316     -33.614 128.135   6.853  1.00 72.79    -0.048 C 
HETATM    7  C7  8UH 1 316     -34.123 128.941   7.989  1.00 71.90     0.009 C 
HETATM    8  C8  8UH 1 316     -34.822 130.058   7.767  1.00 71.51     0.007 C 
HETATM    9  C9  8UH 1 316     -35.359 130.899   8.858  1.00 70.48    -0.062 C 
HETATM   10  C10 8UH 1 316     -36.099 131.968   8.523  1.00 69.46     0.007 C 
HETATM   11  C11 8UH 1 316     -36.704 132.892   9.480  1.00 69.85     0.001 C 
HETATM   12  C12 8UH 1 316     -37.433 133.881   8.965  1.00 72.15     0.007 C 
HETATM   13  C13 8UH 1 316     -38.139 134.906   9.765  1.00 73.74    -0.062 C 
HETATM   14  C14 8UH 1 316     -39.035 135.685   9.132  1.00 74.04     0.007 C 
HETATM   15  C15 8UH 1 316     -39.820 136.717   9.807  1.00 74.62     0.001 C 
HETATM   16  C16 8UH 1 316     -34.344 125.850   7.438  1.00 72.68     0.020 C 
HETATM   17  C17 8UH 1 316     -35.880 127.402   6.251  1.00 73.05     0.020 C 
HETATM   18  C18 8UH 1 316     -31.588 129.539   6.867  1.00 72.13     0.044 C 
HETATM   19  C19 8UH 1 316     -35.076 130.569  10.294  1.00 70.45     0.048 C 
HETATM   20  C20 8UH 1 316     -37.861 135.071  11.233  1.00 72.89     0.048 C 
HETATM   21  O3  8UH 1 316     -32.330 126.231   3.298  1.00 71.04    -0.395 OA
ATOM     22  H3  8UH 1 316     -33.006 125.928   2.702  1.00  0.00     0.210 HD
HETATM   23  C21 8UH 1 316     -49.514 144.829  12.040  1.00 20.77    -0.018 C 
HETATM   24  C22 8UH 1 316     -50.122 145.481  13.292  1.00 19.21     0.045 C 
HETATM   25  C23 8UH 1 316     -49.463 146.707  13.920  1.00 20.68     0.123 C 
HETATM   26  C24 8UH 1 316     -48.176 147.193  13.243  1.00 17.77     0.066 C 
HETATM   27  C25 8UH 1 316     -47.509 146.388  12.175  1.00 19.05    -0.074 C 
HETATM   28  C26 8UH 1 316     -48.090 145.282  11.584  1.00 19.48    -0.048 C 
HETATM   29  C27 8UH 1 316     -47.455 144.447  10.528  1.00 16.56     0.009 C 
HETATM   30  C28 8UH 1 316     -46.520 143.485  10.746  1.00 15.55     0.007 C 
HETATM   31  C29 8UH 1 316     -45.841 142.673   9.763  1.00 94.72    -0.062 C 
HETATM   32  C30 8UH 1 316     -44.954 141.756  10.170  1.00 91.32     0.007 C 
HETATM   33  C31 8UH 1 316     -44.227 140.867   9.267  1.00 87.88     0.001 C 
HETATM   34  C32 8UH 1 316     -43.299 140.093   9.822  1.00 84.19     0.007 C 
HETATM   35  C33 8UH 1 316     -42.485 139.114   9.080  1.00 80.79    -0.062 C 
HETATM   36  C34 8UH 1 316     -41.544 138.424   9.750  1.00 78.84     0.007 C 
HETATM   37  C35 8UH 1 316     -40.716 137.410   9.101  1.00 76.79     0.001 C 
HETATM   38  C36 8UH 1 316     -50.546 145.139  10.928  1.00 20.67     0.020 C 
HETATM   39  C37 8UH 1 316     -49.543 143.307  12.301  1.00 19.98     0.020 C 
HETATM   40  C38 8UH 1 316     -46.177 146.990  11.888  1.00 17.40     0.044 C 
HETATM   41  C39 8UH 1 316     -46.151 142.861   8.309  1.00 95.37     0.048 C 
HETATM   42  C40 8UH 1 316     -42.726 138.881   7.618  1.00 90.13     0.048 C 
HETATM   43  O23 8UH 1 316     -50.401 147.774  14.034  1.00 20.33    -0.395 OA
ATOM     44  H23 8UH 1 316     -51.198 147.474  14.454  1.00  0.00     0.210 HD
ENDROOT
TORSDOF 12
