REMARK VINA RESULT:    -7.219      1.311     16.766
REMARK INTER + INTRA:          -9.110
REMARK INTER:                  -5.204
REMARK INTRA:                  -3.907
REMARK UNBOUND:                -1.891
REMARK  0 active torsions:
REMARK  status: ('A' for Active; 'I' for Inactive)
REMARK       I    between atoms: C3_3  and  O3_21 
REMARK       I    between atoms: C6_6  and  C7_7 
REMARK       I    between atoms: C8_8  and  C9_9 
REMARK       I    between atoms: C10_10  and  C11_11 
REMARK       I    between atoms: C12_12  and  C13_13 
REMARK       I    between atoms: C14_14  and  C15_15 
REMARK       I    between atoms: C23_25  and  O23_43 
REMARK       I    between atoms: C26_28  and  C27_29 
REMARK       I    between atoms: C28_30  and  C29_31 
REMARK       I    between atoms: C30_32  and  C31_33 
REMARK       I    between atoms: C32_34  and  C33_35 
REMARK       I    between atoms: C34_36  and  C35_37 
ROOT
HETATM    1  C1  8UH Y1621     -34.686 128.752   6.243  1.00 37.60    -0.018 C 
HETATM    2  C2  8UH Y1621     -33.732 128.066   5.281  1.00 37.60     0.045 C 
HETATM    3  C3  8UH Y1621     -32.305 128.564   5.288  1.00 37.60     0.123 C 
HETATM    4  C4  8UH Y1621     -31.798 128.608   6.705  1.00 37.60     0.066 C 
HETATM    5  C5  8UH Y1621     -32.705 129.379   7.615  1.00 37.60    -0.074 C 
HETATM    6  C6  8UH Y1621     -34.037 129.388   7.457  1.00 37.60    -0.048 C 
HETATM    7  C7  8UH Y1621     -34.931 129.980   8.488  1.00 37.60     0.009 C 
HETATM    8  C8  8UH Y1621     -35.193 131.288   8.576  1.00 37.60     0.007 C 
HETATM    9  C9  8UH Y1621     -36.088 131.844   9.593  1.00 37.60    -0.062 C 
HETATM   10  C10 8UH Y1621     -36.685 132.995   9.291  1.00 37.60     0.007 C 
HETATM   11  C11 8UH Y1621     -37.622 133.701  10.148  1.00 37.60     0.001 C 
HETATM   12  C12 8UH Y1621     -38.164 134.753   9.557  1.00 37.60     0.007 C 
HETATM   13  C13 8UH Y1621     -39.164 135.654  10.134  1.00 37.60    -0.062 C 
HETATM   14  C14 8UH Y1621     -39.486 136.751   9.446  1.00 37.60     0.007 C 
HETATM   15  C15 8UH Y1621     -40.500 137.664   9.943  1.00 37.60     0.001 C 
HETATM   16  C16 8UH Y1621     -35.733 127.711   6.609  1.00 37.60     0.020 C 
HETATM   17  C17 8UH Y1621     -35.380 129.876   5.511  1.00 37.60     0.020 C 
HETATM   18  C18 8UH Y1621     -32.026 129.837   8.868  1.00 37.60     0.044 C 
HETATM   19  C19 8UH Y1621     -36.310 131.153  10.897  1.00 37.60     0.048 C 
HETATM   20  C20 8UH Y1621     -39.822 135.342  11.440  1.00 37.60     0.048 C 
HETATM   21  O3  8UH Y1621     -31.501 127.619   4.584  1.00 37.60    -0.395 OA
ATOM     22  H3  8UH Y1621     -31.820 127.591   3.691  1.00  0.00     0.210 HD
HETATM   23  C21 8UH Y1621     -48.794 147.301  10.440  1.00 21.58    -0.018 C 
HETATM   24  C22 8UH Y1621     -50.109 147.680  11.154  1.00 21.20     0.045 C 
HETATM   25  C23 8UH Y1621     -50.140 147.846  12.676  1.00 20.61     0.123 C 
HETATM   26  C24 8UH Y1621     -48.769 147.824  13.371  1.00 19.82     0.066 C 
HETATM   27  C25 8UH Y1621     -47.543 147.333  12.667  1.00 19.81    -0.074 C 
HETATM   28  C26 8UH Y1621     -47.495 147.083  11.311  1.00 19.95    -0.048 C 
HETATM   29  C27 8UH Y1621     -46.280 146.619  10.579  1.00 17.10     0.009 C 
HETATM   30  C28 8UH Y1621     -45.852 145.337  10.546  1.00 17.58     0.007 C 
HETATM   31  C29 8UH Y1621     -44.703 144.804   9.883  1.00 37.60    -0.062 C 
HETATM   32  C30 8UH Y1621     -44.588 143.483   9.777  1.00 37.60     0.007 C 
HETATM   33  C31 8UH Y1621     -43.486 142.797   9.129  1.00 37.60     0.001 C 
HETATM   34  C32 8UH Y1621     -43.130 141.666   9.713  1.00 37.60     0.007 C 
HETATM   35  C33 8UH Y1621     -42.049 140.824   9.202  1.00 37.60    -0.062 C 
HETATM   36  C34 8UH Y1621     -41.734 139.708   9.858  1.00 37.60     0.007 C 
HETATM   37  C35 8UH Y1621     -40.684 138.834   9.359  1.00 37.60     0.001 C 
HETATM   38  C36 8UH Y1621     -48.603 148.485   9.465  1.00 19.38     0.020 C 
HETATM   39  C37 8UH Y1621     -49.095 146.038   9.602  1.00 19.65     0.020 C 
HETATM   40  C38 8UH Y1621     -46.442 147.235  13.661  1.00 20.06     0.044 C 
HETATM   41  C39 8UH Y1621     -43.680 145.740   9.329  1.00 37.60     0.048 C 
HETATM   42  C40 8UH Y1621     -41.338 141.212   7.950  1.00 37.60     0.048 C 
HETATM   43  O23 8UH Y1621     -50.846 149.027  13.028  1.00 18.88    -0.395 OA
ATOM     44  H23 8UH Y1621     -50.865 149.130  13.972  1.00  0.00     0.210 HD
ENDROOT
TORSDOF 12
