REMARK VINA RESULT:   -11.205      0.000      0.000
REMARK INTER + INTRA:         -13.552
REMARK INTER:                 -11.205
REMARK INTRA:                  -2.347
REMARK UNBOUND:                -2.347
REMARK  0 active torsions:
REMARK  status: ('A' for Active; 'I' for Inactive)
REMARK       I    between atoms: C3_3  and  O3_21 
REMARK       I    between atoms: C6_6  and  C7_7 
REMARK       I    between atoms: C8_8  and  C9_9 
REMARK       I    between atoms: C10_10  and  C11_11 
REMARK       I    between atoms: C12_12  and  C13_13 
REMARK       I    between atoms: C14_14  and  C15_15 
REMARK       I    between atoms: C23_25  and  O23_43 
REMARK       I    between atoms: C26_28  and  C27_29 
REMARK       I    between atoms: C28_30  and  C29_31 
REMARK       I    between atoms: C30_32  and  C31_33 
REMARK       I    between atoms: C32_34  and  C33_35 
REMARK       I    between atoms: C34_36  and  C35_37 
ROOT
HETATM    1  C1  8UH Y1620     -49.118 144.482  11.761  1.00 32.28    -0.018 C 
HETATM    2  C2  8UH Y1620     -49.654 144.862  13.130  1.00 32.10     0.045 C 
HETATM    3  C3  8UH Y1620     -48.768 145.729  13.994  1.00 30.03     0.123 C 
HETATM    4  C4  8UH Y1620     -48.129 146.847  13.216  1.00 27.01     0.066 C 
HETATM    5  C5  8UH Y1620     -47.438 146.336  11.991  1.00 26.85    -0.074 C 
HETATM    6  C6  8UH Y1620     -47.859 145.237  11.345  1.00 32.38    -0.048 C 
HETATM    7  C7  8UH Y1620     -47.088 144.733  10.181  1.00 31.45     0.009 C 
HETATM    8  C8  8UH Y1620     -46.143 143.807  10.337  1.00 30.07     0.007 C 
HETATM    9  C9  8UH Y1620     -45.343 143.266   9.241  1.00 31.62    -0.062 C 
HETATM   10  C10 8UH Y1620     -44.338 142.469   9.608  1.00 26.80     0.007 C 
HETATM   11  C11 8UH Y1620     -43.424 141.813   8.701  1.00 22.84     0.001 C 
HETATM   12  C12 8UH Y1620     -42.783 140.821   9.279  1.00 24.53     0.007 C 
HETATM   13  C13 8UH Y1620     -41.838 139.954   8.583  1.00 24.57    -0.062 C 
HETATM   14  C14 8UH Y1620     -41.310 138.963   9.298  1.00 24.07     0.007 C 
HETATM   15  C15 8UH Y1620     -40.398 137.995   8.734  1.00 24.13     0.001 C 
HETATM   16  C16 8UH Y1620     -50.293 144.709  10.813  1.00 30.09     0.020 C 
HETATM   17  C17 8UH Y1620     -48.778 142.998  11.778  1.00 35.00     0.020 C 
HETATM   18  C18 8UH Y1620     -46.154 147.040  11.677  1.00 25.72     0.044 C 
HETATM   19  C19 8UH Y1620     -45.637 143.619   7.816  1.00 32.28     0.048 C 
HETATM   20  C20 8UH Y1620     -41.523 140.157   7.139  1.00 25.14     0.048 C 
HETATM   21  O3  8UH Y1620     -49.578 146.334  15.003  1.00 33.60    -0.395 OA
ATOM     22  H3  8UH Y1620     -49.021 146.879  15.547  1.00  0.00     0.210 HD
HETATM   23  C21 8UH Y1620     -34.355 127.441   6.709  1.00 61.00    -0.018 C 
HETATM   24  C22 8UH Y1620     -33.847 126.982   5.345  1.00 61.00     0.045 C 
HETATM   25  C23 8UH Y1620     -32.618 127.674   4.772  1.00 61.00     0.123 C 
HETATM   26  C24 8UH Y1620     -31.650 128.097   5.856  1.00 61.00     0.066 C 
HETATM   27  C25 8UH Y1620     -32.356 128.916   6.900  1.00 61.00    -0.074 C 
HETATM   28  C26 8UH Y1620     -33.587 128.601   7.316  1.00 61.00    -0.048 C 
HETATM   29  C27 8UH Y1620     -34.226 129.385   8.403  1.00 61.00     0.009 C 
HETATM   30  C28 8UH Y1620     -34.974 130.459   8.146  1.00 61.00     0.007 C 
HETATM   31  C29 8UH Y1620     -35.622 131.249   9.182  1.00 31.74    -0.062 C 
HETATM   32  C30 8UH Y1620     -36.494 132.142   8.753  1.00 30.48     0.007 C 
HETATM   33  C31 8UH Y1620     -37.256 133.008   9.623  1.00 30.78     0.001 C 
HETATM   34  C32 8UH Y1620     -37.897 133.963   8.980  1.00 30.06     0.007 C 
HETATM   35  C33 8UH Y1620     -38.743 134.931   9.668  1.00 27.63    -0.062 C 
HETATM   36  C34 8UH Y1620     -39.260 135.910   8.928  1.00 25.49     0.007 C 
HETATM   37  C35 8UH Y1620     -40.140 136.924   9.465  1.00 24.60     0.001 C 
HETATM   38  C36 8UH Y1620     -34.312 126.223   7.626  1.00 61.00     0.020 C 
HETATM   39  C37 8UH Y1620     -35.800 127.891   6.542  1.00 61.00     0.020 C 
HETATM   40  C38 8UH Y1620     -31.559 130.014   7.544  1.00 61.00     0.044 C 
HETATM   41  C39 8UH Y1620     -35.325 131.065  10.634  1.00 33.51     0.048 C 
HETATM   42  C40 8UH Y1620     -39.008 134.791  11.131  1.00 28.91     0.048 C 
HETATM   43  O23 8UH Y1620     -31.944 126.751   3.908  1.00 61.00    -0.395 OA
ATOM     44  H23 8UH Y1620     -31.177 127.183   3.551  1.00  0.00     0.210 HD
ENDROOT
TORSDOF 12
