REMARK VINA RESULT:   -11.557      1.502     16.499
REMARK INTER + INTRA:         -11.904
REMARK INTER:                  -9.149
REMARK INTRA:                  -2.755
REMARK UNBOUND:                -0.347
REMARK  0 active torsions:
REMARK  status: ('A' for Active; 'I' for Inactive)
REMARK       I    between atoms: C3_3  and  O3_21 
REMARK       I    between atoms: C6_6  and  C7_7 
REMARK       I    between atoms: C8_8  and  C9_9 
REMARK       I    between atoms: C10_10  and  C11_11 
REMARK       I    between atoms: C12_12  and  C13_13 
REMARK       I    between atoms: C14_14  and  C15_15 
REMARK       I    between atoms: C23_25  and  O23_43 
REMARK       I    between atoms: C26_28  and  C27_29 
REMARK       I    between atoms: C28_30  and  C29_31 
REMARK       I    between atoms: C30_32  and  C31_33 
REMARK       I    between atoms: C32_34  and  C33_35 
REMARK       I    between atoms: C34_36  and  C35_37 
ROOT
HETATM    1  C1  8UH 61620     -34.484 128.104   6.531  1.00 97.95    -0.018 C 
HETATM    2  C2  8UH 61620     -33.681 127.831   5.264  1.00 97.95     0.045 C 
HETATM    3  C3  8UH 61620     -32.297 128.449   5.167  1.00 97.95     0.123 C 
HETATM    4  C4  8UH 61620     -31.597 128.462   6.508  1.00 97.95     0.066 C 
HETATM    5  C5  8UH 61620     -32.457 129.192   7.496  1.00 97.95    -0.074 C 
HETATM    6  C6  8UH 61620     -33.781 129.003   7.531  1.00 97.95    -0.048 C 
HETATM    7  C7  8UH 61620     -34.610 129.672   8.562  1.00 97.95     0.009 C 
HETATM    8  C8  8UH 61620     -35.130 130.881   8.356  1.00 97.95     0.007 C 
HETATM    9  C9  8UH 61620     -35.965 131.559   9.350  1.00 97.95    -0.062 C 
HETATM   10  C10 8UH 61620     -36.495 132.723   8.986  1.00 97.95     0.007 C 
HETATM   11  C11 8UH 61620     -37.358 133.514   9.843  1.00 97.95     0.001 C 
HETATM   12  C12 8UH 61620     -37.773 134.642   9.294  1.00 97.95     0.007 C 
HETATM   13  C13 8UH 61620     -38.676 135.586   9.961  1.00 97.95    -0.062 C 
HETATM   14  C14 8UH 61620     -39.252 136.485   9.165  1.00 97.95     0.007 C 
HETATM   15  C15 8UH 61620     -40.206 137.471   9.637  1.00 97.95     0.001 C 
HETATM   16  C16 8UH 61620     -34.822 126.747   7.141  1.00 97.95     0.020 C 
HETATM   17  C17 8UH 61620     -35.779 128.796   6.128  1.00 97.95     0.020 C 
HETATM   18  C18 8UH 61620     -31.724 130.024   8.506  1.00 97.95     0.044 C 
HETATM   19  C19 8UH 61620     -36.208 130.962  10.702  1.00 97.95     0.048 C 
HETATM   20  C20 8UH 61620     -38.948 135.532  11.434  1.00 97.95     0.048 C 
HETATM   21  O3  8UH 61620     -31.502 127.674   4.262  1.00 97.95    -0.395 OA
ATOM     22  H3  8UH 61620     -30.637 128.061   4.202  1.00  0.00     0.210 HD
HETATM   23  C21 8UH 61620     -50.073 145.153   9.131  1.00 23.68    -0.018 C 
HETATM   24  C22 8UH 61620     -50.911 145.755  10.256  1.00 23.68     0.045 C 
HETATM   25  C23 8UH 61620     -50.307 146.871  11.099  1.00 23.68     0.123 C 
HETATM   26  C24 8UH 61620     -49.268 147.662  10.328  1.00 23.68     0.066 C 
HETATM   27  C25 8UH 61620     -48.249 146.703   9.780  1.00 23.68    -0.074 C 
HETATM   28  C26 8UH 61620     -48.633 145.637   9.075  1.00 23.68    -0.048 C 
HETATM   29  C27 8UH 61620     -47.673 144.925   8.188  1.00 23.68     0.009 C 
HETATM   30  C28 8UH 61620     -46.835 143.981   8.626  1.00 23.68     0.007 C 
HETATM   31  C29 8UH 61620     -45.896 143.276   7.743  1.00 97.95    -0.062 C 
HETATM   32  C30 8UH 61620     -45.149 142.352   8.338  1.00 97.95     0.007 C 
HETATM   33  C31 8UH 61620     -44.165 141.520   7.674  1.00 97.95     0.001 C 
HETATM   34  C32 8UH 61620     -43.557 140.698   8.511  1.00 97.95     0.007 C 
HETATM   35  C33 8UH 61620     -42.532 139.747   8.090  1.00 97.95    -0.062 C 
HETATM   36  C34 8UH 61620     -41.981 138.989   9.038  1.00 97.95     0.007 C 
HETATM   37  C35 8UH 61620     -40.967 138.009   8.697  1.00 97.95     0.001 C 
HETATM   38  C36 8UH 61620     -50.810 145.463   7.839  1.00 23.68     0.020 C 
HETATM   39  C37 8UH 61620     -50.035 143.645   9.323  1.00 23.68     0.020 C 
HETATM   40  C38 8UH 61620     -46.995 147.452   9.445  1.00 23.68     0.044 C 
HETATM   41  C39 8UH 61620     -45.798 143.570   6.277  1.00 97.95     0.048 C 
HETATM   42  C40 8UH 61620     -42.128 139.641   6.654  1.00 97.95     0.048 C 
HETATM   43  O23 8UH 61620     -51.359 147.752  11.500  1.00 23.68    -0.395 OA
ATOM     44  H23 8UH 61620     -50.982 148.448  12.026  1.00  0.00     0.210 HD
ENDROOT
TORSDOF 12
