REMARK VINA RESULT:   -10.103      0.883     16.847
REMARK INTER + INTRA:         -11.967
REMARK INTER:                  -9.404
REMARK INTRA:                  -2.564
REMARK UNBOUND:                -1.864
REMARK  0 active torsions:
REMARK  status: ('A' for Active; 'I' for Inactive)
REMARK       I    between atoms: C3_3  and  O3_21 
REMARK       I    between atoms: C6_6  and  C7_7 
REMARK       I    between atoms: C8_8  and  C9_9 
REMARK       I    between atoms: C10_10  and  C11_11 
REMARK       I    between atoms: C12_12  and  C13_13 
REMARK       I    between atoms: C14_14  and  C15_15 
REMARK       I    between atoms: C23_25  and  O23_43 
REMARK       I    between atoms: C26_28  and  C27_29 
REMARK       I    between atoms: C28_30  and  C29_31 
REMARK       I    between atoms: C30_32  and  C31_33 
REMARK       I    between atoms: C32_34  and  C33_35 
REMARK       I    between atoms: C34_36  and  C35_37 
ROOT
HETATM    1  C1  8UH Y1621     -34.436 127.003   6.432  1.00 30.42    -0.018 C 
HETATM    2  C2  8UH Y1621     -34.248 126.704   4.941  1.00 30.42     0.045 C 
HETATM    3  C3  8UH Y1621     -33.056 127.353   4.249  1.00 30.42     0.123 C 
HETATM    4  C4  8UH Y1621     -32.009 127.821   5.248  1.00 30.42     0.066 C 
HETATM    5  C5  8UH Y1621     -32.709 128.728   6.215  1.00 30.42    -0.074 C 
HETATM    6  C6  8UH Y1621     -33.723 128.244   6.930  1.00 30.42    -0.048 C 
HETATM    7  C7  8UH Y1621     -34.306 128.969   8.078  1.00 30.42     0.009 C 
HETATM    8  C8  8UH Y1621     -34.314 130.305   8.068  1.00 30.42     0.007 C 
HETATM    9  C9  8UH Y1621     -35.107 131.014   9.098  1.00 30.42    -0.062 C 
HETATM   10  C10 8UH Y1621     -35.540 132.252   8.788  1.00 30.42     0.007 C 
HETATM   11  C11 8UH Y1621     -36.468 133.012   9.625  1.00 30.42     0.001 C 
HETATM   12  C12 8UH Y1621     -37.055 134.098   9.125  1.00 30.42     0.007 C 
HETATM   13  C13 8UH Y1621     -38.069 134.850   9.895  1.00 30.42    -0.062 C 
HETATM   14  C14 8UH Y1621     -38.716 135.846   9.256  1.00 30.42     0.007 C 
HETATM   15  C15 8UH Y1621     -39.764 136.671   9.864  1.00 30.42     0.001 C 
HETATM   16  C16 8UH Y1621     -33.849 125.854   7.249  1.00 30.42     0.020 C 
HETATM   17  C17 8UH Y1621     -35.927 127.074   6.715  1.00 30.42     0.020 C 
HETATM   18  C18 8UH Y1621     -31.599 129.525   6.841  1.00 30.42     0.044 C 
HETATM   19  C19 8UH Y1621     -35.476 130.307  10.384  1.00 30.42     0.048 C 
HETATM   20  C20 8UH Y1621     -38.346 134.450  11.323  1.00 30.42     0.048 C 
HETATM   21  O3  8UH Y1621     -32.502 126.361   3.390  1.00 30.42    -0.395 OA
ATOM     22  H3  8UH Y1621     -31.759 126.765   2.959  1.00  0.00     0.210 HD
HETATM   23  C21 8UH Y1621     -48.695 145.814  11.804  1.00 13.13    -0.018 C 
HETATM   24  C22 8UH Y1621     -49.532 146.606  12.798  1.00 13.13     0.045 C 
HETATM   25  C23 8UH Y1621     -48.916 146.766  14.169  1.00 13.13     0.123 C 
HETATM   26  C24 8UH Y1621     -47.518 147.313  14.035  1.00 13.13     0.066 C 
HETATM   27  C25 8UH Y1621     -46.681 146.445  13.137  1.00 13.13    -0.074 C 
HETATM   28  C26 8UH Y1621     -47.197 145.816  12.068  1.00 13.13    -0.048 C 
HETATM   29  C27 8UH Y1621     -46.329 145.145  11.058  1.00 13.13     0.009 C 
HETATM   30  C28 8UH Y1621     -45.807 143.918  11.193  1.00 13.13     0.007 C 
HETATM   31  C29 8UH Y1621     -44.972 143.299  10.150  1.00 30.42    -0.062 C 
HETATM   32  C30 8UH Y1621     -44.450 142.087  10.436  1.00 30.42     0.007 C 
HETATM   33  C31 8UH Y1621     -43.556 141.349   9.545  1.00 30.42     0.001 C 
HETATM   34  C32 8UH Y1621     -42.987 140.228   9.987  1.00 30.42     0.007 C 
HETATM   35  C33 8UH Y1621     -42.015 139.475   9.167  1.00 30.42    -0.062 C 
HETATM   36  C34 8UH Y1621     -41.383 138.446   9.773  1.00 30.42     0.007 C 
HETATM   37  C35 8UH Y1621     -40.352 137.619   9.143  1.00 30.42     0.001 C 
HETATM   38  C36 8UH Y1621     -49.013 146.414  10.445  1.00 13.13     0.020 C 
HETATM   39  C37 8UH Y1621     -49.145 144.363  11.852  1.00 13.13     0.020 C 
HETATM   40  C38 8UH Y1621     -45.209 146.630  13.341  1.00 13.13     0.044 C 
HETATM   41  C39 8UH Y1621     -44.759 144.033   8.851  1.00 30.42     0.048 C 
HETATM   42  C40 8UH Y1621     -41.742 139.913   7.752  1.00 30.42     0.048 C 
HETATM   43  O23 8UH Y1621     -49.698 147.705  14.907  1.00 13.13    -0.395 OA
ATOM     44  H23 8UH Y1621     -50.578 147.361  14.991  1.00  0.00     0.210 HD
ENDROOT
TORSDOF 12
