REMARK VINA RESULT:   -10.426      1.617      2.511
REMARK INTER + INTRA:         -10.697
REMARK INTER:                  -8.425
REMARK INTRA:                  -2.272
REMARK UNBOUND:                -0.271
REMARK  0 active torsions:
REMARK  status: ('A' for Active; 'I' for Inactive)
REMARK       I    between atoms: C3_3  and  O3_21 
REMARK       I    between atoms: C6_6  and  C7_7 
REMARK       I    between atoms: C8_8  and  C9_9 
REMARK       I    between atoms: C10_10  and  C11_11 
REMARK       I    between atoms: C12_12  and  C13_13 
REMARK       I    between atoms: C14_14  and  C15_15 
REMARK       I    between atoms: C23_25  and  O23_43 
REMARK       I    between atoms: C26_28  and  C27_29 
REMARK       I    between atoms: C28_30  and  C29_31 
REMARK       I    between atoms: C30_32  and  C31_33 
REMARK       I    between atoms: C32_34  and  C33_35 
REMARK       I    between atoms: C34_36  and  C35_37 
ROOT
HETATM    1  C1  8UH S1621     -48.394 146.262  10.455  1.00 98.50    -0.018 C 
HETATM    2  C2  8UH S1621     -49.707 146.867  10.909  1.00 95.05     0.045 C 
HETATM    3  C3  8UH S1621     -50.091 146.402  12.295  1.00 91.19     0.123 C 
HETATM    4  C4  8UH S1621     -49.030 146.787  13.304  1.00 95.39     0.066 C 
HETATM    5  C5  8UH S1621     -47.619 146.744  12.779  1.00 94.24    -0.074 C 
HETATM    6  C6  8UH S1621     -47.304 146.383  11.514  1.00 98.17    -0.048 C 
HETATM    7  C7  8UH S1621     -45.895 146.136  11.088  1.00 96.30     0.009 C 
HETATM    8  C8  8UH S1621     -45.276 144.960  11.249  1.00 99.74     0.007 C 
HETATM    9  C9  8UH S1621     -43.909 144.663  10.821  1.00 91.17    -0.062 C 
HETATM   10  C10 8UH S1621     -43.590 143.370  10.845  1.00 97.68     0.007 C 
HETATM   11  C11 8UH S1621     -42.303 142.846  10.435  1.00 98.02     0.001 C 
HETATM   12  C12 8UH S1621     -42.315 141.543  10.229  1.00 91.18     0.007 C 
HETATM   13  C13 8UH S1621     -41.145 140.791   9.776  1.00 90.92    -0.062 C 
HETATM   14  C14 8UH S1621     -41.316 139.482   9.613  1.00 96.50     0.007 C 
HETATM   15  C15 8UH S1621     -40.279 138.583   9.154  1.00 99.38     0.001 C 
HETATM   16  C16 8UH S1621     -48.083 146.933   9.127  1.00 90.00     0.020 C 
HETATM   17  C17 8UH S1621     -48.568 144.781  10.181  1.00 93.85     0.020 C 
HETATM   18  C18 8UH S1621     -46.683 146.604  13.937  1.00 91.76     0.044 C 
HETATM   19  C19 8UH S1621     -42.949 145.725  10.379  1.00 90.99     0.048 C 
HETATM   20  C20 8UH S1621     -39.841 141.473   9.494  1.00 93.33     0.048 C 
HETATM   21  O3  8UH S1621     -51.310 147.040  12.676  1.00 92.07    -0.395 OA
ATOM     22  H3  8UH S1621     -51.551 146.747  13.547  1.00  0.00     0.210 HD
HETATM   23  C21 8UH S1621     -34.725 127.581   5.719  1.00 98.00    -0.022 C 
HETATM   24  C22 8UH S1621     -33.497 126.678   5.759  1.00 98.00     0.045 C 
HETATM   25  C23 8UH S1621     -32.176 127.424   5.927  1.00 98.00     0.119 C 
HETATM   26  C24 8UH S1621     -32.234 128.372   7.114  1.00 98.00     0.040 C 
HETATM   27  C25 8UH S1621     -33.430 129.263   6.930  1.00 98.00     0.013 C 
HETATM   28  C26 8UH S1621     -34.611 128.706   6.714  1.00 98.00    -0.068 C 
HETATM   29  C27 8UH S1621     -35.793 129.158   7.461  1.00 98.00     0.004 C 
HETATM   30  C28 8UH S1621     -36.223 130.401   7.281  1.00 98.00     0.007 C 
HETATM   31  C29 8UH S1621     -37.414 130.891   7.980  1.00 98.43    -0.062 C 
HETATM   32  C30 8UH S1621     -37.713 132.164   7.772  1.00 92.06     0.007 C 
HETATM   33  C31 8UH S1621     -38.851 132.841   8.358  1.00 98.99     0.001 C 
HETATM   34  C32 8UH S1621     -38.725 134.154   8.355  1.00 98.35     0.007 C 
HETATM   35  C33 8UH S1621     -39.761 135.046   8.866  1.00 93.74    -0.062 C 
HETATM   36  C34 8UH S1621     -39.484 136.346   8.911  1.00 95.45     0.007 C 
HETATM   37  C35 8UH S1621     -40.476 137.294   9.374  1.00 96.56     0.001 C 
HETATM   38  C36 8UH S1621     -35.965 126.743   6.001  1.00 98.00     0.019 C 
HETATM   39  C37 8UH S1621     -34.874 128.211   4.343  1.00 98.00     0.019 C 
HETATM   40  C38 8UH S1621     -32.929 129.494   8.327  1.00 98.00     0.015 C 
HETATM   41  C39 8UH S1621     -38.236 130.009   8.869  1.00 93.10     0.048 C 
HETATM   42  C40 8UH S1621     -41.087 134.496   9.287  1.00 95.49     0.048 C 
HETATM   43  O23 8UH S1621     -31.110 126.490   6.116  1.00 98.00    -0.396 OA
ATOM     44  H23 8UH S1621     -31.073 125.897   5.374  1.00  0.00     0.210 HD
ENDROOT
TORSDOF 12
