REMARK VINA RESULT:   -11.278      1.181      1.470
REMARK INTER + INTRA:         -14.116
REMARK INTER:                 -10.925
REMARK INTRA:                  -3.191
REMARK UNBOUND:                -2.837
REMARK  0 active torsions:
REMARK  status: ('A' for Active; 'I' for Inactive)
REMARK       I    between atoms: C3_3  and  O3_21 
REMARK       I    between atoms: C6_6  and  C7_7 
REMARK       I    between atoms: C8_8  and  C9_9 
REMARK       I    between atoms: C10_10  and  C11_11 
REMARK       I    between atoms: C12_12  and  C13_13 
REMARK       I    between atoms: C14_14  and  C15_15 
REMARK       I    between atoms: C23_25  and  O23_43 
REMARK       I    between atoms: C26_28  and  C27_29 
REMARK       I    between atoms: C28_30  and  C29_31 
REMARK       I    between atoms: C30_32  and  C31_33 
REMARK       I    between atoms: C32_34  and  C33_35 
REMARK       I    between atoms: C34_36  and  C35_37 
ROOT
HETATM    1  C1  8UH Y1621     -49.261 144.627  10.946  1.00 26.19    -0.018 C 
HETATM    2  C2  8UH Y1621     -50.127 145.206  12.058  1.00 26.65     0.045 C 
HETATM    3  C3  8UH Y1621     -49.443 146.099  13.075  1.00 28.07     0.123 C 
HETATM    4  C4  8UH Y1621     -48.417 146.993  12.429  1.00 30.07     0.066 C 
HETATM    5  C5  8UH Y1621     -47.430 146.146  11.694  1.00 28.83    -0.074 C 
HETATM    6  C6  8UH Y1621     -47.851 145.192  10.858  1.00 27.49    -0.048 C 
HETATM    7  C7  8UH Y1621     -46.972 144.640   9.797  1.00 29.45     0.009 C 
HETATM    8  C8  8UH Y1621     -45.965 143.805  10.061  1.00 27.83     0.007 C 
HETATM    9  C9  8UH Y1621     -45.120 143.227   9.011  1.00 26.06    -0.062 C 
HETATM   10  C10 8UH Y1621     -44.384 142.181   9.379  1.00 25.01     0.007 C 
HETATM   11  C11 8UH Y1621     -43.526 141.425   8.494  1.00 25.09     0.001 C 
HETATM   12  C12 8UH Y1621     -42.917 140.405   9.067  1.00 26.01     0.007 C 
HETATM   13  C13 8UH Y1621     -42.063 139.469   8.334  1.00 26.36    -0.062 C 
HETATM   14  C14 8UH Y1621     -41.578 138.421   9.004  1.00 27.67     0.007 C 
HETATM   15  C15 8UH Y1621     -40.754 137.423   8.342  1.00 28.38     0.001 C 
HETATM   16  C16 8UH Y1621     -50.030 144.899   9.666  1.00 26.46     0.020 C 
HETATM   17  C17 8UH Y1621     -49.131 143.125  11.153  1.00 26.61     0.020 C 
HETATM   18  C18 8UH Y1621     -46.264 147.032  11.403  1.00 29.43     0.044 C 
HETATM   19  C19 8UH Y1621     -45.106 143.768   7.618  1.00 26.07     0.048 C 
HETATM   20  C20 8UH Y1621     -41.802 139.662   6.872  1.00 25.83     0.048 C 
HETATM   21  O3  8UH Y1621     -50.429 146.912  13.707  1.00 27.44    -0.395 OA
ATOM     22  H3  8UH Y1621     -51.076 146.349  14.115  1.00  0.00     0.210 HD
HETATM   23  C21 8UH Y1621     -34.252 126.822   6.465  1.00 94.67    -0.018 C 
HETATM   24  C22 8UH Y1621     -33.909 126.139   5.148  1.00 94.67     0.045 C 
HETATM   25  C23 8UH Y1621     -33.142 126.965   4.137  1.00 94.67     0.123 C 
HETATM   26  C24 8UH Y1621     -32.041 127.706   4.844  1.00 94.67     0.066 C 
HETATM   27  C25 8UH Y1621     -32.626 128.611   5.883  1.00 94.67    -0.074 C 
HETATM   28  C26 8UH Y1621     -33.643 128.201   6.644  1.00 94.67    -0.048 C 
HETATM   29  C27 8UH Y1621     -34.202 129.077   7.702  1.00 94.67     0.009 C 
HETATM   30  C28 8UH Y1621     -35.179 129.940   7.436  1.00 94.67     0.007 C 
HETATM   31  C29 8UH Y1621     -35.771 130.803   8.448  1.00 29.73    -0.062 C 
HETATM   32  C30 8UH Y1621     -36.884 131.439   8.097  1.00 28.64     0.007 C 
HETATM   33  C31 8UH Y1621     -37.607 132.344   8.965  1.00 27.79     0.001 C 
HETATM   34  C32 8UH Y1621     -38.206 133.344   8.342  1.00 27.11     0.007 C 
HETATM   35  C33 8UH Y1621     -38.989 134.353   9.052  1.00 25.78    -0.062 C 
HETATM   36  C34 8UH Y1621     -39.523 135.369   8.371  1.00 26.10     0.007 C 
HETATM   37  C35 8UH Y1621     -40.325 136.382   9.037  1.00 27.22     0.001 C 
HETATM   38  C36 8UH Y1621     -33.792 125.870   7.564  1.00 94.67     0.020 C 
HETATM   39  C37 8UH Y1621     -35.763 126.989   6.518  1.00 94.67     0.020 C 
HETATM   40  C38 8UH Y1621     -31.971 129.950   6.045  1.00 94.67     0.044 C 
HETATM   41  C39 8UH Y1621     -35.145 130.941   9.795  1.00 32.37     0.048 C 
HETATM   42  C40 8UH Y1621     -39.180 134.216  10.519  1.00 25.14     0.048 C 
HETATM   43  O23 8UH Y1621     -32.546 126.084   3.185  1.00 94.67    -0.395 OA
ATOM     44  H23 8UH Y1621     -32.065 126.601   2.550  1.00  0.00     0.210 HD
ENDROOT
TORSDOF 12
