REMARK VINA RESULT:   -11.121      0.000      0.000
REMARK INTER + INTRA:         -13.623
REMARK INTER:                 -11.121
REMARK INTRA:                  -2.503
REMARK UNBOUND:                -2.503
REMARK  0 active torsions:
REMARK  status: ('A' for Active; 'I' for Inactive)
REMARK       I    between atoms: C3_3  and  O3_21 
REMARK       I    between atoms: C6_6  and  C7_7 
REMARK       I    between atoms: C8_8  and  C9_9 
REMARK       I    between atoms: C10_10  and  C11_11 
REMARK       I    between atoms: C12_12  and  C13_13 
REMARK       I    between atoms: C14_14  and  C15_15 
REMARK       I    between atoms: C23_25  and  O23_43 
REMARK       I    between atoms: C26_28  and  C27_29 
REMARK       I    between atoms: C28_30  and  C29_31 
REMARK       I    between atoms: C30_32  and  C31_33 
REMARK       I    between atoms: C32_34  and  C33_35 
REMARK       I    between atoms: C34_36  and  C35_37 
ROOT
HETATM    1  C1  8UH F5620     -49.159 144.737  12.687  1.00 19.30    -0.018 C 
HETATM    2  C2  8UH F5620     -49.614 145.356  14.022  1.00 17.68     0.045 C 
HETATM    3  C3  8UH F5620     -48.796 146.496  14.620  1.00 17.79     0.123 C 
HETATM    4  C4  8UH F5620     -47.899 147.248  13.635  1.00 18.50     0.066 C 
HETATM    5  C5  8UH F5620     -47.317 146.505  12.477  1.00 19.40    -0.074 C 
HETATM    6  C6  8UH F5620     -47.881 145.332  12.015  1.00 19.02    -0.048 C 
HETATM    7  C7  8UH F5620     -47.299 144.591  10.885  1.00 18.60     0.009 C 
HETATM    8  C8  8UH F5620     -46.211 143.793  10.918  1.00 18.09     0.007 C 
HETATM    9  C9  8UH F5620     -45.555 143.146   9.777  1.00 18.23    -0.062 C 
HETATM   10  C10 8UH F5620     -44.535 142.299  10.037  1.00 15.81     0.007 C 
HETATM   11  C11 8UH F5620     -43.772 141.551   9.076  1.00 18.00     0.001 C 
HETATM   12  C12 8UH F5620     -42.910 140.613   9.499  1.00 18.12     0.007 C 
HETATM   13  C13 8UH F5620     -42.076 139.706   8.721  1.00 18.88    -0.062 C 
HETATM   14  C14 8UH F5620     -41.374 138.776   9.403  1.00 21.10     0.007 C 
HETATM   15  C15 8UH F5620     -40.554 137.720   8.869  1.00 24.06     0.001 C 
HETATM   16  C16 8UH F5620     -50.374 144.947  11.767  1.00 17.17     0.020 C 
HETATM   17  C17 8UH F5620     -48.998 143.218  12.923  1.00 16.95     0.020 C 
HETATM   18  C18 8UH F5620     -46.109 147.239  11.990  1.00 19.80     0.044 C 
HETATM   19  C19 8UH F5620     -46.098 143.431   8.396  1.00 17.09     0.048 C 
HETATM   20  C20 8UH F5620     -42.112 139.817   7.228  1.00 16.35     0.048 C 
HETATM   21  O3  8UH F5620     -49.645 147.406  15.293  1.00 17.38    -0.395 OA
ATOM     22  H3  8UH F5620     -49.135 148.116  15.665  1.00  0.00     0.210 HD
HETATM   23  C21 8UH F5620     -34.402 126.904   6.410  1.00 29.53    -0.018 C 
HETATM   24  C22 8UH F5620     -34.022 126.242   5.087  1.00 29.53     0.045 C 
HETATM   25  C23 8UH F5620     -33.010 126.955   4.202  1.00 29.53     0.123 C 
HETATM   26  C24 8UH F5620     -31.952 127.638   5.042  1.00 29.53     0.066 C 
HETATM   27  C25 8UH F5620     -32.642 128.612   5.950  1.00 29.53    -0.074 C 
HETATM   28  C26 8UH F5620     -33.690 128.218   6.683  1.00 29.53    -0.048 C 
HETATM   29  C27 8UH F5620     -34.171 129.051   7.807  1.00 29.53     0.009 C 
HETATM   30  C28 8UH F5620     -35.004 130.080   7.642  1.00 29.53     0.007 C 
HETATM   31  C29 8UH F5620     -35.490 130.908   8.790  1.00 26.61    -0.062 C 
HETATM   32  C30 8UH F5620     -36.332 131.919   8.487  1.00 25.24     0.007 C 
HETATM   33  C31 8UH F5620     -36.967 132.812   9.410  1.00 26.40     0.001 C 
HETATM   34  C32 8UH F5620     -37.756 133.818   8.986  1.00 26.29     0.007 C 
HETATM   35  C33 8UH F5620     -38.465 134.823   9.784  1.00 26.99    -0.062 C 
HETATM   36  C34 8UH F5620     -39.170 135.764   9.119  1.00 26.65     0.007 C 
HETATM   37  C35 8UH F5620     -39.935 136.846   9.671  1.00 25.43     0.001 C 
HETATM   38  C36 8UH F5620     -34.132 125.888   7.515  1.00 29.53     0.020 C 
HETATM   39  C37 8UH F5620     -35.897 127.204   6.386  1.00 29.53     0.020 C 
HETATM   40  C38 8UH F5620     -31.721 129.719   6.378  1.00 29.53     0.044 C 
HETATM   41  C39 8UH F5620     -35.028 130.587  10.190  1.00 26.87     0.048 C 
HETATM   42  C40 8UH F5620     -38.338 134.750  11.277  1.00 24.17     0.048 C 
HETATM   43  O23 8UH F5620     -32.363 125.995   3.362  1.00 29.53    -0.395 OA
ATOM     44  H23 8UH F5620     -33.028 125.567   2.835  1.00  0.00     0.210 HD
ENDROOT
TORSDOF 12
