REMARK VINA RESULT:    -8.370      0.000      0.000
REMARK INTER + INTRA:         -11.273
REMARK INTER:                  -8.370
REMARK INTRA:                  -2.903
REMARK UNBOUND:                -2.903
REMARK  0 active torsions:
REMARK  status: ('A' for Active; 'I' for Inactive)
REMARK       I    between atoms: C3_3  and  O3_21 
REMARK       I    between atoms: C6_6  and  C7_7 
REMARK       I    between atoms: C8_8  and  C9_9 
REMARK       I    between atoms: C10_10  and  C11_11 
REMARK       I    between atoms: C12_12  and  C13_13 
REMARK       I    between atoms: C14_14  and  C15_15 
REMARK       I    between atoms: C23_25  and  O23_43 
REMARK       I    between atoms: C26_28  and  C27_29 
REMARK       I    between atoms: C28_30  and  C29_31 
REMARK       I    between atoms: C30_32  and  C31_33 
REMARK       I    between atoms: C32_34  and  C33_35 
REMARK       I    between atoms: C34_36  and  C35_37 
ROOT
HETATM    1  C1  8UH 7 621     -34.269 127.343   6.452  1.00 16.14    -0.018 C 
HETATM    2  C2  8UH 7 621     -33.601 126.717   5.229  1.00 16.14     0.045 C 
HETATM    3  C3  8UH 7 621     -32.421 127.469   4.638  1.00 16.14     0.123 C 
HETATM    4  C4  8UH 7 621     -31.527 127.996   5.734  1.00 16.14     0.066 C 
HETATM    5  C5  8UH 7 621     -32.339 128.920   6.590  1.00 16.14    -0.074 C 
HETATM    6  C6  8UH 7 621     -33.552 128.555   7.022  1.00 16.14    -0.048 C 
HETATM    7  C7  8UH 7 621     -34.201 129.329   8.104  1.00 16.14     0.009 C 
HETATM    8  C8  8UH 7 621     -34.918 130.436   7.892  1.00 16.14     0.007 C 
HETATM    9  C9  8UH 7 621     -35.527 131.162   9.014  1.00 16.14    -0.062 C 
HETATM   10  C10 8UH 7 621     -36.281 132.237   8.732  1.00 16.14     0.007 C 
HETATM   11  C11 8UH 7 621     -36.988 133.100   9.681  1.00 16.14     0.001 C 
HETATM   12  C12 8UH 7 621     -37.541 134.194   9.162  1.00 16.14     0.007 C 
HETATM   13  C13 8UH 7 621     -38.345 135.174   9.916  1.00 16.14    -0.062 C 
HETATM   14  C14 8UH 7 621     -39.188 135.923   9.193  1.00 16.14     0.007 C 
HETATM   15  C15 8UH 7 621     -40.116 136.896   9.754  1.00 16.14     0.001 C 
HETATM   16  C16 8UH 7 621     -34.416 126.242   7.496  1.00 16.14     0.020 C 
HETATM   17  C17 8UH 7 621     -35.658 127.813   6.047  1.00 16.14     0.020 C 
HETATM   18  C18 8UH 7 621     -31.477 129.905   7.325  1.00 16.14     0.044 C 
HETATM   19  C19 8UH 7 621     -35.243 130.694  10.404  1.00 16.14     0.048 C 
HETATM   20  C20 8UH 7 621     -38.256 135.313  11.403  1.00 16.14     0.048 C 
HETATM   21  O3  8UH 7 621     -31.660 126.584   3.814  1.00 16.14    -0.395 OA
ATOM     22  H3  8UH 7 621     -30.923 127.055   3.444  1.00  0.00     0.210 HD
HETATM   23  C21 8UH 7 621     -49.936 144.303  11.318  1.00 21.49    -0.018 C 
HETATM   24  C22 8UH 7 621     -50.496 144.702  12.679  1.00 21.49     0.045 C 
HETATM   25  C23 8UH 7 621     -49.702 145.705  13.503  1.00 21.49     0.123 C 
HETATM   26  C24 8UH 7 621     -49.019 146.738  12.637  1.00 21.49     0.066 C 
HETATM   27  C25 8UH 7 621     -48.181 146.059  11.590  1.00 21.49    -0.074 C 
HETATM   28  C26 8UH 7 621     -48.601 144.946  10.974  1.00 21.49    -0.048 C 
HETATM   29  C27 8UH 7 621     -47.757 144.322   9.920  1.00 21.49     0.009 C 
HETATM   30  C28 8UH 7 621     -46.905 143.335  10.201  1.00 21.49     0.007 C 
HETATM   31  C29 8UH 7 621     -46.055 142.696   9.194  1.00 16.14    -0.062 C 
HETATM   32  C30 8UH 7 621     -45.490 141.531   9.519  1.00 16.14     0.007 C 
HETATM   33  C31 8UH 7 621     -44.616 140.775   8.636  1.00 16.14     0.001 C 
HETATM   34  C32 8UH 7 621     -43.812 139.930   9.264  1.00 16.14     0.007 C 
HETATM   35  C33 8UH 7 621     -42.824 139.057   8.614  1.00 16.14    -0.062 C 
HETATM   36  C34 8UH 7 621     -42.041 138.327   9.419  1.00 16.14     0.007 C 
HETATM   37  C35 8UH 7 621     -41.035 137.392   8.931  1.00 16.14     0.001 C 
HETATM   38  C36 8UH 7 621     -51.010 144.644  10.287  1.00 21.49     0.020 C 
HETATM   39  C37 8UH 7 621     -49.733 142.796  11.332  1.00 21.49     0.020 C 
HETATM   40  C38 8UH 7 621     -46.877 146.720  11.244  1.00 21.49     0.044 C 
HETATM   41  C39 8UH 7 621     -45.838 143.330   7.855  1.00 16.14     0.048 C 
HETATM   42  C40 8UH 7 621     -42.689 139.023   7.125  1.00 16.14     0.048 C 
HETATM   43  O23 8UH 7 621     -50.614 146.389  14.368  1.00 21.49    -0.395 OA
ATOM     44  H23 8UH 7 621     -50.118 147.015  14.882  1.00  0.00     0.210 HD
ENDROOT
TORSDOF 12
