REMARK VINA RESULT:    -7.924      1.146     16.958
REMARK INTER + INTRA:         -10.384
REMARK INTER:                 -10.056
REMARK INTRA:                  -0.327
REMARK UNBOUND:                -2.459
REMARK  0 active torsions:
REMARK  status: ('A' for Active; 'I' for Inactive)
REMARK       I    between atoms: C3_3  and  O3_21 
REMARK       I    between atoms: C6_6  and  C7_7 
REMARK       I    between atoms: C8_8  and  C9_9 
REMARK       I    between atoms: C10_10  and  C11_11 
REMARK       I    between atoms: C12_12  and  C13_13 
REMARK       I    between atoms: C14_14  and  C15_15 
REMARK       I    between atoms: C23_25  and  O23_43 
REMARK       I    between atoms: C26_28  and  C27_29 
REMARK       I    between atoms: C28_30  and  C29_31 
REMARK       I    between atoms: C30_32  and  C31_33 
REMARK       I    between atoms: C32_34  and  C33_35 
REMARK       I    between atoms: C34_36  and  C35_37 
ROOT
HETATM    1  C1  8UH 1 316     -50.363 145.549  11.139  1.00 73.24    -0.018 C 
HETATM    2  C2  8UH 1 316     -51.122 145.987  12.395  1.00 72.84     0.045 C 
HETATM    3  C3  8UH 1 316     -50.371 146.884  13.370  1.00 72.53     0.123 C 
HETATM    4  C4  8UH 1 316     -49.580 147.933  12.612  1.00 72.61     0.066 C 
HETATM    5  C5  8UH 1 316     -48.618 147.250  11.677  1.00 72.68    -0.074 C 
HETATM    6  C6  8UH 1 316     -49.006 146.203  10.947  1.00 72.79    -0.048 C 
HETATM    7  C7  8UH 1 316     -48.091 145.649   9.919  1.00 71.90     0.009 C 
HETATM    8  C8  8UH 1 316     -47.140 144.775  10.260  1.00 71.51     0.007 C 
HETATM    9  C9  8UH 1 316     -46.203 144.185   9.281  1.00 70.48    -0.062 C 
HETATM   10  C10 8UH 1 316     -45.325 143.271   9.720  1.00 69.46     0.007 C 
HETATM   11  C11 8UH 1 316     -44.340 142.593   8.880  1.00 69.85     0.001 C 
HETATM   12  C12 8UH 1 316     -43.570 141.689   9.485  1.00 72.15     0.007 C 
HETATM   13  C13 8UH 1 316     -42.529 140.887   8.806  1.00 73.74    -0.062 C 
HETATM   14  C14 8UH 1 316     -42.008 139.843   9.477  1.00 74.04     0.007 C 
HETATM   15  C15 8UH 1 316     -40.993 138.954   8.915  1.00 74.62     0.001 C 
HETATM   16  C16 8UH 1 316     -51.231 145.871   9.928  1.00 72.68     0.020 C 
HETATM   17  C17 8UH 1 316     -50.145 144.043  11.215  1.00 73.05     0.020 C 
HETATM   18  C18 8UH 1 316     -47.351 147.986  11.346  1.00 72.13     0.044 C 
HETATM   19  C19 8UH 1 316     -46.230 144.606   7.841  1.00 70.45     0.048 C 
HETATM   20  C20 8UH 1 316     -42.070 141.229   7.416  1.00 72.89     0.048 C 
HETATM   21  O3  8UH 1 316     -51.310 147.536  14.237  1.00 71.04    -0.395 OA
ATOM     22  H3  8UH 1 316     -51.805 146.879  14.712  1.00  0.00     0.210 HD
HETATM   23  C21 8UH 1 316     -34.056 128.290   7.203  1.00 20.77    -0.018 C 
HETATM   24  C22 8UH 1 316     -33.283 127.670   6.028  1.00 19.21     0.045 C 
HETATM   25  C23 8UH 1 316     -31.886 128.171   5.673  1.00 20.68     0.123 C 
HETATM   26  C24 8UH 1 316     -31.352 129.323   6.533  1.00 17.77     0.066 C 
HETATM   27  C25 8UH 1 316     -32.231 130.037   7.508  1.00 19.05    -0.074 C 
HETATM   28  C26 8UH 1 316     -33.495 129.596   7.853  1.00 19.48    -0.048 C 
HETATM   29  C27 8UH 1 316     -34.406 130.283   8.808  1.00 16.56     0.009 C 
HETATM   30  C28 8UH 1 316     -35.174 131.368   8.518  1.00 15.55     0.007 C 
HETATM   31  C29 8UH 1 316     -36.044 132.099   9.410  1.00 94.72    -0.062 C 
HETATM   32  C30 8UH 1 316     -36.740 133.140   8.937  1.00 91.32     0.007 C 
HETATM   33  C31 8UH 1 316     -37.664 133.937   9.741  1.00 87.88     0.001 C 
HETATM   34  C32 8UH 1 316     -38.190 135.006   9.150  1.00 84.19     0.007 C 
HETATM   35  C33 8UH 1 316     -39.161 135.911   9.789  1.00 80.79    -0.062 C 
HETATM   36  C34 8UH 1 316     -39.583 136.988   9.100  1.00 78.84     0.007 C 
HETATM   37  C35 8UH 1 316     -40.569 137.919   9.643  1.00 76.79     0.001 C 
HETATM   38  C36 8UH 1 316     -34.095 127.154   8.255  1.00 20.67     0.020 C 
HETATM   39  C37 8UH 1 316     -35.496 128.512   6.693  1.00 19.98     0.020 C 
HETATM   40  C38 8UH 1 316     -31.509 131.240   8.008  1.00 17.40     0.044 C 
HETATM   41  C39 8UH 1 316     -36.161 131.672  10.842  1.00 95.37     0.048 C 
HETATM   42  C40 8UH 1 316     -39.680 135.617  11.165  1.00 90.13     0.048 C 
HETATM   43  O23 8UH 1 316     -30.958 127.090   5.654  1.00 20.33    -0.395 OA
ATOM     44  H23 8UH 1 316     -31.288 126.377   5.121  1.00  0.00     0.210 HD
ENDROOT
TORSDOF 12
