REMARK VINA RESULT:    -7.713      2.561     16.837
REMARK INTER + INTRA:         -10.868
REMARK INTER:                 -10.120
REMARK INTRA:                  -0.748
REMARK UNBOUND:                -3.155
REMARK  0 active torsions:
REMARK  status: ('A' for Active; 'I' for Inactive)
REMARK       I    between atoms: C3_3  and  O3_21 
REMARK       I    between atoms: C6_6  and  C7_7 
REMARK       I    between atoms: C8_8  and  C9_9 
REMARK       I    between atoms: C10_10  and  C11_11 
REMARK       I    between atoms: C12_12  and  C13_13 
REMARK       I    between atoms: C14_14  and  C15_15 
REMARK       I    between atoms: C23_25  and  O23_43 
REMARK       I    between atoms: C26_28  and  C27_29 
REMARK       I    between atoms: C28_30  and  C29_31 
REMARK       I    between atoms: C30_32  and  C31_33 
REMARK       I    between atoms: C32_34  and  C33_35 
REMARK       I    between atoms: C34_36  and  C35_37 
ROOT
HETATM    1  C1  8UH 3 622     -50.612 145.356   9.468  1.00 17.54    -0.018 C 
HETATM    2  C2  8UH 3 622     -51.328 145.566  10.792  1.00 17.54     0.045 C 
HETATM    3  C3  8UH 3 622     -51.307 146.964  11.404  1.00 17.54     0.123 C 
HETATM    4  C4  8UH 3 622     -50.069 147.788  11.077  1.00 17.54     0.066 C 
HETATM    5  C5  8UH 3 622     -48.998 147.019  10.349  1.00 17.54    -0.074 C 
HETATM    6  C6  8UH 3 622     -49.237 145.969   9.550  1.00 17.54    -0.048 C 
HETATM    7  C7  8UH 3 622     -48.156 145.418   8.700  1.00 17.54     0.009 C 
HETATM    8  C8  8UH 3 622     -47.408 144.378   9.062  1.00 17.54     0.007 C 
HETATM    9  C9  8UH 3 622     -46.342 143.874   8.179  1.00 17.54    -0.062 C 
HETATM   10  C10 8UH 3 622     -45.625 142.823   8.596  1.00 17.54     0.007 C 
HETATM   11  C11 8UH 3 622     -44.541 142.205   7.836  1.00 17.54     0.001 C 
HETATM   12  C12 8UH 3 622     -44.126 141.039   8.318  1.00 17.54     0.007 C 
HETATM   13  C13 8UH 3 622     -43.063 140.171   7.787  1.00 17.54    -0.062 C 
HETATM   14  C14 8UH 3 622     -42.719 139.127   8.552  1.00 17.54     0.007 C 
HETATM   15  C15 8UH 3 622     -41.704 138.156   8.176  1.00 17.54     0.001 C 
HETATM   16  C16 8UH 3 622     -51.409 145.905   8.286  1.00 17.54     0.020 C 
HETATM   17  C17 8UH 3 622     -50.492 143.858   9.265  1.00 17.54     0.020 C 
HETATM   18  C18 8UH 3 622     -47.696 147.739  10.291  1.00 17.54     0.044 C 
HETATM   19  C19 8UH 3 622     -46.077 144.524   6.856  1.00 17.54     0.048 C 
HETATM   20  C20 8UH 3 622     -42.400 140.422   6.467  1.00 17.54     0.048 C 
HETATM   21  O3  8UH 3 622     -52.467 147.670  10.955  1.00 17.54    -0.395 OA
ATOM     22  H3  8UH 3 622     -53.239 147.155  11.158  1.00  0.00     0.210 HD
HETATM   23  C21 8UH 3 622     -33.983 128.175   7.048  1.00 20.77    -0.018 C 
HETATM   24  C22 8UH 3 622     -33.275 127.534   5.843  1.00 19.21     0.045 C 
HETATM   25  C23 8UH 3 622     -32.065 128.216   5.209  1.00 20.68     0.123 C 
HETATM   26  C24 8UH 3 622     -31.652 129.556   5.828  1.00 17.77     0.066 C 
HETATM   27  C25 8UH 3 622     -32.510 130.239   6.843  1.00 19.05    -0.074 C 
HETATM   28  C26 8UH 3 622     -33.605 129.640   7.439  1.00 19.48    -0.048 C 
HETATM   29  C27 8UH 3 622     -34.490 130.288   8.443  1.00 16.56     0.009 C 
HETATM   30  C28 8UH 3 622     -35.488 131.167   8.157  1.00 15.55     0.007 C 
HETATM   31  C29 8UH 3 622     -36.347 131.853   9.084  1.00 17.54    -0.062 C 
HETATM   32  C30 8UH 3 622     -37.308 132.636   8.589  1.00 17.54     0.007 C 
HETATM   33  C31 8UH 3 622     -38.255 133.391   9.394  1.00 17.54     0.001 C 
HETATM   34  C32 8UH 3 622     -38.877 134.370   8.753  1.00 17.54     0.007 C 
HETATM   35  C33 8UH 3 622     -39.871 135.261   9.371  1.00 17.54    -0.062 C 
HETATM   36  C34 8UH 3 622     -40.423 136.186   8.576  1.00 17.54     0.007 C 
HETATM   37  C35 8UH 3 622     -41.424 137.153   8.999  1.00 17.54     0.001 C 
HETATM   38  C36 8UH 3 622     -33.654 127.215   8.219  1.00 20.67     0.020 C 
HETATM   39  C37 8UH 3 622     -35.495 128.064   6.757  1.00 19.98     0.020 C 
HETATM   40  C38 8UH 3 622     -31.975 131.610   7.074  1.00 17.40     0.044 C 
HETATM   41  C39 8UH 3 622     -36.148 131.669  10.557  1.00 17.54     0.048 C 
HETATM   42  C40 8UH 3 622     -40.235 135.135  10.817  1.00 17.54     0.048 C 
HETATM   43  O23 8UH 3 622     -30.955 127.323   5.165  1.00 20.33    -0.395 OA
ATOM     44  H23 8UH 3 622     -31.210 126.492   4.781  1.00  0.00     0.210 HD
ENDROOT
TORSDOF 12
