REMARK VINA RESULT:    -4.827      1.693     16.806
REMARK INTER + INTRA:          -8.710
REMARK INTER:                  -5.802
REMARK INTRA:                  -2.909
REMARK UNBOUND:                -3.883
REMARK  0 active torsions:
REMARK  status: ('A' for Active; 'I' for Inactive)
REMARK       I    between atoms: C3_3  and  O3_21 
REMARK       I    between atoms: C6_6  and  C7_7 
REMARK       I    between atoms: C8_8  and  C9_9 
REMARK       I    between atoms: C10_10  and  C11_11 
REMARK       I    between atoms: C12_12  and  C13_13 
REMARK       I    between atoms: C14_14  and  C15_15 
REMARK       I    between atoms: C23_25  and  O23_43 
REMARK       I    between atoms: C26_28  and  C27_29 
REMARK       I    between atoms: C28_30  and  C29_31 
REMARK       I    between atoms: C30_32  and  C31_33 
REMARK       I    between atoms: C32_34  and  C33_35 
REMARK       I    between atoms: C34_36  and  C35_37 
ROOT
HETATM    1  C1  8UH 2 617     -34.584 128.132   6.187  1.00 73.56    -0.018 C 
HETATM    2  C2  8UH 2 617     -33.723 127.644   5.020  1.00 73.56     0.045 C 
HETATM    3  C3  8UH 2 617     -32.258 128.074   4.968  1.00 73.56     0.123 C 
HETATM    4  C4  8UH 2 617     -31.686 128.271   6.364  1.00 73.56     0.066 C 
HETATM    5  C5  8UH 2 617     -32.555 129.277   7.069  1.00 73.56    -0.074 C 
HETATM    6  C6  8UH 2 617     -33.879 129.093   7.133  1.00 73.56    -0.048 C 
HETATM    7  C7  8UH 2 617     -34.679 129.803   8.160  1.00 73.56     0.009 C 
HETATM    8  C8  8UH 2 617     -35.136 131.047   7.988  1.00 73.56     0.007 C 
HETATM    9  C9  8UH 2 617     -35.931 131.725   9.029  1.00 73.56    -0.062 C 
HETATM   10  C10 8UH 2 617     -36.592 132.845   8.703  1.00 73.56     0.007 C 
HETATM   11  C11 8UH 2 617     -37.406 133.601   9.650  1.00 73.56     0.001 C 
HETATM   12  C12 8UH 2 617     -37.775 134.830   9.296  1.00 73.56     0.007 C 
HETATM   13  C13 8UH 2 617     -38.606 135.699  10.149  1.00 73.56    -0.062 C 
HETATM   14  C14 8UH 2 617     -39.261 136.705   9.555  1.00 73.56     0.007 C 
HETATM   15  C15 8UH 2 617     -40.137 137.634  10.261  1.00 73.56     0.001 C 
HETATM   16  C16 8UH 2 617     -35.083 126.897   6.937  1.00 73.56     0.020 C 
HETATM   17  C17 8UH 2 617     -35.785 128.875   5.616  1.00 73.56     0.020 C 
HETATM   18  C18 8UH 2 617     -31.785 129.849   8.225  1.00 73.56     0.044 C 
HETATM   19  C19 8UH 2 617     -35.991 131.172  10.420  1.00 73.56     0.048 C 
HETATM   20  C20 8UH 2 617     -38.710 135.469  11.629  1.00 73.56     0.048 C 
HETATM   21  O3  8UH 2 617     -31.500 127.068   4.287  1.00 73.56    -0.395 OA
ATOM     22  H3  8UH 2 617     -31.857 126.945   3.415  1.00  0.00     0.210 HD
HETATM   23  C21 8UH 2 617     -50.051 146.079   7.911  1.00 20.50    -0.018 C 
HETATM   24  C22 8UH 2 617     -51.326 146.106   8.743  1.00 20.50     0.045 C 
HETATM   25  C23 8UH 2 617     -51.179 146.432  10.215  1.00 20.50     0.123 C 
HETATM   26  C24 8UH 2 617     -49.917 147.228  10.439  1.00 20.50     0.066 C 
HETATM   27  C25 8UH 2 617     -48.796 146.366   9.961  1.00 20.50    -0.074 C 
HETATM   28  C26 8UH 2 617     -48.775 145.985   8.698  1.00 20.50    -0.048 C 
HETATM   29  C27 8UH 2 617     -47.638 145.287   8.083  1.00 20.50     0.009 C 
HETATM   30  C28 8UH 2 617     -46.927 144.439   8.822  1.00 20.50     0.007 C 
HETATM   31  C29 8UH 2 617     -45.933 143.542   8.166  1.00 73.56    -0.062 C 
HETATM   32  C30 8UH 2 617     -45.242 142.728   8.976  1.00 73.56     0.007 C 
HETATM   33  C31 8UH 2 617     -44.236 141.781   8.508  1.00 73.56     0.001 C 
HETATM   34  C32 8UH 2 617     -43.586 141.055   9.417  1.00 73.56     0.007 C 
HETATM   35  C33 8UH 2 617     -42.568 140.068   9.022  1.00 73.56    -0.062 C 
HETATM   36  C34 8UH 2 617     -41.921 139.324   9.938  1.00 73.56     0.007 C 
HETATM   37  C35 8UH 2 617     -40.937 138.345   9.475  1.00 73.56     0.001 C 
HETATM   38  C36 8UH 2 617     -49.930 147.374   7.129  1.00 20.50     0.020 C 
HETATM   39  C37 8UH 2 617     -50.164 144.938   6.930  1.00 20.50     0.020 C 
HETATM   40  C38 8UH 2 617     -47.564 146.818  10.660  1.00 20.50     0.044 C 
HETATM   41  C39 8UH 2 617     -45.710 143.538   6.683  1.00 73.56     0.048 C 
HETATM   42  C40 8UH 2 617     -42.268 139.902   7.564  1.00 73.56     0.048 C 
HETATM   43  O23 8UH 2 617     -52.313 147.207  10.577  1.00 20.50    -0.395 OA
ATOM     44  H23 8UH 2 617     -52.220 147.411  11.500  1.00  0.00     0.210 HD
ENDROOT
TORSDOF 12
