REMARK VINA RESULT:    -9.140      0.000      0.000
REMARK INTER + INTRA:         -11.031
REMARK INTER:                  -9.140
REMARK INTRA:                  -1.891
REMARK UNBOUND:                -1.891
REMARK  0 active torsions:
REMARK  status: ('A' for Active; 'I' for Inactive)
REMARK       I    between atoms: C3_3  and  O3_21 
REMARK       I    between atoms: C6_6  and  C7_7 
REMARK       I    between atoms: C8_8  and  C9_9 
REMARK       I    between atoms: C10_10  and  C11_11 
REMARK       I    between atoms: C12_12  and  C13_13 
REMARK       I    between atoms: C14_14  and  C15_15 
REMARK       I    between atoms: C23_25  and  O23_43 
REMARK       I    between atoms: C26_28  and  C27_29 
REMARK       I    between atoms: C28_30  and  C29_31 
REMARK       I    between atoms: C30_32  and  C31_33 
REMARK       I    between atoms: C32_34  and  C33_35 
REMARK       I    between atoms: C34_36  and  C35_37 
ROOT
HETATM    1  C1  8UH Y1621     -47.993 145.548  12.601  1.00 37.60    -0.018 C 
HETATM    2  C2  8UH Y1621     -48.941 146.153  13.623  1.00 37.60     0.045 C 
HETATM    3  C3  8UH Y1621     -48.299 146.810  14.823  1.00 37.60     0.123 C 
HETATM    4  C4  8UH Y1621     -47.230 147.764  14.357  1.00 37.60     0.066 C 
HETATM    5  C5  8UH Y1621     -46.247 147.116  13.431  1.00 37.60    -0.074 C 
HETATM    6  C6  8UH Y1621     -46.604 146.153  12.569  1.00 37.60    -0.048 C 
HETATM    7  C7  8UH Y1621     -45.667 145.675  11.516  1.00 37.60     0.009 C 
HETATM    8  C8  8UH Y1621     -44.712 144.764  11.736  1.00 37.60     0.007 C 
HETATM    9  C9  8UH Y1621     -43.812 144.301  10.679  1.00 37.60    -0.062 C 
HETATM   10  C10 8UH Y1621     -43.294 143.084  10.833  1.00 37.60     0.007 C 
HETATM   11  C11 8UH Y1621     -42.398 142.431   9.894  1.00 37.60     0.001 C 
HETATM   12  C12 8UH Y1621     -42.132 141.178  10.226  1.00 37.60     0.007 C 
HETATM   13  C13 8UH Y1621     -41.293 140.240   9.477  1.00 37.60    -0.062 C 
HETATM   14  C14 8UH Y1621     -41.017 139.063  10.042  1.00 37.60     0.007 C 
HETATM   15  C15 8UH Y1621     -40.224 138.072   9.335  1.00 37.60     0.001 C 
HETATM   16  C16 8UH Y1621     -48.709 145.635  11.263  1.00 37.60     0.020 C 
HETATM   17  C17 8UH Y1621     -47.799 144.087  12.934  1.00 37.60     0.020 C 
HETATM   18  C18 8UH Y1621     -44.953 147.864  13.333  1.00 37.60     0.044 C 
HETATM   19  C19 8UH Y1621     -43.492 145.155   9.497  1.00 37.60     0.048 C 
HETATM   20  C20 8UH Y1621     -40.783 140.580   8.113  1.00 37.60     0.048 C 
HETATM   21  O3  8UH Y1621     -49.291 147.586  15.490  1.00 37.60    -0.395 OA
ATOM     22  H3  8UH Y1621     -49.965 146.985  15.784  1.00  0.00     0.210 HD
HETATM   23  C21 8UH Y1621     -34.532 127.064   6.448  1.00 21.58    -0.018 C 
HETATM   24  C22 8UH Y1621     -34.042 126.289   5.207  1.00 21.20     0.045 C 
HETATM   25  C23 8UH Y1621     -32.920 126.860   4.333  1.00 20.61     0.123 C 
HETATM   26  C24 8UH Y1621     -32.210 128.100   4.899  1.00 19.82     0.066 C 
HETATM   27  C25 8UH Y1621     -32.792 128.888   6.031  1.00 19.81    -0.074 C 
HETATM   28  C26 8UH Y1621     -33.861 128.453   6.788  1.00 19.95    -0.048 C 
HETATM   29  C27 8UH Y1621     -34.444 129.205   7.937  1.00 17.10     0.009 C 
HETATM   30  C28 8UH Y1621     -35.311 130.234   7.815  1.00 17.58     0.007 C 
HETATM   31  C29 8UH Y1621     -35.912 131.014   8.851  1.00 37.60    -0.062 C 
HETATM   32  C30 8UH Y1621     -36.917 131.826   8.533  1.00 37.60     0.007 C 
HETATM   33  C31 8UH Y1621     -37.628 132.672   9.473  1.00 37.60     0.001 C 
HETATM   34  C32 8UH Y1621     -37.990 133.845   8.983  1.00 37.60     0.007 C 
HETATM   35  C33 8UH Y1621     -38.728 134.832   9.772  1.00 37.60    -0.062 C 
HETATM   36  C34 8UH Y1621     -39.041 136.001   9.215  1.00 37.60     0.007 C 
HETATM   37  C35 8UH Y1621     -39.799 136.991   9.963  1.00 37.60     0.001 C 
HETATM   38  C36 8UH Y1621     -34.283 126.046   7.584  1.00 19.38     0.020 C 
HETATM   39  C37 8UH Y1621     -36.060 127.234   6.286  1.00 19.65     0.020 C 
HETATM   40  C38 8UH Y1621     -31.991 130.129   6.197  1.00 20.06     0.044 C 
HETATM   41  C39 8UH Y1621     -35.402 130.888  10.249  1.00 37.60     0.048 C 
HETATM   42  C40 8UH Y1621     -39.137 134.506  11.169  1.00 37.60     0.048 C 
HETATM   43  O23 8UH Y1621     -31.970 125.850   4.030  1.00 18.88    -0.395 OA
ATOM     44  H23 8UH Y1621     -31.275 126.204   3.489  1.00  0.00     0.210 HD
ENDROOT
TORSDOF 12
