REMARK VINA RESULT:    -6.534      1.873     17.115
REMARK INTER + INTRA:          -9.375
REMARK INTER:                  -8.991
REMARK INTRA:                  -0.384
REMARK UNBOUND:                -2.841
REMARK  0 active torsions:
REMARK  status: ('A' for Active; 'I' for Inactive)
REMARK       I    between atoms: C3_3  and  O3_21 
REMARK       I    between atoms: C6_6  and  C7_7 
REMARK       I    between atoms: C8_8  and  C9_9 
REMARK       I    between atoms: C10_10  and  C11_11 
REMARK       I    between atoms: C12_12  and  C13_13 
REMARK       I    between atoms: C14_14  and  C15_15 
REMARK       I    between atoms: C23_25  and  O23_43 
REMARK       I    between atoms: C26_28  and  C27_29 
REMARK       I    between atoms: C28_30  and  C29_31 
REMARK       I    between atoms: C30_32  and  C31_33 
REMARK       I    between atoms: C32_34  and  C33_35 
REMARK       I    between atoms: C34_36  and  C35_37 
ROOT
HETATM    1  C1  8UH E4621     -34.071 128.300   7.122  1.00 16.11    -0.017 A 
HETATM    2  C2  8UH E4621     -33.284 127.498   6.072  1.00 15.05     0.049 A 
HETATM    3  C3  8UH E4621     -31.864 127.908   5.703  1.00 18.47     0.142 A 
HETATM    4  C4  8UH E4621     -31.349 129.201   6.358  1.00 15.72     0.012 A 
HETATM    5  C5  8UH E4621     -32.160 129.976   7.339  1.00 14.51    -0.056 A 
HETATM    6  C6  8UH E4621     -33.418 129.597   7.713  1.00 15.74    -0.044 A 
HETATM    7  C7  8UH E4621     -34.261 130.349   8.677  1.00 14.17     0.009 C 
HETATM    8  C8  8UH E4621     -35.000 131.446   8.449  1.00 12.66     0.007 C 
HETATM    9  C9  8UH E4621     -35.779 132.193   9.429  1.00 13.35    -0.062 C 
HETATM   10  C10 8UH E4621     -36.571 133.185   8.969  1.00 14.12     0.007 C 
HETATM   11  C11 8UH E4621     -37.491 133.986   9.742  1.00 17.35     0.001 C 
HETATM   12  C12 8UH E4621     -38.314 134.887   9.151  1.00 16.42     0.007 C 
HETATM   13  C13 8UH E4621     -39.350 135.707   9.788  1.00 15.51    -0.062 C 
HETATM   14  C14 8UH E4621     -40.093 136.513   8.999  1.00 14.68     0.007 C 
HETATM   15  C15 8UH E4621     -41.185 137.347   9.402  1.00 15.30     0.001 C 
HETATM   16  C16 8UH E4621     -34.300 127.260   8.242  1.00 14.06     0.020 C 
HETATM   17  C17 8UH E4621     -35.442 128.632   6.482  1.00 11.15     0.020 C 
HETATM   18  C18 8UH E4621     -31.404 131.164   7.801  1.00 14.35     0.048 C 
HETATM   19  C19 8UH E4621     -35.712 131.752  10.868  1.00 12.51     0.048 C 
HETATM   20  C20 8UH E4621     -39.538 135.565  11.268  1.00 15.42     0.048 C 
HETATM   21  O3  8UH E4621     -30.962 126.839   5.954  1.00 20.70    -0.392 OA
ATOM     22  H3  8UH E4621     -30.076 127.094   5.724  1.00  0.00     0.210 HD
HETATM   23  C21 8UH E4621     -51.186 145.370  10.681  1.00 23.41    -0.018 C 
HETATM   24  C22 8UH E4621     -52.194 145.878  11.728  1.00 23.79     0.045 C 
HETATM   25  C23 8UH E4621     -51.710 146.430  13.066  1.00 23.28     0.123 C 
HETATM   26  C24 8UH E4621     -50.237 146.870  13.066  1.00 23.70     0.066 C 
HETATM   27  C25 8UH E4621     -49.282 146.371  12.019  1.00 23.84    -0.074 C 
HETATM   28  C26 8UH E4621     -49.675 145.675  10.893  1.00 22.99    -0.048 C 
HETATM   29  C27 8UH E4621     -48.753 145.179   9.837  1.00 20.55     0.009 C 
HETATM   30  C28 8UH E4621     -48.027 144.044   9.918  1.00 19.35     0.007 C 
HETATM   31  C29 8UH E4621     -47.054 143.490   8.975  1.00 19.82    -0.062 C 
HETATM   32  C30 8UH E4621     -46.406 142.344   9.279  1.00 18.83     0.007 C 
HETATM   33  C31 8UH E4621     -45.441 141.660   8.448  1.00 18.73     0.001 C 
HETATM   34  C32 8UH E4621     -44.689 140.631   8.929  1.00 18.34     0.007 C 
HETATM   35  C33 8UH E4621     -43.636 139.850   8.259  1.00 16.35    -0.062 C 
HETATM   36  C34 8UH E4621     -42.949 138.955   9.000  1.00 13.70     0.007 C 
HETATM   37  C35 8UH E4621     -41.845 138.139   8.553  1.00 15.99     0.001 C 
HETATM   38  C36 8UH E4621     -51.700 146.049   9.407  1.00 23.73     0.020 C 
HETATM   39  C37 8UH E4621     -51.399 143.859  10.532  1.00 23.42     0.020 C 
HETATM   40  C38 8UH E4621     -47.902 146.777  12.385  1.00 22.78     0.044 C 
HETATM   41  C39 8UH E4621     -46.781 144.291   7.731  1.00 19.63     0.048 C 
HETATM   42  C40 8UH E4621     -43.339 140.154   6.819  1.00 14.68     0.048 C 
HETATM   43  O23 8UH E4621     -52.550 147.495  13.489  1.00 21.52    -0.395 OA
ATOM     44  H23 8UH E4621     -53.461 147.222  13.488  1.00  0.00     0.210 HD
ENDROOT
TORSDOF 12
