REMARK VINA RESULT:    -8.338      1.760     16.636
REMARK INTER + INTRA:         -11.386
REMARK INTER:                  -9.247
REMARK INTRA:                  -2.140
REMARK UNBOUND:                -3.048
REMARK  0 active torsions:
REMARK  status: ('A' for Active; 'I' for Inactive)
REMARK       I    between atoms: C3_3  and  O3_21 
REMARK       I    between atoms: C6_6  and  C7_7 
REMARK       I    between atoms: C8_8  and  C9_9 
REMARK       I    between atoms: C10_10  and  C11_11 
REMARK       I    between atoms: C12_12  and  C13_13 
REMARK       I    between atoms: C14_14  and  C15_15 
REMARK       I    between atoms: C23_25  and  O23_43 
REMARK       I    between atoms: C26_28  and  C27_29 
REMARK       I    between atoms: C28_30  and  C29_31 
REMARK       I    between atoms: C30_32  and  C31_33 
REMARK       I    between atoms: C32_34  and  C33_35 
REMARK       I    between atoms: C34_36  and  C35_37 
ROOT
HETATM    1  C1  8UH n1621     -48.033 145.845  12.644  1.00 48.43    -0.018 C 
HETATM    2  C2  8UH n1621     -48.909 146.178  13.844  1.00 44.61     0.045 C 
HETATM    3  C3  8UH n1621     -48.210 146.815  15.029  1.00 44.41     0.123 C 
HETATM    4  C4  8UH n1621     -47.208 147.846  14.570  1.00 41.53     0.066 C 
HETATM    5  C5  8UH n1621     -46.199 147.155  13.708  1.00 37.72    -0.074 C 
HETATM    6  C6  8UH n1621     -46.600 146.340  12.733  1.00 43.52    -0.048 C 
HETATM    7  C7  8UH n1621     -45.676 145.897  11.664  1.00 44.60     0.009 C 
HETATM    8  C8  8UH n1621     -44.824 144.893  11.834  1.00 43.22     0.007 C 
HETATM    9  C9  8UH n1621     -43.956 144.447  10.746  1.00 45.04    -0.062 C 
HETATM   10  C10 8UH n1621     -43.329 143.299  10.963  1.00 43.71     0.007 C 
HETATM   11  C11 8UH n1621     -42.465 142.630  10.020  1.00 42.87     0.001 C 
HETATM   12  C12 8UH n1621     -42.085 141.446  10.457  1.00 44.70     0.007 C 
HETATM   13  C13 8UH n1621     -41.269 140.525   9.671  1.00 42.63    -0.062 C 
HETATM   14  C14 8UH n1621     -41.012 139.336  10.217  1.00 42.62     0.007 C 
HETATM   15  C15 8UH n1621     -40.249 138.335   9.503  1.00 44.33     0.001 C 
HETATM   16  C16 8UH n1621     -48.766 146.403  11.429  1.00 47.48     0.020 C 
HETATM   17  C17 8UH n1621     -47.911 144.338  12.513  1.00 54.25     0.020 C 
HETATM   18  C18 8UH n1621     -44.903 147.893  13.656  1.00 37.77     0.044 C 
HETATM   19  C19 8UH n1621     -43.817 145.227   9.478  1.00 46.17     0.048 C 
HETATM   20  C20 8UH n1621     -40.806 140.899   8.296  1.00 40.87     0.048 C 
HETATM   21  O3  8UH n1621     -49.184 147.456  15.851  1.00 48.83    -0.395 OA
ATOM     22  H3  8UH n1621     -48.746 147.855  16.594  1.00  0.00     0.210 HD
HETATM   23  C21 8UH n1621     -34.590 127.434   6.484  1.00 57.46    -0.018 C 
HETATM   24  C22 8UH n1621     -34.252 126.925   5.090  1.00 54.62     0.045 C 
HETATM   25  C23 8UH n1621     -32.885 127.279   4.498  1.00 54.91     0.123 C 
HETATM   26  C24 8UH n1621     -32.101 128.356   5.233  1.00 56.99     0.066 C 
HETATM   27  C25 8UH n1621     -33.012 129.283   5.991  1.00 60.65    -0.074 C 
HETATM   28  C26 8UH n1621     -34.013 128.809   6.733  1.00 60.28    -0.048 C 
HETATM   29  C27 8UH n1621     -34.579 129.587   7.857  1.00 57.11     0.009 C 
HETATM   30  C28 8UH n1621     -35.462 130.557   7.662  1.00 53.31     0.007 C 
HETATM   31  C29 8UH n1621     -36.037 131.287   8.790  1.00 54.19    -0.062 C 
HETATM   32  C30 8UH n1621     -37.068 132.081   8.499  1.00 54.84     0.007 C 
HETATM   33  C31 8UH n1621     -37.776 132.885   9.474  1.00 51.40     0.001 C 
HETATM   34  C32 8UH n1621     -38.192 134.055   9.023  1.00 48.08     0.007 C 
HETATM   35  C33 8UH n1621     -38.922 134.998   9.870  1.00 45.58    -0.062 C 
HETATM   36  C34 8UH n1621     -39.260 136.180   9.353  1.00 47.58     0.007 C 
HETATM   37  C35 8UH n1621     -39.999 137.181  10.099  1.00 48.15     0.001 C 
HETATM   38  C36 8UH n1621     -34.135 126.432   7.543  1.00 59.48     0.020 C 
HETATM   39  C37 8UH n1621     -36.101 127.538   6.584  1.00 57.14     0.020 C 
HETATM   40  C38 8UH n1621     -32.117 130.368   6.502  1.00 65.36     0.044 C 
HETATM   41  C39 8UH n1621     -35.499 131.100  10.173  1.00 53.01     0.048 C 
HETATM   42  C40 8UH n1621     -39.263 134.619  11.269  1.00 46.34     0.048 C 
HETATM   43  O23 8UH n1621     -32.105 126.082   4.489  1.00 51.54    -0.395 OA
ATOM     44  H23 8UH n1621     -31.258 126.301   4.122  1.00  0.00     0.210 HD
ENDROOT
TORSDOF 12
