REMARK VINA RESULT:   -11.533      0.000      0.000
REMARK INTER + INTRA:         -14.516
REMARK INTER:                 -11.533
REMARK INTRA:                  -2.983
REMARK UNBOUND:                -2.983
REMARK  0 active torsions:
REMARK  status: ('A' for Active; 'I' for Inactive)
REMARK       I    between atoms: C3_3  and  O3_21 
REMARK       I    between atoms: C6_6  and  C7_7 
REMARK       I    between atoms: C8_8  and  C9_9 
REMARK       I    between atoms: C10_10  and  C11_11 
REMARK       I    between atoms: C12_12  and  C13_13 
REMARK       I    between atoms: C14_14  and  C15_15 
REMARK       I    between atoms: C23_25  and  O23_43 
REMARK       I    between atoms: C26_28  and  C27_29 
REMARK       I    between atoms: C28_30  and  C29_31 
REMARK       I    between atoms: C30_32  and  C31_33 
REMARK       I    between atoms: C32_34  and  C33_35 
REMARK       I    between atoms: C34_36  and  C35_37 
ROOT
HETATM    1  C1  8UH n1621     -47.820 145.218  12.398  1.00 48.43    -0.018 C 
HETATM    2  C2  8UH n1621     -48.551 145.658  13.658  1.00 44.61     0.045 C 
HETATM    3  C3  8UH n1621     -47.740 146.458  14.659  1.00 44.41     0.123 C 
HETATM    4  C4  8UH n1621     -46.862 147.464  13.957  1.00 41.53     0.066 C 
HETATM    5  C5  8UH n1621     -45.937 146.714  13.051  1.00 37.72    -0.074 C 
HETATM    6  C6  8UH n1621     -46.416 145.774  12.238  1.00 43.52    -0.048 C 
HETATM    7  C7  8UH n1621     -45.614 145.242  11.111  1.00 44.60     0.009 C 
HETATM    8  C8  8UH n1621     -44.695 144.299  11.279  1.00 43.22     0.007 C 
HETATM    9  C9  8UH n1621     -43.951 143.759  10.142  1.00 45.04    -0.062 C 
HETATM   10  C10 8UH n1621     -43.241 142.670  10.402  1.00 43.71     0.007 C 
HETATM   11  C11 8UH n1621     -42.471 141.926   9.434  1.00 42.87     0.001 C 
HETATM   12  C12 8UH n1621     -41.975 140.819   9.947  1.00 44.70     0.007 C 
HETATM   13  C13 8UH n1621     -41.219 139.842   9.168  1.00 42.63    -0.062 C 
HETATM   14  C14 8UH n1621     -40.830 138.738   9.807  1.00 42.62     0.007 C 
HETATM   15  C15 8UH n1621     -40.113 137.688   9.115  1.00 44.33     0.001 C 
HETATM   16  C16 8UH n1621     -48.731 145.598  11.236  1.00 47.48     0.020 C 
HETATM   17  C17 8UH n1621     -47.636 143.712  12.422  1.00 54.25     0.020 C 
HETATM   18  C18 8UH n1621     -44.699 147.489  12.743  1.00 37.77     0.044 C 
HETATM   19  C19 8UH n1621     -44.018 144.387   8.787  1.00 46.17     0.048 C 
HETATM   20  C20 8UH n1621     -40.957 140.067   7.711  1.00 40.87     0.048 C 
HETATM   21  O3  8UH n1621     -48.634 147.155  15.526  1.00 48.83    -0.395 OA
ATOM     22  H3  8UH n1621     -49.187 146.522  15.968  1.00  0.00     0.210 HD
HETATM   23  C21 8UH n1621     -34.381 126.775   6.393  1.00 25.46    -0.018 C 
HETATM   24  C22 8UH n1621     -34.022 126.058   5.094  1.00 25.46     0.045 C 
HETATM   25  C23 8UH n1621     -33.174 126.821   4.092  1.00 25.46     0.123 C 
HETATM   26  C24 8UH n1621     -32.122 127.632   4.814  1.00 25.46     0.066 C 
HETATM   27  C25 8UH n1621     -32.836 128.593   5.717  1.00 25.46    -0.074 C 
HETATM   28  C26 8UH n1621     -33.779 128.160   6.559  1.00 25.46    -0.048 C 
HETATM   29  C27 8UH n1621     -34.228 129.006   7.702  1.00 25.46     0.009 C 
HETATM   30  C28 8UH n1621     -35.183 129.930   7.567  1.00 25.46     0.007 C 
HETATM   31  C29 8UH n1621     -35.657 130.771   8.649  1.00 54.19    -0.062 C 
HETATM   32  C30 8UH n1621     -36.758 131.484   8.410  1.00 54.84     0.007 C 
HETATM   33  C31 8UH n1621     -37.377 132.371   9.374  1.00 51.40     0.001 C 
HETATM   34  C32 8UH n1621     -37.910 133.463   8.853  1.00 48.08     0.007 C 
HETATM   35  C33 8UH n1621     -38.574 134.471   9.677  1.00 45.58    -0.062 C 
HETATM   36  C34 8UH n1621     -39.038 135.569   9.079  1.00 47.58     0.007 C 
HETATM   37  C35 8UH n1621     -39.727 136.624   9.799  1.00 48.15     0.001 C 
HETATM   38  C36 8UH n1621     -33.994 125.851   7.543  1.00 25.46     0.020 C 
HETATM   39  C37 8UH n1621     -35.883 126.973   6.399  1.00 25.46     0.020 C 
HETATM   40  C38 8UH n1621     -31.964 129.766   6.031  1.00 25.46     0.044 C 
HETATM   41  C39 8UH n1621     -34.937 130.771   9.960  1.00 53.01     0.048 C 
HETATM   42  C40 8UH n1621     -38.712 134.250  11.143  1.00 46.34     0.048 C 
HETATM   43  O23 8UH n1621     -32.531 125.877   3.232  1.00 25.46    -0.395 OA
ATOM     44  H23 8UH n1621     -33.191 125.368   2.779  1.00  0.00     0.210 HD
ENDROOT
TORSDOF 12
