REMARK VINA RESULT:    -8.316      1.237     16.529
REMARK INTER + INTRA:          -8.771
REMARK INTER:                  -5.279
REMARK INTRA:                  -3.493
REMARK UNBOUND:                -0.456
REMARK  0 active torsions:
REMARK  status: ('A' for Active; 'I' for Inactive)
REMARK       I    between atoms: C3_3  and  O3_21 
REMARK       I    between atoms: C6_6  and  C7_7 
REMARK       I    between atoms: C8_8  and  C9_9 
REMARK       I    between atoms: C10_10  and  C11_11 
REMARK       I    between atoms: C12_12  and  C13_13 
REMARK       I    between atoms: C14_14  and  C15_15 
REMARK       I    between atoms: C23_25  and  O23_43 
REMARK       I    between atoms: C26_28  and  C27_29 
REMARK       I    between atoms: C28_30  and  C29_31 
REMARK       I    between atoms: C30_32  and  C31_33 
REMARK       I    between atoms: C32_34  and  C33_35 
REMARK       I    between atoms: C34_36  and  C35_37 
ROOT
HETATM    1  C1  8UH F5620     -49.340 144.041  11.359  1.00 19.30    -0.018 C 
HETATM    2  C2  8UH F5620     -50.051 144.556  12.624  1.00 17.68     0.045 C 
HETATM    3  C3  8UH F5620     -49.383 145.651  13.448  1.00 17.79     0.123 C 
HETATM    4  C4  8UH F5620     -48.330 146.479  12.709  1.00 18.50     0.066 C 
HETATM    5  C5  8UH F5620     -47.525 145.828  11.632  1.00 19.40    -0.074 C 
HETATM    6  C6  8UH F5620     -47.969 144.691  10.987  1.00 19.02    -0.048 C 
HETATM    7  C7  8UH F5620     -47.170 144.038   9.938  1.00 18.60     0.009 C 
HETATM    8  C8  8UH F5620     -46.093 143.246  10.119  1.00 18.09     0.007 C 
HETATM    9  C9  8UH F5620     -45.221 142.688   9.081  1.00 18.23    -0.062 C 
HETATM   10  C10 8UH F5620     -44.253 141.830   9.468  1.00 15.81     0.007 C 
HETATM   11  C11 8UH F5620     -43.308 141.159   8.618  1.00 18.00     0.001 C 
HETATM   12  C12 8UH F5620     -42.524 140.196   9.128  1.00 18.12     0.007 C 
HETATM   13  C13 8UH F5620     -41.541 139.354   8.459  1.00 18.88    -0.062 C 
HETATM   14  C14 8UH F5620     -40.963 138.378   9.193  1.00 21.10     0.007 C 
HETATM   15  C15 8UH F5620     -40.038 137.369   8.749  1.00 24.06     0.001 C 
HETATM   16  C16 8UH F5620     -50.363 144.314  10.242  1.00 17.17     0.020 C 
HETATM   17  C17 8UH F5620     -49.198 142.510  11.511  1.00 16.95     0.020 C 
HETATM   18  C18 8UH F5620     -46.261 146.602  11.438  1.00 19.80     0.044 C 
HETATM   19  C19 8UH F5620     -45.498 143.074   7.645  1.00 17.09     0.048 C 
HETATM   20  C20 8UH F5620     -41.295 139.576   6.999  1.00 16.35     0.048 C 
HETATM   21  O3  8UH F5620     -50.361 146.505  14.012  1.00 17.38    -0.395 OA
ATOM     22  H3  8UH F5620     -49.944 147.188  14.525  1.00  0.00     0.210 HD
HETATM   23  C21 8UH F5620     -33.535 126.755   6.834  1.00 15.23    -0.018 C 
HETATM   24  C22 8UH F5620     -33.969 126.432   5.418  1.00 15.23     0.045 C 
HETATM   25  C23 8UH F5620     -33.901 127.592   4.459  1.00 15.23     0.123 C 
HETATM   26  C24 8UH F5620     -32.572 128.262   4.645  1.00 15.23     0.066 C 
HETATM   27  C25 8UH F5620     -32.454 128.811   6.032  1.00 15.23    -0.074 C 
HETATM   28  C26 8UH F5620     -33.009 128.150   7.051  1.00 15.23    -0.048 C 
HETATM   29  C27 8UH F5620     -33.402 128.830   8.289  1.00 15.23     0.009 C 
HETATM   30  C28 8UH F5620     -34.211 129.867   8.055  1.00 15.23     0.007 C 
HETATM   31  C29 8UH F5620     -34.923 130.607   9.141  1.00 26.61    -0.062 C 
HETATM   32  C30 8UH F5620     -35.711 131.633   8.757  1.00 25.24     0.007 C 
HETATM   33  C31 8UH F5620     -36.526 132.452   9.606  1.00 26.40     0.001 C 
HETATM   34  C32 8UH F5620     -37.239 133.482   9.113  1.00 26.29     0.007 C 
HETATM   35  C33 8UH F5620     -38.106 134.422   9.832  1.00 26.99    -0.062 C 
HETATM   36  C34 8UH F5620     -38.689 135.407   9.116  1.00 26.65     0.007 C 
HETATM   37  C35 8UH F5620     -39.565 136.441   9.588  1.00 25.43     0.001 C 
HETATM   38  C36 8UH F5620     -32.355 125.850   7.136  1.00 15.23     0.020 C 
HETATM   39  C37 8UH F5620     -34.699 126.462   7.763  1.00 15.23     0.020 C 
HETATM   40  C38 8UH F5620     -31.999 130.240   6.095  1.00 15.23     0.044 C 
HETATM   41  C39 8UH F5620     -34.728 130.183  10.576  1.00 26.87     0.048 C 
HETATM   42  C40 8UH F5620     -38.262 134.238  11.313  1.00 24.17     0.048 C 
HETATM   43  O23 8UH F5620     -33.936 127.101   3.124  1.00 15.23    -0.395 OA
ATOM     44  H23 8UH F5620     -34.777 126.677   3.007  1.00  0.00     0.210 HD
ENDROOT
TORSDOF 12
