REMARK VINA RESULT:   -12.118      0.000      0.000
REMARK INTER + INTRA:         -12.166
REMARK INTER:                 -12.118
REMARK INTRA:                  -0.048
REMARK UNBOUND:                -0.048
REMARK  0 active torsions:
REMARK  status: ('A' for Active; 'I' for Inactive)
REMARK       I    between atoms: C3_3  and  O3_21 
REMARK       I    between atoms: C6_6  and  C7_7 
REMARK       I    between atoms: C8_8  and  C9_9 
REMARK       I    between atoms: C10_10  and  C11_11 
REMARK       I    between atoms: C12_12  and  C13_13 
REMARK       I    between atoms: C14_14  and  C15_15 
REMARK       I    between atoms: C23_25  and  O23_43 
REMARK       I    between atoms: C26_28  and  C27_29 
REMARK       I    between atoms: C28_30  and  C29_31 
REMARK       I    between atoms: C30_32  and  C31_33 
REMARK       I    between atoms: C32_34  and  C33_35 
REMARK       I    between atoms: C34_36  and  C35_37 
ROOT
HETATM    1  C1  8UH U1621     -34.197 128.128   7.062  1.00 20.50    -0.018 C 
HETATM    2  C2  8UH U1621     -33.609 127.941   5.670  1.00 20.50     0.045 C 
HETATM    3  C3  8UH U1621     -32.363 128.735   5.339  1.00 20.50     0.123 C 
HETATM    4  C4  8UH U1621     -31.627 129.087   6.609  1.00 20.50     0.066 C 
HETATM    5  C5  8UH U1621     -32.581 129.892   7.427  1.00 20.50    -0.074 C 
HETATM    6  C6  8UH U1621     -33.725 129.348   7.798  1.00 20.50    -0.048 C 
HETATM    7  C7  8UH U1621     -34.653 129.983   8.743  1.00 20.50     0.009 C 
HETATM    8  C8  8UH U1621     -34.762 131.309   8.746  1.00 20.50     0.007 C 
HETATM    9  C9  8UH U1621     -35.859 131.922   9.511  1.00 20.50    -0.062 C 
HETATM   10  C10 8UH U1621     -36.277 133.137   9.137  1.00 20.50     0.007 C 
HETATM   11  C11 8UH U1621     -37.448 133.798   9.702  1.00 20.50     0.001 C 
HETATM   12  C12 8UH U1621     -37.918 134.897   9.125  1.00 20.50     0.007 C 
HETATM   13  C13 8UH U1621     -39.143 135.558   9.609  1.00 20.50    -0.062 C 
HETATM   14  C14 8UH U1621     -39.642 136.566   8.882  1.00 20.50     0.007 C 
HETATM   15  C15 8UH U1621     -40.860 137.295   9.223  1.00 20.50     0.001 C 
HETATM   16  C16 8UH U1621     -33.790 126.961   7.944  1.00 20.50     0.020 C 
HETATM   17  C17 8UH U1621     -35.700 128.125   6.932  1.00 20.50     0.020 C 
HETATM   18  C18 8UH U1621     -31.771 130.720   8.360  1.00 20.50     0.044 C 
HETATM   19  C19 8UH U1621     -36.529 131.143  10.600  1.00 20.50     0.048 C 
HETATM   20  C20 8UH U1621     -39.784 135.058  10.866  1.00 20.50     0.048 C 
HETATM   21  O3  8UH U1621     -31.552 127.902   4.523  1.00 20.50    -0.395 OA
ATOM     22  H3  8UH U1621     -30.770 128.399   4.315  1.00  0.00     0.210 HD
HETATM   23  C21 8UH U1621     -50.578 145.723   9.200  1.00 21.49    -0.018 C 
HETATM   24  C22 8UH U1621     -51.800 146.234   9.980  1.00 20.69     0.045 C 
HETATM   25  C23 8UH U1621     -51.639 146.848  11.371  1.00 22.34     0.123 C 
HETATM   26  C24 8UH U1621     -50.187 147.088  11.827  1.00 20.89     0.066 C 
HETATM   27  C25 8UH U1621     -49.025 146.550  11.044  1.00 22.34    -0.074 C 
HETATM   28  C26 8UH U1621     -49.152 145.919   9.826  1.00 21.76    -0.048 C 
HETATM   29  C27 8UH U1621     -48.019 145.379   9.019  1.00 21.22     0.009 C 
HETATM   30  C28 8UH U1621     -47.392 144.180   9.212  1.00 19.00     0.007 C 
HETATM   31  C29 8UH U1621     -46.285 143.661   8.452  1.00 20.50    -0.062 C 
HETATM   32  C30 8UH U1621     -45.822 142.445   8.780  1.00 20.50     0.007 C 
HETATM   33  C31 8UH U1621     -44.684 141.797   8.141  1.00 20.50     0.001 C 
HETATM   34  C32 8UH U1621     -44.207 140.671   8.656  1.00 20.50     0.007 C 
HETATM   35  C33 8UH U1621     -43.008 140.021   8.105  1.00 20.50    -0.062 C 
HETATM   36  C34 8UH U1621     -42.500 138.989   8.794  1.00 20.50     0.007 C 
HETATM   37  C35 8UH U1621     -41.287 138.260   8.429  1.00 20.50     0.001 C 
HETATM   38  C36 8UH U1621     -50.689 146.484   7.858  1.00 20.30     0.020 C 
HETATM   39  C37 8UH U1621     -50.833 144.234   8.915  1.00 19.22     0.020 C 
HETATM   40  C38 8UH U1621     -47.763 146.840  11.768  1.00 22.01     0.044 C 
HETATM   41  C39 8UH U1621     -45.748 144.494   7.332  1.00 20.50     0.048 C 
HETATM   42  C40 8UH U1621     -42.393 140.578   6.860  1.00 20.50     0.048 C 
HETATM   43  O23 8UH U1621     -52.405 148.044  11.481  1.00 21.61    -0.395 OA
ATOM     44  H23 8UH U1621     -52.305 148.426  12.345  1.00  0.00     0.210 HD
ENDROOT
TORSDOF 12
