REMARK VINA RESULT:    -8.727      2.152      2.668
REMARK INTER + INTRA:         -11.883
REMARK INTER:                 -11.132
REMARK INTRA:                  -0.751
REMARK UNBOUND:                -3.155
REMARK  0 active torsions:
REMARK  status: ('A' for Active; 'I' for Inactive)
REMARK       I    between atoms: C3_3  and  O3_21 
REMARK       I    between atoms: C6_6  and  C7_7 
REMARK       I    between atoms: C8_8  and  C9_9 
REMARK       I    between atoms: C10_10  and  C11_11 
REMARK       I    between atoms: C12_12  and  C13_13 
REMARK       I    between atoms: C14_14  and  C15_15 
REMARK       I    between atoms: C23_25  and  O23_43 
REMARK       I    between atoms: C26_28  and  C27_29 
REMARK       I    between atoms: C28_30  and  C29_31 
REMARK       I    between atoms: C30_32  and  C31_33 
REMARK       I    between atoms: C32_34  and  C33_35 
REMARK       I    between atoms: C34_36  and  C35_37 
ROOT
HETATM    1  C1  8UH 3 622     -34.149 128.291   6.874  1.00 17.54    -0.018 C 
HETATM    2  C2  8UH 3 622     -33.470 128.107   5.528  1.00 17.54     0.045 C 
HETATM    3  C3  8UH 3 622     -31.944 128.116   5.488  1.00 17.54     0.123 C 
HETATM    4  C4  8UH 3 622     -31.280 128.973   6.556  1.00 17.54     0.066 C 
HETATM    5  C5  8UH 3 622     -32.245 129.803   7.361  1.00 17.54    -0.074 C 
HETATM    6  C6  8UH 3 622     -33.523 129.464   7.585  1.00 17.54    -0.048 C 
HETATM    7  C7  8UH 3 622     -34.333 130.220   8.569  1.00 17.54     0.009 C 
HETATM    8  C8  8UH 3 622     -35.145 131.217   8.226  1.00 17.54     0.007 C 
HETATM    9  C9  8UH 3 622     -35.924 131.938   9.249  1.00 17.54    -0.062 C 
HETATM   10  C10 8UH 3 622     -36.726 132.930   8.843  1.00 17.54     0.007 C 
HETATM   11  C11 8UH 3 622     -37.563 133.735   9.731  1.00 17.54     0.001 C 
HETATM   12  C12 8UH 3 622     -38.453 134.497   9.106  1.00 17.54     0.007 C 
HETATM   13  C13 8UH 3 622     -39.437 135.412   9.707  1.00 17.54    -0.062 C 
HETATM   14  C14 8UH 3 622     -40.108 136.197   8.855  1.00 17.54     0.007 C 
HETATM   15  C15 8UH 3 622     -41.130 137.144   9.270  1.00 17.54     0.001 C 
HETATM   16  C16 8UH 3 622     -34.101 127.022   7.724  1.00 17.54     0.020 C 
HETATM   17  C17 8UH 3 622     -35.610 128.584   6.594  1.00 17.54     0.020 C 
HETATM   18  C18 8UH 3 622     -31.575 130.839   8.194  1.00 17.54     0.044 C 
HETATM   19  C19 8UH 3 622     -35.815 131.564  10.694  1.00 17.54     0.048 C 
HETATM   20  C20 8UH 3 622     -39.689 135.469  11.183  1.00 17.54     0.048 C 
HETATM   21  O3  8UH 3 622     -31.482 126.768   5.620  1.00 17.54    -0.395 OA
ATOM     22  H3  8UH 3 622     -31.897 126.233   4.953  1.00  0.00     0.210 HD
HETATM   23  C21 8UH 3 622     -50.647 145.466  10.101  1.00 20.77    -0.018 C 
HETATM   24  C22 8UH 3 622     -51.680 145.763  11.200  1.00 19.21     0.045 C 
HETATM   25  C23 8UH 3 622     -51.265 146.503  12.469  1.00 20.68     0.123 C 
HETATM   26  C24 8UH 3 622     -49.783 146.880  12.566  1.00 17.77     0.066 C 
HETATM   27  C25 8UH 3 622     -48.784 146.368  11.580  1.00 19.05    -0.074 C 
HETATM   28  C26 8UH 3 622     -49.135 145.704  10.419  1.00 19.48    -0.048 C 
HETATM   29  C27 8UH 3 622     -48.174 145.168   9.418  1.00 16.56     0.009 C 
HETATM   30  C28 8UH 3 622     -47.487 144.000   9.538  1.00 15.55     0.007 C 
HETATM   31  C29 8UH 3 622     -46.519 143.452   8.626  1.00 17.54    -0.062 C 
HETATM   32  C30 8UH 3 622     -46.000 142.255   8.906  1.00 17.54     0.007 C 
HETATM   33  C31 8UH 3 622     -45.015 141.569   8.084  1.00 17.54     0.001 C 
HETATM   34  C32 8UH 3 622     -44.363 140.591   8.694  1.00 17.54     0.007 C 
HETATM   35  C33 8UH 3 622     -43.324 139.768   8.055  1.00 17.54    -0.062 C 
HETATM   36  C34 8UH 3 622     -42.778 138.803   8.807  1.00 17.54     0.007 C 
HETATM   37  C35 8UH 3 622     -41.743 137.887   8.355  1.00 17.54     0.001 C 
HETATM   38  C36 8UH 3 622     -51.088 146.376   8.927  1.00 20.67     0.020 C 
HETATM   39  C37 8UH 3 622     -50.889 144.001   9.678  1.00 19.98     0.020 C 
HETATM   40  C38 8UH 3 622     -47.417 146.703  12.068  1.00 17.40     0.044 C 
HETATM   41  C39 8UH 3 622     -46.131 144.225   7.403  1.00 17.54     0.048 C 
HETATM   42  C40 8UH 3 622     -42.903 140.008   6.641  1.00 17.54     0.048 C 
HETATM   43  O23 8UH 3 622     -52.087 147.650  12.669  1.00 20.33    -0.395 OA
ATOM     44  H23 8UH 3 622     -53.006 147.416  12.609  1.00  0.00     0.210 HD
ENDROOT
TORSDOF 12
