REMARK VINA RESULT:    -9.681      1.358     16.840
REMARK INTER + INTRA:         -10.454
REMARK INTER:                  -7.487
REMARK INTRA:                  -2.967
REMARK UNBOUND:                -0.773
REMARK  0 active torsions:
REMARK  status: ('A' for Active; 'I' for Inactive)
REMARK       I    between atoms: C3_3  and  O3_21 
REMARK       I    between atoms: C6_6  and  C7_7 
REMARK       I    between atoms: C8_8  and  C9_9 
REMARK       I    between atoms: C10_10  and  C11_11 
REMARK       I    between atoms: C12_12  and  C13_13 
REMARK       I    between atoms: C14_14  and  C15_15 
REMARK       I    between atoms: C23_25  and  O23_43 
REMARK       I    between atoms: C26_28  and  C27_29 
REMARK       I    between atoms: C28_30  and  C29_31 
REMARK       I    between atoms: C30_32  and  C31_33 
REMARK       I    between atoms: C32_34  and  C33_35 
REMARK       I    between atoms: C34_36  and  C35_37 
ROOT
HETATM    1  C1  8UH 3 621     -34.361 126.896   6.201  1.00 19.54    -0.018 C 
HETATM    2  C2  8UH 3 621     -33.723 126.116   5.055  1.00 19.54     0.045 C 
HETATM    3  C3  8UH 3 621     -32.740 126.829   4.148  1.00 19.54     0.123 C 
HETATM    4  C4  8UH 3 621     -31.782 127.645   4.981  1.00 19.54     0.066 C 
HETATM    5  C5  8UH 3 621     -32.526 128.557   5.924  1.00 19.54    -0.074 C 
HETATM    6  C6  8UH 3 621     -33.641 128.180   6.571  1.00 19.54    -0.048 C 
HETATM    7  C7  8UH 3 621     -34.174 128.990   7.708  1.00 19.54     0.009 C 
HETATM    8  C8  8UH 3 621     -34.988 130.042   7.554  1.00 19.54     0.007 C 
HETATM    9  C9  8UH 3 621     -35.523 130.845   8.672  1.00 19.54    -0.062 C 
HETATM   10  C10 8UH 3 621     -36.343 131.859   8.358  1.00 19.54     0.007 C 
HETATM   11  C11 8UH 3 621     -36.977 132.767   9.310  1.00 19.54     0.001 C 
HETATM   12  C12 8UH 3 621     -37.687 133.750   8.764  1.00 19.54     0.007 C 
HETATM   13  C13 8UH 3 621     -38.429 134.764   9.532  1.00 19.54    -0.062 C 
HETATM   14  C14 8UH 3 621     -39.416 135.408   8.893  1.00 19.54     0.007 C 
HETATM   15  C15 8UH 3 621     -40.256 136.417   9.526  1.00 19.54     0.001 C 
HETATM   16  C16 8UH 3 621     -34.443 125.920   7.369  1.00 19.54     0.020 C 
HETATM   17  C17 8UH 3 621     -35.776 127.290   5.802  1.00 19.54     0.020 C 
HETATM   18  C18 8UH 3 621     -31.659 129.667   6.431  1.00 19.54     0.044 C 
HETATM   19  C19 8UH 3 621     -35.149 130.549  10.093  1.00 19.54     0.048 C 
HETATM   20  C20 8UH 3 621     -38.094 135.066  10.962  1.00 19.54     0.048 C 
HETATM   21  O3  8UH 3 621     -31.986 125.850   3.431  1.00 19.54    -0.395 OA
ATOM     22  H3  8UH 3 621     -31.369 126.297   2.863  1.00  0.00     0.210 HD
HETATM   23  C21 8UH 3 621     -49.764 143.981  12.258  1.00 21.11    -0.018 C 
HETATM   24  C22 8UH 3 621     -50.392 144.487  13.569  1.00 20.11     0.045 C 
HETATM   25  C23 8UH 3 621     -49.862 145.759  14.226  1.00 19.41     0.123 C 
HETATM   26  C24 8UH 3 621     -48.634 146.399  13.564  1.00 18.39     0.066 C 
HETATM   27  C25 8UH 3 621     -47.899 145.732  12.450  1.00 18.34    -0.074 C 
HETATM   28  C26 8UH 3 621     -48.395 144.619  11.809  1.00 19.81    -0.048 C 
HETATM   29  C27 8UH 3 621     -47.749 143.933  10.668  1.00 19.02     0.009 C 
HETATM   30  C28 8UH 3 621     -46.741 143.046  10.771  1.00 17.97     0.007 C 
HETATM   31  C29 8UH 3 621     -46.086 142.355   9.683  1.00 19.54    -0.062 C 
HETATM   32  C30 8UH 3 621     -45.474 141.198   9.943  1.00 19.54     0.007 C 
HETATM   33  C31 8UH 3 621     -44.784 140.388   8.948  1.00 19.54     0.001 C 
HETATM   34  C32 8UH 3 621     -43.915 139.528   9.458  1.00 19.54     0.007 C 
HETATM   35  C33 8UH 3 621     -43.086 138.576   8.706  1.00 19.54    -0.062 C 
HETATM   36  C34 8UH 3 621     -42.146 137.923   9.405  1.00 19.54     0.007 C 
HETATM   37  C35 8UH 3 621     -41.257 136.932   8.815  1.00 19.54     0.001 C 
HETATM   38  C36 8UH 3 621     -50.864 144.243  11.200  1.00 19.56     0.020 C 
HETATM   39  C37 8UH 3 621     -49.622 142.455  12.431  1.00 18.49     0.020 C 
HETATM   40  C38 8UH 3 621     -46.674 146.514  12.150  1.00 16.89     0.044 C 
HETATM   41  C39 8UH 3 621     -46.102 142.921   8.303  1.00 19.54     0.048 C 
HETATM   42  C40 8UH 3 621     -43.293 138.354   7.240  1.00 19.54     0.048 C 
HETATM   43  O23 8UH 3 621     -50.902 146.713  14.356  1.00 18.27    -0.395 OA
ATOM     44  H23 8UH 3 621     -50.572 147.504  14.765  1.00  0.00     0.210 HD
ENDROOT
TORSDOF 12
