REMARK VINA RESULT:    -9.154      0.000      0.000
REMARK INTER + INTRA:         -12.485
REMARK INTER:                  -9.154
REMARK INTRA:                  -3.331
REMARK UNBOUND:                -3.331
REMARK  0 active torsions:
REMARK  status: ('A' for Active; 'I' for Inactive)
REMARK       I    between atoms: C3_3  and  O3_21 
REMARK       I    between atoms: C6_6  and  C7_7 
REMARK       I    between atoms: C8_8  and  C9_9 
REMARK       I    between atoms: C10_10  and  C11_11 
REMARK       I    between atoms: C12_12  and  C13_13 
REMARK       I    between atoms: C14_14  and  C15_15 
REMARK       I    between atoms: C23_25  and  O23_43 
REMARK       I    between atoms: C26_28  and  C27_29 
REMARK       I    between atoms: C28_30  and  C29_31 
REMARK       I    between atoms: C30_32  and  C31_33 
REMARK       I    between atoms: C32_34  and  C33_35 
REMARK       I    between atoms: C34_36  and  C35_37 
ROOT
HETATM    1  C1  8UH 8 620     -48.985 144.378  11.609  1.00 98.00    -0.022 C 
HETATM    2  C2  8UH 8 620     -50.038 145.448  11.881  1.00 98.00     0.045 C 
HETATM    3  C3  8UH 8 620     -49.466 146.796  12.310  1.00 98.00     0.119 C 
HETATM    4  C4  8UH 8 620     -48.399 147.271  11.336  1.00 98.00     0.040 C 
HETATM    5  C5  8UH 8 620     -47.378 146.175  11.208  1.00 98.00     0.013 C 
HETATM    6  C6  8UH 8 620     -47.788 144.956  10.900  1.00 98.00    -0.068 C 
HETATM    7  C7  8UH 8 620     -47.103 144.184   9.853  1.00 98.00     0.004 C 
HETATM    8  C8  8UH 8 620     -45.839 143.829  10.048  1.00 98.00     0.007 C 
HETATM    9  C9  8UH 8 620     -45.121 143.032   9.045  1.00 98.00    -0.062 C 
HETATM   10  C10 8UH 8 620     -44.072 142.322   9.466  1.00 98.00     0.007 C 
HETATM   11  C11 8UH 8 620     -43.298 141.468   8.583  1.00 98.00     0.001 C 
HETATM   12  C12 8UH 8 620     -42.610 140.515   9.193  1.00 98.00     0.007 C 
HETATM   13  C13 8UH 8 620     -41.788 139.537   8.474  1.00 98.00    -0.062 C 
HETATM   14  C14 8UH 8 620     -41.216 138.567   9.196  1.00 98.00     0.007 C 
HETATM   15  C15 8UH 8 620     -40.403 137.531   8.588  1.00 98.00     0.001 C 
HETATM   16  C16 8UH 8 620     -49.612 143.266  10.780  1.00 98.00     0.019 C 
HETATM   17  C17 8UH 8 620     -48.488 143.781  12.916  1.00 98.00     0.019 C 
HETATM   18  C18 8UH 8 620     -47.072 147.181  10.135  1.00 98.00     0.015 C 
HETATM   19  C19 8UH 8 620     -45.560 143.004   7.611  1.00 98.00     0.048 C 
HETATM   20  C20 8UH 8 620     -41.622 139.614   6.985  1.00 98.00     0.048 C 
HETATM   21  O3  8UH 8 620     -50.512 147.769  12.381  1.00 98.00    -0.396 OA
ATOM     22  H3  8UH 8 620     -51.178 147.472  12.989  1.00  0.00     0.210 HD
HETATM   23  C21 8UH 8 620     -34.529 126.948   6.046  1.00 25.46    -0.018 C 
HETATM   24  C22 8UH 8 620     -34.024 126.298   4.761  1.00 25.46     0.045 C 
HETATM   25  C23 8UH 8 620     -32.823 126.940   4.086  1.00 25.46     0.123 C 
HETATM   26  C24 8UH 8 620     -31.832 127.411   5.127  1.00 25.46     0.066 C 
HETATM   27  C25 8UH 8 620     -32.533 128.418   5.991  1.00 25.46    -0.074 C 
HETATM   28  C26 8UH 8 620     -33.718 128.133   6.539  1.00 25.46    -0.048 C 
HETATM   29  C27 8UH 8 620     -34.246 128.944   7.674  1.00 25.46     0.009 C 
HETATM   30  C28 8UH 8 620     -34.934 130.072   7.478  1.00 25.46     0.007 C 
HETATM   31  C29 8UH 8 620     -35.474 130.893   8.548  1.00 98.00    -0.062 C 
HETATM   32  C30 8UH 8 620     -36.527 131.652   8.256  1.00 98.00     0.007 C 
HETATM   33  C31 8UH 8 620     -37.175 132.519   9.224  1.00 98.00     0.001 C 
HETATM   34  C32 8UH 8 620     -37.858 133.506   8.673  1.00 98.00     0.007 C 
HETATM   35  C33 8UH 8 620     -38.601 134.516   9.430  1.00 98.00    -0.062 C 
HETATM   36  C34 8UH 8 620     -39.234 135.456   8.723  1.00 98.00     0.007 C 
HETATM   37  C35 8UH 8 620     -40.025 136.507   9.341  1.00 98.00     0.001 C 
HETATM   38  C36 8UH 8 620     -34.623 125.852   7.102  1.00 25.46     0.020 C 
HETATM   39  C37 8UH 8 620     -35.917 127.486   5.763  1.00 25.46     0.020 C 
HETATM   40  C38 8UH 8 620     -31.542 129.321   6.652  1.00 25.46     0.044 C 
HETATM   41  C39 8UH 8 620     -34.874 130.870   9.919  1.00 98.00     0.048 C 
HETATM   42  C40 8UH 8 620     -38.635 134.497  10.926  1.00 98.00     0.048 C 
HETATM   43  O23 8UH 8 620     -32.198 125.961   3.252  1.00 25.46    -0.395 OA
ATOM     44  H23 8UH 8 620     -31.447 126.362   2.830  1.00  0.00     0.210 HD
ENDROOT
TORSDOF 12
