REMARK VINA RESULT:   -11.463      0.000      0.000
REMARK INTER + INTRA:         -12.282
REMARK INTER:                 -11.463
REMARK INTRA:                  -0.819
REMARK UNBOUND:                -0.819
REMARK  0 active torsions:
REMARK  status: ('A' for Active; 'I' for Inactive)
REMARK       I    between atoms: C3_3  and  O3_21 
REMARK       I    between atoms: C6_6  and  C7_7 
REMARK       I    between atoms: C8_8  and  C9_9 
REMARK       I    between atoms: C10_10  and  C11_11 
REMARK       I    between atoms: C12_12  and  C13_13 
REMARK       I    between atoms: C14_14  and  C15_15 
REMARK       I    between atoms: C23_25  and  O23_43 
REMARK       I    between atoms: C26_28  and  C27_29 
REMARK       I    between atoms: C28_30  and  C29_31 
REMARK       I    between atoms: C30_32  and  C31_33 
REMARK       I    between atoms: C32_34  and  C33_35 
REMARK       I    between atoms: C34_36  and  C35_37 
ROOT
HETATM    1  C1  8UH V1620     -50.201 144.715  10.561  1.00 15.23    -0.018 C 
HETATM    2  C2  8UH V1620     -50.622 144.406  11.984  1.00 15.23     0.045 C 
HETATM    3  C3  8UH V1620     -49.663 144.882  13.043  1.00 15.23     0.123 C 
HETATM    4  C4  8UH V1620     -49.293 146.300  12.720  1.00 15.23     0.066 C 
HETATM    5  C5  8UH V1620     -48.586 146.367  11.402  1.00 15.23    -0.074 C 
HETATM    6  C6  8UH V1620     -48.945 145.536  10.420  1.00 15.23    -0.048 C 
HETATM    7  C7  8UH V1620     -48.019 145.164   9.346  1.00 15.23     0.009 C 
HETATM    8  C8  8UH V1620     -46.871 144.675   9.825  1.00 15.23     0.007 C 
HETATM    9  C9  8UH V1620     -45.870 144.046   8.943  1.00 15.23    -0.062 C 
HETATM   10  C10 8UH V1620     -44.927 143.299   9.533  1.00 15.23     0.007 C 
HETATM   11  C11 8UH V1620     -43.951 142.506   8.798  1.00 15.23     0.001 C 
HETATM   12  C12 8UH V1620     -43.227 141.607   9.446  1.00 15.23     0.007 C 
HETATM   13  C13 8UH V1620     -42.305 140.709   8.738  1.00 15.23    -0.062 C 
HETATM   14  C14 8UH V1620     -41.783 139.694   9.434  1.00 15.23     0.007 C 
HETATM   15  C15 8UH V1620     -40.894 138.684   8.872  1.00 15.23     0.001 C 
HETATM   16  C16 8UH V1620     -51.295 145.584   9.971  1.00 15.23     0.020 C 
HETATM   17  C17 8UH V1620     -50.080 143.403   9.808  1.00 15.23     0.020 C 
HETATM   18  C18 8UH V1620     -47.306 147.149  11.426  1.00 15.23     0.044 C 
HETATM   19  C19 8UH V1620     -45.966 144.217   7.454  1.00 15.23     0.048 C 
HETATM   20  C20 8UH V1620     -42.034 140.938   7.289  1.00 15.23     0.048 C 
HETATM   21  O3  8UH V1620     -50.326 144.903  14.302  1.00 15.23    -0.395 OA
ATOM     22  H3  8UH V1620     -49.721 145.204  14.969  1.00  0.00     0.210 HD
HETATM   23  C21 8UH V1620     -34.231 128.411   6.857  1.00 70.34    -0.018 C 
HETATM   24  C22 8UH V1620     -33.508 128.088   5.564  1.00 70.34     0.045 C 
HETATM   25  C23 8UH V1620     -31.991 128.041   5.632  1.00 70.34     0.123 C 
HETATM   26  C24 8UH V1620     -31.401 129.196   6.421  1.00 70.34     0.066 C 
HETATM   27  C25 8UH V1620     -32.250 129.774   7.513  1.00 70.34    -0.074 C 
HETATM   28  C26 8UH V1620     -33.546 129.487   7.668  1.00 70.34    -0.048 C 
HETATM   29  C27 8UH V1620     -34.361 130.192   8.686  1.00 70.34     0.009 C 
HETATM   30  C28 8UH V1620     -35.086 131.270   8.404  1.00 70.34     0.007 C 
HETATM   31  C29 8UH V1620     -35.907 131.944   9.414  1.00 15.23    -0.062 C 
HETATM   32  C30 8UH V1620     -36.671 132.932   8.945  1.00 15.23     0.007 C 
HETATM   33  C31 8UH V1620     -37.573 133.751   9.735  1.00 15.23     0.001 C 
HETATM   34  C32 8UH V1620     -38.203 134.737   9.108  1.00 15.23     0.007 C 
HETATM   35  C33 8UH V1620     -39.103 135.657   9.808  1.00 15.23    -0.062 C 
HETATM   36  C34 8UH V1620     -39.601 136.679   9.100  1.00 15.23     0.007 C 
HETATM   37  C35 8UH V1620     -40.485 137.696   9.648  1.00 15.23     0.001 C 
HETATM   38  C36 8UH V1620     -34.393 127.129   7.661  1.00 70.34     0.020 C 
HETATM   39  C37 8UH V1620     -35.605 128.933   6.461  1.00 70.34     0.020 C 
HETATM   40  C38 8UH V1620     -31.605 130.941   8.203  1.00 70.34     0.044 C 
HETATM   41  C39 8UH V1620     -35.886 131.481  10.837  1.00 15.23     0.048 C 
HETATM   42  C40 8UH V1620     -39.382 135.411  11.254  1.00 15.23     0.048 C 
HETATM   43  O23 8UH V1620     -31.529 126.796   6.161  1.00 70.34    -0.395 OA
ATOM     44  H23 8UH V1620     -31.899 126.074   5.667  1.00  0.00     0.210 HD
ENDROOT
TORSDOF 12
