REMARK VINA RESULT:    -8.438      1.382     16.898
REMARK INTER + INTRA:         -10.940
REMARK INTER:                 -10.485
REMARK INTRA:                  -0.456
REMARK UNBOUND:                -2.503
REMARK  0 active torsions:
REMARK  status: ('A' for Active; 'I' for Inactive)
REMARK       I    between atoms: C3_3  and  O3_21 
REMARK       I    between atoms: C6_6  and  C7_7 
REMARK       I    between atoms: C8_8  and  C9_9 
REMARK       I    between atoms: C10_10  and  C11_11 
REMARK       I    between atoms: C12_12  and  C13_13 
REMARK       I    between atoms: C14_14  and  C15_15 
REMARK       I    between atoms: C23_25  and  O23_43 
REMARK       I    between atoms: C26_28  and  C27_29 
REMARK       I    between atoms: C28_30  and  C29_31 
REMARK       I    between atoms: C30_32  and  C31_33 
REMARK       I    between atoms: C32_34  and  C33_35 
REMARK       I    between atoms: C34_36  and  C35_37 
ROOT
HETATM    1  C1  8UH F5620     -34.183 128.179   6.783  1.00 19.30    -0.018 C 
HETATM    2  C2  8UH F5620     -33.357 127.683   5.581  1.00 17.68     0.045 C 
HETATM    3  C3  8UH F5620     -32.011 128.341   5.294  1.00 17.79     0.123 C 
HETATM    4  C4  8UH F5620     -31.376 129.080   6.473  1.00 18.50     0.066 C 
HETATM    5  C5  8UH F5620     -32.265 129.726   7.484  1.00 19.40    -0.074 C 
HETATM    6  C6  8UH F5620     -33.577 129.330   7.649  1.00 19.02    -0.048 C 
HETATM    7  C7  8UH F5620     -34.460 129.977   8.632  1.00 18.60     0.009 C 
HETATM    8  C8  8UH F5620     -35.072 131.173   8.504  1.00 18.09     0.007 C 
HETATM    9  C9  8UH F5620     -35.855 131.879   9.522  1.00 18.23    -0.062 C 
HETATM   10  C10 8UH F5620     -36.474 133.023   9.158  1.00 15.81     0.007 C 
HETATM   11  C11 8UH F5620     -37.300 133.855   9.987  1.00 18.00     0.001 C 
HETATM   12  C12 8UH F5620     -37.993 134.863   9.433  1.00 18.12     0.007 C 
HETATM   13  C13 8UH F5620     -38.924 135.797  10.055  1.00 18.88    -0.062 C 
HETATM   14  C14 8UH F5620     -39.576 136.653   9.240  1.00 21.10     0.007 C 
HETATM   15  C15 8UH F5620     -40.598 137.603   9.593  1.00 24.06     0.001 C 
HETATM   16  C16 8UH F5620     -34.351 126.915   7.644  1.00 17.17     0.020 C 
HETATM   17  C17 8UH F5620     -35.576 128.575   6.242  1.00 16.95     0.020 C 
HETATM   18  C18 8UH F5620     -31.495 130.793   8.194  1.00 19.80     0.044 C 
HETATM   19  C19 8UH F5620     -35.958 131.251  10.894  1.00 17.09     0.048 C 
HETATM   20  C20 8UH F5620     -39.148 135.693  11.532  1.00 16.35     0.048 C 
HETATM   21  O3  8UH F5620     -31.103 127.388   4.773  1.00 17.38    -0.395 OA
ATOM     22  H3  8UH F5620     -30.264 127.798   4.594  1.00  0.00     0.210 HD
HETATM   23  C21 8UH F5620     -50.725 145.222  10.111  1.00 29.53    -0.018 C 
HETATM   24  C22 8UH F5620     -51.601 145.651  11.286  1.00 29.53     0.045 C 
HETATM   25  C23 8UH F5620     -50.965 146.513  12.367  1.00 29.53     0.123 C 
HETATM   26  C24 8UH F5620     -49.975 147.486  11.763  1.00 29.53     0.066 C 
HETATM   27  C25 8UH F5620     -48.931 146.689  11.037  1.00 29.53    -0.074 C 
HETATM   28  C26 8UH F5620     -49.298 145.738  10.170  1.00 29.53    -0.048 C 
HETATM   29  C27 8UH F5620     -48.314 145.176   9.218  1.00 29.53     0.009 C 
HETATM   30  C28 8UH F5620     -47.472 144.193   9.541  1.00 29.53     0.007 C 
HETATM   31  C29 8UH F5620     -46.489 143.628   8.565  1.00 26.61    -0.062 C 
HETATM   32  C30 8UH F5620     -45.696 142.634   9.018  1.00 25.24     0.007 C 
HETATM   33  C31 8UH F5620     -44.720 141.904   8.264  1.00 26.40     0.001 C 
HETATM   34  C32 8UH F5620     -43.951 140.959   8.839  1.00 26.29     0.007 C 
HETATM   35  C33 8UH F5620     -42.905 140.134   8.226  1.00 26.99    -0.062 C 
HETATM   36  C34 8UH F5620     -42.239 139.274   9.026  1.00 26.65     0.007 C 
HETATM   37  C35 8UH F5620     -41.180 138.374   8.667  1.00 25.43     0.001 C 
HETATM   38  C36 8UH F5620     -51.427 145.680   8.836  1.00 29.53     0.020 C 
HETATM   39  C37 8UH F5620     -50.649 143.700  10.099  1.00 29.53     0.020 C 
HETATM   40  C38 8UH F5620     -47.640 147.447  10.915  1.00 29.53     0.044 C 
HETATM   41  C39 8UH F5620     -46.428 144.181   7.162  1.00 26.87     0.048 C 
HETATM   42  C40 8UH F5620     -42.630 140.322   6.763  1.00 24.17     0.048 C 
HETATM   43  O23 8UH F5620     -51.986 147.268  13.026  1.00 29.53    -0.395 OA
ATOM     44  H23 8UH F5620     -52.608 146.658  13.405  1.00  0.00     0.210 HD
ENDROOT
TORSDOF 12
