REMARK VINA RESULT:    -7.851      1.739     16.067
REMARK INTER + INTRA:         -10.645
REMARK INTER:                  -7.608
REMARK INTRA:                  -3.037
REMARK UNBOUND:                -2.794
REMARK  0 active torsions:
REMARK  status: ('A' for Active; 'I' for Inactive)
REMARK       I    between atoms: C3_3  and  O3_21 
REMARK       I    between atoms: C6_6  and  C7_7 
REMARK       I    between atoms: C8_8  and  C9_9 
REMARK       I    between atoms: C10_10  and  C11_11 
REMARK       I    between atoms: C12_12  and  C13_13 
REMARK       I    between atoms: C14_14  and  C15_15 
REMARK       I    between atoms: C23_25  and  O23_43 
REMARK       I    between atoms: C26_28  and  C27_29 
REMARK       I    between atoms: C28_30  and  C29_31 
REMARK       I    between atoms: C30_32  and  C31_33 
REMARK       I    between atoms: C32_34  and  C33_35 
REMARK       I    between atoms: C34_36  and  C35_37 
ROOT
HETATM    1  C1  8UH 61620     -49.161 146.209   8.235  1.00 97.95    -0.018 C 
HETATM    2  C2  8UH 61620     -50.660 145.991   8.407  1.00 97.95     0.045 C 
HETATM    3  C3  8UH 61620     -51.212 146.020   9.822  1.00 97.95     0.123 C 
HETATM    4  C4  8UH 61620     -50.502 147.045  10.677  1.00 97.95     0.066 C 
HETATM    5  C5  8UH 61620     -49.032 146.751  10.667  1.00 97.95    -0.074 C 
HETATM    6  C6  8UH 61620     -48.406 146.399   9.538  1.00 97.95    -0.048 C 
HETATM    7  C7  8UH 61620     -46.940 146.185   9.525  1.00 97.95     0.009 C 
HETATM    8  C8  8UH 61620     -46.412 144.990   9.790  1.00 97.95     0.007 C 
HETATM    9  C9  8UH 61620     -44.969 144.746   9.769  1.00 97.95    -0.062 C 
HETATM   10  C10 8UH 61620     -44.575 143.490   9.962  1.00 97.95     0.007 C 
HETATM   11  C11 8UH 61620     -43.184 143.075   9.957  1.00 97.95     0.001 C 
HETATM   12  C12 8UH 61620     -43.008 141.784  10.176  1.00 97.95     0.007 C 
HETATM   13  C13 8UH 61620     -41.693 141.134  10.185  1.00 97.95    -0.062 C 
HETATM   14  C14 8UH 61620     -41.712 139.806  10.089  1.00 97.95     0.007 C 
HETATM   15  C15 8UH 61620     -40.511 138.995  10.039  1.00 97.95     0.001 C 
HETATM   16  C16 8UH 61620     -48.993 147.411   7.312  1.00 97.95     0.020 C 
HETATM   17  C17 8UH 61620     -48.582 144.979   7.549  1.00 97.95     0.020 C 
HETATM   18  C18 8UH 61620     -48.309 147.006  11.955  1.00 97.95     0.044 C 
HETATM   19  C19 8UH 61620     -43.991 145.858   9.537  1.00 97.95     0.048 C 
HETATM   20  C20 8UH 61620     -40.415 141.911  10.278  1.00 97.95     0.048 C 
HETATM   21  O3  8UH 61620     -52.600 146.369   9.774  1.00 97.95    -0.395 OA
ATOM     22  H3  8UH 61620     -53.046 145.725   9.236  1.00  0.00     0.210 HD
HETATM   23  C21 8UH 61620     -33.442 129.373   6.639  1.00 15.23    -0.018 C 
HETATM   24  C22 8UH 61620     -32.266 130.110   6.028  1.00 15.23     0.045 C 
HETATM   25  C23 8UH 61620     -31.728 131.241   6.865  1.00 15.23     0.123 C 
HETATM   26  C24 8UH 61620     -31.579 130.738   8.271  1.00 15.23     0.066 C 
HETATM   27  C25 8UH 61620     -32.913 130.352   8.831  1.00 15.23    -0.074 C 
HETATM   28  C26 8UH 61620     -33.832 129.810   8.028  1.00 15.23    -0.048 C 
HETATM   29  C27 8UH 61620     -35.265 129.896   8.325  1.00 15.23     0.009 C 
HETATM   30  C28 8UH 61620     -35.660 131.157   8.516  1.00 15.23     0.007 C 
HETATM   31  C29 8UH 61620     -37.082 131.517   8.626  1.00 97.95    -0.062 C 
HETATM   32  C30 8UH 61620     -37.318 132.813   8.795  1.00 97.95     0.007 C 
HETATM   33  C31 8UH 61620     -38.631 133.416   8.915  1.00 97.95     0.001 C 
HETATM   34  C32 8UH 61620     -38.568 134.724   9.090  1.00 97.95     0.007 C 
HETATM   35  C33 8UH 61620     -39.752 135.567   9.227  1.00 97.95    -0.062 C 
HETATM   36  C34 8UH 61620     -39.552 136.870   9.423  1.00 97.95     0.007 C 
HETATM   37  C35 8UH 61620     -40.679 137.775   9.552  1.00 97.95     0.001 C 
HETATM   38  C36 8UH 61620     -33.002 127.931   6.801  1.00 15.23     0.020 C 
HETATM   39  C37 8UH 61620     -34.616 129.482   5.684  1.00 15.23     0.020 C 
HETATM   40  C38 8UH 61620     -33.204 130.926  10.186  1.00 15.23     0.044 C 
HETATM   41  C39 8UH 61620     -38.183 130.504   8.542  1.00 97.95     0.048 C 
HETATM   42  C40 8UH 61620     -41.126 134.978   9.151  1.00 97.95     0.048 C 
HETATM   43  O23 8UH 61620     -30.425 131.585   6.408  1.00 15.23    -0.395 OA
ATOM     44  H23 8UH 61620     -30.519 131.903   5.518  1.00  0.00     0.210 HD
ENDROOT
TORSDOF 12
