REMARK VINA RESULT:    -7.930      1.215     16.848
REMARK INTER + INTRA:         -11.085
REMARK INTER:                 -10.673
REMARK INTRA:                  -0.412
REMARK UNBOUND:                -3.155
REMARK  0 active torsions:
REMARK  status: ('A' for Active; 'I' for Inactive)
REMARK       I    between atoms: C3_3  and  O3_21 
REMARK       I    between atoms: C6_6  and  C7_7 
REMARK       I    between atoms: C8_8  and  C9_9 
REMARK       I    between atoms: C10_10  and  C11_11 
REMARK       I    between atoms: C12_12  and  C13_13 
REMARK       I    between atoms: C14_14  and  C15_15 
REMARK       I    between atoms: C23_25  and  O23_43 
REMARK       I    between atoms: C26_28  and  C27_29 
REMARK       I    between atoms: C28_30  and  C29_31 
REMARK       I    between atoms: C30_32  and  C31_33 
REMARK       I    between atoms: C32_34  and  C33_35 
REMARK       I    between atoms: C34_36  and  C35_37 
ROOT
HETATM    1  C1  8UH 3 622     -48.617 146.492  12.026  1.00 17.54    -0.018 C 
HETATM    2  C2  8UH 3 622     -49.258 146.618  13.398  1.00 17.54     0.045 C 
HETATM    3  C3  8UH 3 622     -49.060 147.923  14.164  1.00 17.54     0.123 C 
HETATM    4  C4  8UH 3 622     -47.751 148.644  13.875  1.00 17.54     0.066 C 
HETATM    5  C5  8UH 3 622     -46.798 147.858  13.013  1.00 17.54    -0.074 C 
HETATM    6  C6  8UH 3 622     -47.181 146.942  12.111  1.00 17.54    -0.048 C 
HETATM    7  C7  8UH 3 622     -46.197 146.384  11.154  1.00 17.54     0.009 C 
HETATM    8  C8  8UH 3 622     -45.557 145.235  11.359  1.00 17.54     0.007 C 
HETATM    9  C9  8UH 3 622     -44.585 144.730  10.374  1.00 17.54    -0.062 C 
HETATM   10  C10 8UH 3 622     -43.975 143.566  10.633  1.00 17.54     0.007 C 
HETATM   11  C11 8UH 3 622     -42.993 142.932   9.756  1.00 17.54     0.001 C 
HETATM   12  C12 8UH 3 622     -42.694 141.680  10.082  1.00 17.54     0.007 C 
HETATM   13  C13 8UH 3 622     -41.753 140.772   9.404  1.00 17.54    -0.062 C 
HETATM   14  C14 8UH 3 622     -41.500 139.615  10.028  1.00 17.54     0.007 C 
HETATM   15  C15 8UH 3 622     -40.613 138.593   9.496  1.00 17.54     0.001 C 
HETATM   16  C16 8UH 3 622     -49.389 147.259  10.954  1.00 17.54     0.020 C 
HETATM   17  C17 8UH 3 622     -48.670 145.024  11.648  1.00 17.54     0.020 C 
HETATM   18  C18 8UH 3 622     -45.427 148.438  12.976  1.00 17.54     0.044 C 
HETATM   19  C19 8UH 3 622     -44.296 145.500   9.123  1.00 17.54     0.048 C 
HETATM   20  C20 8UH 3 622     -41.113 141.107   8.092  1.00 17.54     0.048 C 
HETATM   21  O3  8UH 3 622     -50.150 148.797  13.854  1.00 17.54    -0.395 OA
ATOM     22  H3  8UH 3 622     -50.967 148.346  14.035  1.00  0.00     0.210 HD
HETATM   23  C21 8UH 3 622     -34.089 128.055   6.867  1.00 20.77    -0.018 C 
HETATM   24  C22 8UH 3 622     -33.499 127.491   5.565  1.00 19.21     0.045 C 
HETATM   25  C23 8UH 3 622     -32.244 128.110   4.955  1.00 20.68     0.123 C 
HETATM   26  C24 8UH 3 622     -31.664 129.316   5.703  1.00 17.77     0.066 C 
HETATM   27  C25 8UH 3 622     -32.405 129.961   6.830  1.00 19.05    -0.074 C 
HETATM   28  C26 8UH 3 622     -33.537 129.415   7.404  1.00 19.48    -0.048 C 
HETATM   29  C27 8UH 3 622     -34.310 130.030   8.518  1.00 16.56     0.009 C 
HETATM   30  C28 8UH 3 622     -35.213 131.037   8.382  1.00 15.55     0.007 C 
HETATM   31  C29 8UH 3 622     -35.958 131.695   9.421  1.00 17.54    -0.062 C 
HETATM   32  C30 8UH 3 622     -36.844 132.628   9.065  1.00 17.54     0.007 C 
HETATM   33  C31 8UH 3 622     -37.672 133.379   9.995  1.00 17.54     0.001 C 
HETATM   34  C32 8UH 3 622     -38.203 134.487   9.501  1.00 17.54     0.007 C 
HETATM   35  C33 8UH 3 622     -39.070 135.399  10.264  1.00 17.54    -0.062 C 
HETATM   36  C34 8UH 3 622     -39.544 136.465   9.606  1.00 17.54     0.007 C 
HETATM   37  C35 8UH 3 622     -40.416 137.475  10.185  1.00 17.54     0.001 C 
HETATM   38  C36 8UH 3 622     -33.828 126.934   7.904  1.00 20.67     0.020 C 
HETATM   39  C37 8UH 3 622     -35.614 128.140   6.638  1.00 19.98     0.020 C 
HETATM   40  C38 8UH 3 622     -31.713 131.231   7.189  1.00 17.40     0.044 C 
HETATM   41  C39 8UH 3 622     -35.729 131.317  10.852  1.00 17.54     0.048 C 
HETATM   42  C40 8UH 3 622     -39.395 135.142  11.701  1.00 17.54     0.048 C 
HETATM   43  O23 8UH 3 622     -31.242 127.116   4.757  1.00 20.33    -0.395 OA
ATOM     44  H23 8UH 3 622     -31.602 126.369   4.293  1.00  0.00     0.210 HD
ENDROOT
TORSDOF 12
