REMARK VINA RESULT:    -8.663      1.604     16.823
REMARK INTER + INTRA:          -9.160
REMARK INTER:                  -6.094
REMARK INTRA:                  -3.066
REMARK UNBOUND:                -0.497
REMARK  0 active torsions:
REMARK  status: ('A' for Active; 'I' for Inactive)
REMARK       I    between atoms: C3_3  and  O3_21 
REMARK       I    between atoms: C6_6  and  C7_7 
REMARK       I    between atoms: C8_8  and  C9_9 
REMARK       I    between atoms: C10_10  and  C11_11 
REMARK       I    between atoms: C12_12  and  C13_13 
REMARK       I    between atoms: C14_14  and  C15_15 
REMARK       I    between atoms: C23_25  and  O23_43 
REMARK       I    between atoms: C26_28  and  C27_29 
REMARK       I    between atoms: C28_30  and  C29_31 
REMARK       I    between atoms: C30_32  and  C31_33 
REMARK       I    between atoms: C32_34  and  C33_35 
REMARK       I    between atoms: C34_36  and  C35_37 
ROOT
HETATM    1  C1  8UH g1620     -50.157 143.773  12.504  1.00 66.61    -0.018 C 
HETATM    2  C2  8UH g1620     -50.516 144.266  13.901  1.00 66.61     0.045 C 
HETATM    3  C3  8UH g1620     -49.699 145.404  14.493  1.00 66.61     0.123 C 
HETATM    4  C4  8UH g1620     -49.218 146.359  13.422  1.00 66.61     0.066 C 
HETATM    5  C5  8UH g1620     -48.460 145.589  12.380  1.00 66.61    -0.074 C 
HETATM    6  C6  8UH g1620     -48.934 144.435  11.897  1.00 66.61    -0.048 C 
HETATM    7  C7  8UH g1620     -48.280 143.778  10.738  1.00 66.61     0.009 C 
HETATM    8  C8  8UH g1620     -47.255 142.938  10.897  1.00 66.61     0.007 C 
HETATM    9  C9  8UH g1620     -46.599 142.266   9.767  1.00 66.61    -0.062 C 
HETATM   10  C10 8UH g1620     -45.530 141.513  10.039  1.00 66.61     0.007 C 
HETATM   11  C11 8UH g1620     -44.794 140.780   9.021  1.00 66.61     0.001 C 
HETATM   12  C12 8UH g1620     -43.899 139.918   9.482  1.00 66.61     0.007 C 
HETATM   13  C13 8UH g1620     -43.071 139.073   8.612  1.00 66.61    -0.062 C 
HETATM   14  C14 8UH g1620     -42.299 138.155   9.200  1.00 66.61     0.007 C 
HETATM   15  C15 8UH g1620     -41.456 137.246   8.438  1.00 66.61     0.001 C 
HETATM   16  C16 8UH g1620     -51.382 143.977  11.619  1.00 66.61     0.020 C 
HETATM   17  C17 8UH g1620     -49.880 142.282  12.603  1.00 66.61     0.020 C 
HETATM   18  C18 8UH g1620     -47.372 146.365  11.696  1.00 66.61     0.044 C 
HETATM   19  C19 8UH g1620     -47.125 142.415   8.372  1.00 66.61     0.048 C 
HETATM   20  C20 8UH g1620     -43.100 139.233   7.122  1.00 66.61     0.048 C 
HETATM   21  O3  8UH g1620     -50.527 146.126  15.408  1.00 66.61    -0.395 OA
ATOM     22  H3  8UH g1620     -50.828 145.527  16.081  1.00  0.00     0.210 HD
HETATM   23  C21 8UH g1620     -34.627 126.842   6.036  1.00 17.81    -0.018 C 
HETATM   24  C22 8UH g1620     -33.839 125.995   5.014  1.00 18.03     0.045 C 
HETATM   25  C23 8UH g1620     -32.852 126.753   4.130  1.00 19.41     0.123 C 
HETATM   26  C24 8UH g1620     -31.985 127.726   4.926  1.00 18.47     0.066 C 
HETATM   27  C25 8UH g1620     -32.692 128.524   5.972  1.00 18.29    -0.074 C 
HETATM   28  C26 8UH g1620     -33.918 128.149   6.509  1.00 18.07    -0.048 C 
HETATM   29  C27 8UH g1620     -34.594 128.968   7.541  1.00 17.25     0.009 C 
HETATM   30  C28 8UH g1620     -35.314 130.088   7.337  1.00 17.01     0.007 C 
HETATM   31  C29 8UH g1620     -35.870 130.954   8.347  1.00 66.61    -0.062 C 
HETATM   32  C30 8UH g1620     -36.856 131.779   7.986  1.00 66.61     0.007 C 
HETATM   33  C31 8UH g1620     -37.541 132.691   8.892  1.00 66.61     0.001 C 
HETATM   34  C32 8UH g1620     -38.410 133.516   8.326  1.00 66.61     0.007 C 
HETATM   35  C33 8UH g1620     -39.206 134.485   9.089  1.00 66.61    -0.062 C 
HETATM   36  C34 8UH g1620     -40.012 135.307   8.410  1.00 66.61     0.007 C 
HETATM   37  C35 8UH g1620     -40.848 136.273   9.106  1.00 66.61     0.001 C 
HETATM   38  C36 8UH g1620     -34.827 125.875   7.203  1.00 16.04     0.020 C 
HETATM   39  C37 8UH g1620     -36.018 127.165   5.476  1.00 17.79     0.020 C 
HETATM   40  C38 8UH g1620     -31.838 129.710   6.261  1.00 17.18     0.044 C 
HETATM   41  C39 8UH g1620     -35.353 130.899   9.754  1.00 66.61     0.048 C 
HETATM   42  C40 8UH g1620     -39.117 134.523  10.585  1.00 66.61     0.048 C 
HETATM   43  O23 8UH g1620     -32.039 125.850   3.394  1.00 19.31    -0.395 OA
ATOM     44  H23 8UH g1620     -31.425 126.322   2.844  1.00  0.00     0.210 HD
ENDROOT
TORSDOF 12
