REMARK VINA RESULT:   -11.547      0.000      0.000
REMARK INTER + INTRA:         -13.751
REMARK INTER:                 -11.547
REMARK INTRA:                  -2.204
REMARK UNBOUND:                -2.204
REMARK  0 active torsions:
REMARK  status: ('A' for Active; 'I' for Inactive)
REMARK       I    between atoms: C3_3  and  O3_21 
REMARK       I    between atoms: C6_6  and  C7_7 
REMARK       I    between atoms: C8_8  and  C9_9 
REMARK       I    between atoms: C10_10  and  C11_11 
REMARK       I    between atoms: C12_12  and  C13_13 
REMARK       I    between atoms: C14_14  and  C15_15 
REMARK       I    between atoms: C23_25  and  O23_43 
REMARK       I    between atoms: C26_28  and  C27_29 
REMARK       I    between atoms: C28_30  and  C29_31 
REMARK       I    between atoms: C30_32  and  C31_33 
REMARK       I    between atoms: C32_34  and  C33_35 
REMARK       I    between atoms: C34_36  and  C35_37 
ROOT
HETATM    1  C1  8UH 61620     -50.191 144.156   9.255  1.00 97.95    -0.018 C 
HETATM    2  C2  8UH 61620     -51.168 144.300  10.417  1.00 97.95     0.045 C 
HETATM    3  C3  8UH 61620     -50.808 145.286  11.514  1.00 97.95     0.123 C 
HETATM    4  C4  8UH 61620     -50.122 146.513  10.958  1.00 97.95     0.066 C 
HETATM    5  C5  8UH 61620     -48.911 146.084  10.186  1.00 97.95    -0.074 C 
HETATM    6  C6  8UH 61620     -48.949 145.020   9.376  1.00 97.95    -0.048 C 
HETATM    7  C7  8UH 61620     -47.767 144.651   8.560  1.00 97.95     0.009 C 
HETATM    8  C8  8UH 61620     -46.828 143.833   9.032  1.00 97.95     0.007 C 
HETATM    9  C9  8UH 61620     -45.659 143.439   8.244  1.00 97.95    -0.062 C 
HETATM   10  C10 8UH 61620     -44.842 142.547   8.797  1.00 97.95     0.007 C 
HETATM   11  C11 8UH 61620     -43.649 142.039   8.145  1.00 97.95     0.001 C 
HETATM   12  C12 8UH 61620     -42.972 141.164   8.869  1.00 97.95     0.007 C 
HETATM   13  C13 8UH 61620     -41.752 140.497   8.403  1.00 97.95    -0.062 C 
HETATM   14  C14 8UH 61620     -41.388 139.422   9.101  1.00 97.95     0.007 C 
HETATM   15  C15 8UH 61620     -40.236 138.608   8.765  1.00 97.95     0.001 C 
HETATM   16  C16 8UH 61620     -50.969 144.472   7.982  1.00 97.95     0.020 C 
HETATM   17  C17 8UH 61620     -49.732 142.705   9.200  1.00 97.95     0.020 C 
HETATM   18  C18 8UH 61620     -47.722 146.994  10.283  1.00 97.95     0.044 C 
HETATM   19  C19 8UH 61620     -45.405 144.013   6.884  1.00 97.95     0.048 C 
HETATM   20  C20 8UH 61620     -40.978 140.978   7.214  1.00 97.95     0.048 C 
HETATM   21  O3  8UH 61620     -52.007 145.710  12.172  1.00 97.95    -0.395 OA
ATOM     22  H3  8UH 61620     -51.782 146.327  12.858  1.00  0.00     0.210 HD
HETATM   23  C21 8UH 61620     -33.541 129.074   7.248  1.00 22.99    -0.018 C 
HETATM   24  C22 8UH 61620     -32.875 129.798   6.097  1.00 22.99     0.045 C 
HETATM   25  C23 8UH 61620     -32.267 131.123   6.477  1.00 22.99     0.123 C 
HETATM   26  C24 8UH 61620     -31.274 130.820   7.563  1.00 22.99     0.066 C 
HETATM   27  C25 8UH 61620     -31.983 130.259   8.753  1.00 22.99    -0.074 C 
HETATM   28  C26 8UH 61620     -33.151 129.649   8.593  1.00 22.99    -0.048 C 
HETATM   29  C27 8UH 61620     -34.217 129.856   9.565  1.00 22.99     0.009 C 
HETATM   30  C28 8UH 61620     -34.840 130.993   9.238  1.00 22.99     0.007 C 
HETATM   31  C29 8UH 61620     -35.975 131.535   9.985  1.00 97.95    -0.062 C 
HETATM   32  C30 8UH 61620     -36.482 132.666   9.505  1.00 97.95     0.007 C 
HETATM   33  C31 8UH 61620     -37.613 133.378  10.066  1.00 97.95     0.001 C 
HETATM   34  C32 8UH 61620     -37.893 134.482   9.395  1.00 97.95     0.007 C 
HETATM   35  C33 8UH 61620     -38.994 135.372   9.750  1.00 97.95    -0.062 C 
HETATM   36  C34 8UH 61620     -39.156 136.466   9.005  1.00 97.95     0.007 C 
HETATM   37  C35 8UH 61620     -40.238 137.391   9.285  1.00 97.95     0.001 C 
HETATM   38  C36 8UH 61620     -33.171 127.616   7.072  1.00 22.99     0.020 C 
HETATM   39  C37 8UH 61620     -35.045 129.222   7.102  1.00 22.99     0.020 C 
HETATM   40  C38 8UH 61620     -31.692 131.227   9.854  1.00 22.99     0.044 C 
HETATM   41  C39 8UH 61620     -36.533 130.855  11.198  1.00 97.95     0.048 C 
HETATM   42  C40 8UH 61620     -39.893 135.058  10.904  1.00 97.95     0.048 C 
HETATM   43  O23 8UH 61620     -31.557 131.643   5.363  1.00 22.99    -0.395 OA
ATOM     44  H23 8UH 61620     -31.173 132.479   5.603  1.00  0.00     0.210 HD
ENDROOT
TORSDOF 12
