REMARK VINA RESULT:    -9.220      0.000      0.000
REMARK INTER + INTRA:         -11.995
REMARK INTER:                  -9.220
REMARK INTRA:                  -2.775
REMARK UNBOUND:                -2.775
REMARK  0 active torsions:
REMARK  status: ('A' for Active; 'I' for Inactive)
REMARK       I    between atoms: C3_3  and  O3_21 
REMARK       I    between atoms: C6_6  and  C7_7 
REMARK       I    between atoms: C8_8  and  C9_9 
REMARK       I    between atoms: C10_10  and  C11_11 
REMARK       I    between atoms: C12_12  and  C13_13 
REMARK       I    between atoms: C14_14  and  C15_15 
REMARK       I    between atoms: C23_25  and  O23_43 
REMARK       I    between atoms: C26_28  and  C27_29 
REMARK       I    between atoms: C28_30  and  C29_31 
REMARK       I    between atoms: C30_32  and  C31_33 
REMARK       I    between atoms: C32_34  and  C33_35 
REMARK       I    between atoms: C34_36  and  C35_37 
ROOT
HETATM    1  C1  8UH 61620     -34.455 128.043   6.548  1.00 97.95    -0.018 C 
HETATM    2  C2  8UH 61620     -33.666 127.749   5.277  1.00 97.95     0.045 C 
HETATM    3  C3  8UH 61620     -32.285 128.367   5.153  1.00 97.95     0.123 C 
HETATM    4  C4  8UH 61620     -31.570 128.405   6.485  1.00 97.95     0.066 C 
HETATM    5  C5  8UH 61620     -32.419 129.150   7.470  1.00 97.95    -0.074 C 
HETATM    6  C6  8UH 61620     -33.742 128.960   7.524  1.00 97.95    -0.048 C 
HETATM    7  C7  8UH 61620     -34.560 129.646   8.553  1.00 97.95     0.009 C 
HETATM    8  C8  8UH 61620     -35.084 130.851   8.332  1.00 97.95     0.007 C 
HETATM    9  C9  8UH 61620     -35.908 131.545   9.323  1.00 97.95    -0.062 C 
HETATM   10  C10 8UH 61620     -36.445 132.702   8.945  1.00 97.95     0.007 C 
HETATM   11  C11 8UH 61620     -37.299 133.507   9.798  1.00 97.95     0.001 C 
HETATM   12  C12 8UH 61620     -37.722 134.625   9.234  1.00 97.95     0.007 C 
HETATM   13  C13 8UH 61620     -38.619 135.579   9.896  1.00 97.95    -0.062 C 
HETATM   14  C14 8UH 61620     -39.205 136.463   9.090  1.00 97.95     0.007 C 
HETATM   15  C15 8UH 61620     -40.155 137.455   9.556  1.00 97.95     0.001 C 
HETATM   16  C16 8UH 61620     -34.784 126.697   7.185  1.00 97.95     0.020 C 
HETATM   17  C17 8UH 61620     -35.756 128.726   6.149  1.00 97.95     0.020 C 
HETATM   18  C18 8UH 61620     -31.676 130.002   8.457  1.00 97.95     0.044 C 
HETATM   19  C19 8UH 61620     -36.135 130.972  10.688  1.00 97.95     0.048 C 
HETATM   20  C20 8UH 61620     -38.874 135.550  11.372  1.00 97.95     0.048 C 
HETATM   21  O3  8UH 61620     -31.499 127.578   4.252  1.00 97.95    -0.395 OA
ATOM     22  H3  8UH 61620     -30.635 127.965   4.175  1.00  0.00     0.210 HD
HETATM   23  C21 8UH 61620     -50.045 145.126   8.944  1.00 37.79    -0.018 C 
HETATM   24  C22 8UH 61620     -50.999 145.976   9.764  1.00 37.79     0.045 C 
HETATM   25  C23 8UH 61620     -50.384 146.774  10.890  1.00 37.79     0.123 C 
HETATM   26  C24 8UH 61620     -49.197 147.540  10.368  1.00 37.79     0.066 C 
HETATM   27  C25 8UH 61620     -48.219 146.661   9.651  1.00 37.79    -0.074 C 
HETATM   28  C26 8UH 61620     -48.605 145.598   8.932  1.00 37.79    -0.048 C 
HETATM   29  C27 8UH 61620     -47.645 144.868   8.059  1.00 37.79     0.009 C 
HETATM   30  C28 8UH 61620     -46.802 143.932   8.509  1.00 37.79     0.007 C 
HETATM   31  C29 8UH 61620     -45.877 143.218   7.628  1.00 97.95    -0.062 C 
HETATM   32  C30 8UH 61620     -45.121 142.306   8.229  1.00 97.95     0.007 C 
HETATM   33  C31 8UH 61620     -44.143 141.464   7.569  1.00 97.95     0.001 C 
HETATM   34  C32 8UH 61620     -43.525 140.657   8.413  1.00 97.95     0.007 C 
HETATM   35  C33 8UH 61620     -42.503 139.701   7.997  1.00 97.95    -0.062 C 
HETATM   36  C34 8UH 61620     -41.939 138.960   8.951  1.00 97.95     0.007 C 
HETATM   37  C35 8UH 61620     -40.928 137.976   8.615  1.00 97.95     0.001 C 
HETATM   38  C36 8UH 61620     -50.653 145.039   7.552  1.00 37.79     0.020 C 
HETATM   39  C37 8UH 61620     -50.020 143.734   9.531  1.00 37.79     0.020 C 
HETATM   40  C38 8UH 61620     -46.854 147.271   9.543  1.00 37.79     0.044 C 
HETATM   41  C39 8UH 61620     -45.796 143.486   6.155  1.00 97.95     0.048 C 
HETATM   42  C40 8UH 61620     -42.115 139.570   6.558  1.00 97.95     0.048 C 
HETATM   43  O23 8UH 61620     -51.342 147.736  11.330  1.00 37.79    -0.395 OA
ATOM     44  H23 8UH 61620     -50.955 148.237  12.038  1.00  0.00     0.210 HD
ENDROOT
TORSDOF 12
