REMARK VINA RESULT:    -9.698      0.000      0.000
REMARK INTER + INTRA:         -12.059
REMARK INTER:                  -9.698
REMARK INTRA:                  -2.361
REMARK UNBOUND:                -2.361
REMARK  0 active torsions:
REMARK  status: ('A' for Active; 'I' for Inactive)
REMARK       I    between atoms: C3_3  and  O3_21 
REMARK       I    between atoms: C6_6  and  C7_7 
REMARK       I    between atoms: C8_8  and  C9_9 
REMARK       I    between atoms: C10_10  and  C11_11 
REMARK       I    between atoms: C12_12  and  C13_13 
REMARK       I    between atoms: C14_14  and  C15_15 
REMARK       I    between atoms: C23_25  and  O23_43 
REMARK       I    between atoms: C26_28  and  C27_29 
REMARK       I    between atoms: C28_30  and  C29_31 
REMARK       I    between atoms: C30_32  and  C31_33 
REMARK       I    between atoms: C32_34  and  C33_35 
REMARK       I    between atoms: C34_36  and  C35_37 
ROOT
HETATM    1  C1  8UH a 617     -34.223 127.085   6.557  1.00 53.78    -0.018 C 
HETATM    2  C2  8UH a 617     -34.224 127.203   5.033  1.00 53.78     0.045 C 
HETATM    3  C3  8UH a 617     -33.119 128.070   4.441  1.00 53.78     0.123 C 
HETATM    4  C4  8UH a 617     -31.962 128.191   5.417  1.00 53.78     0.066 C 
HETATM    5  C5  8UH a 617     -32.530 128.851   6.638  1.00 53.78    -0.074 C 
HETATM    6  C6  8UH a 617     -33.560 128.255   7.243  1.00 53.78    -0.048 C 
HETATM    7  C7  8UH a 617     -34.199 128.852   8.429  1.00 53.78     0.009 C 
HETATM    8  C8  8UH a 617     -34.452 130.152   8.284  1.00 53.78     0.007 C 
HETATM    9  C9  8UH a 617     -35.261 130.898   9.263  1.00 53.78    -0.062 C 
HETATM   10  C10 8UH a 617     -35.762 132.066   8.837  1.00 53.78     0.007 C 
HETATM   11  C11 8UH a 617     -36.685 132.893   9.605  1.00 53.78     0.001 C 
HETATM   12  C12 8UH a 617     -37.286 133.907   8.994  1.00 53.78     0.007 C 
HETATM   13  C13 8UH a 617     -38.293 134.743   9.667  1.00 53.78    -0.062 C 
HETATM   14  C14 8UH a 617     -38.955 135.613   8.892  1.00 53.78     0.007 C 
HETATM   15  C15 8UH a 617     -40.013 136.508   9.346  1.00 53.78     0.001 C 
HETATM   16  C16 8UH a 617     -33.419 125.850   6.955  1.00 53.78     0.020 C 
HETATM   17  C17 8UH a 617     -35.650 126.941   7.071  1.00 53.78     0.020 C 
HETATM   18  C18 8UH a 617     -31.579 129.790   7.347  1.00 53.78     0.044 C 
HETATM   19  C19 8UH a 617     -35.520 130.329  10.629  1.00 53.78     0.048 C 
HETATM   20  C20 8UH a 617     -38.541 134.562  11.135  1.00 53.78     0.048 C 
HETATM   21  O3  8UH a 617     -32.638 127.492   3.225  1.00 53.78    -0.395 OA
ATOM     22  H3  8UH a 617     -33.362 127.416   2.614  1.00  0.00     0.210 HD
HETATM   23  C21 8UH a 617     -49.683 144.790   9.678  1.00 19.12    -0.018 C 
HETATM   24  C22 8UH a 617     -50.545 145.632  10.641  1.00 18.29     0.045 C 
HETATM   25  C23 8UH a 617     -49.829 146.336  11.796  1.00 18.54     0.123 C 
HETATM   26  C24 8UH a 617     -48.466 146.906  11.404  1.00 18.55     0.066 C 
HETATM   27  C25 8UH a 617     -47.617 146.110  10.467  1.00 18.97    -0.074 C 
HETATM   28  C26 8UH a 617     -48.155 145.123   9.653  1.00 18.68    -0.048 C 
HETATM   29  C27 8UH a 617     -47.331 144.348   8.714  1.00 18.46     0.009 C 
HETATM   30  C28 8UH a 617     -46.505 143.332   8.986  1.00 18.89     0.007 C 
HETATM   31  C29 8UH a 617     -45.606 142.672   8.058  1.00 53.78    -0.062 C 
HETATM   32  C30 8UH a 617     -44.904 141.650   8.563  1.00 53.78     0.007 C 
HETATM   33  C31 8UH a 617     -43.939 140.839   7.835  1.00 53.78     0.001 C 
HETATM   34  C32 8UH a 617     -43.310 139.908   8.541  1.00 53.78     0.007 C 
HETATM   35  C33 8UH a 617     -42.277 139.034   7.970  1.00 53.78    -0.062 C 
HETATM   36  C34 8UH a 617     -41.650 138.207   8.827  1.00 53.78     0.007 C 
HETATM   37  C35 8UH a 617     -40.585 137.287   8.439  1.00 53.78     0.001 C 
HETATM   38  C36 8UH a 617     -50.314 145.040   8.299  1.00 19.29     0.020 C 
HETATM   39  C37 8UH a 617     -49.897 143.304  10.020  1.00 16.00     0.020 C 
HETATM   40  C38 8UH a 617     -46.220 146.619  10.606  1.00 17.87     0.044 C 
HETATM   41  C39 8UH a 617     -45.544 143.133   6.632  1.00 53.78     0.048 C 
HETATM   42  C40 8UH a 617     -41.971 139.136   6.505  1.00 53.78     0.048 C 
HETATM   43  O23 8UH a 617     -50.650 147.362  12.335  1.00 19.42    -0.395 OA
ATOM     44  H23 8UH a 617     -50.206 147.800  13.052  1.00  0.00     0.210 HD
ENDROOT
TORSDOF 12
