REMARK VINA RESULT:    -9.331      0.000      0.000
REMARK INTER + INTRA:         -12.379
REMARK INTER:                  -9.331
REMARK INTRA:                  -3.048
REMARK UNBOUND:                -3.048
REMARK  0 active torsions:
REMARK  status: ('A' for Active; 'I' for Inactive)
REMARK       I    between atoms: C3_3  and  O3_21 
REMARK       I    between atoms: C6_6  and  C7_7 
REMARK       I    between atoms: C8_8  and  C9_9 
REMARK       I    between atoms: C10_10  and  C11_11 
REMARK       I    between atoms: C12_12  and  C13_13 
REMARK       I    between atoms: C14_14  and  C15_15 
REMARK       I    between atoms: C23_25  and  O23_43 
REMARK       I    between atoms: C26_28  and  C27_29 
REMARK       I    between atoms: C28_30  and  C29_31 
REMARK       I    between atoms: C30_32  and  C31_33 
REMARK       I    between atoms: C32_34  and  C33_35 
REMARK       I    between atoms: C34_36  and  C35_37 
ROOT
HETATM    1  C1  8UH n1621     -34.442 126.903   6.218  1.00 48.43    -0.018 C 
HETATM    2  C2  8UH n1621     -34.005 126.175   4.954  1.00 44.61     0.045 C 
HETATM    3  C3  8UH n1621     -32.903 126.834   4.148  1.00 44.41     0.123 C 
HETATM    4  C4  8UH n1621     -31.834 127.392   5.055  1.00 41.53     0.066 C 
HETATM    5  C5  8UH n1621     -32.473 128.407   5.949  1.00 37.72    -0.074 C 
HETATM    6  C6  8UH n1621     -33.606 128.116   6.586  1.00 43.52    -0.048 C 
HETATM    7  C7  8UH n1621     -34.096 128.944   7.713  1.00 44.60     0.009 C 
HETATM    8  C8  8UH n1621     -34.767 130.073   7.523  1.00 43.22     0.007 C 
HETATM    9  C9  8UH n1621     -35.279 130.847   8.653  1.00 45.04    -0.062 C 
HETATM   10  C10 8UH n1621     -36.126 131.816   8.332  1.00 43.71     0.007 C 
HETATM   11  C11 8UH n1621     -36.803 132.675   9.273  1.00 42.87     0.001 C 
HETATM   12  C12 8UH n1621     -37.680 133.458   8.678  1.00 44.70     0.007 C 
HETATM   13  C13 8UH n1621     -38.558 134.374   9.402  1.00 42.63    -0.062 C 
HETATM   14  C14 8UH n1621     -39.438 135.062   8.674  1.00 42.62     0.007 C 
HETATM   15  C15 8UH n1621     -40.383 135.963   9.298  1.00 44.33     0.001 C 
HETATM   16  C16 8UH n1621     -34.455 125.850   7.320  1.00 47.48     0.020 C 
HETATM   17  C17 8UH n1621     -35.845 127.448   6.024  1.00 54.25     0.020 C 
HETATM   18  C18 8UH n1621     -31.486 129.396   6.473  1.00 37.77     0.044 C 
HETATM   19  C19 8UH n1621     -34.886 130.538  10.062  1.00 46.17     0.048 C 
HETATM   20  C20 8UH n1621     -38.492 134.474  10.895  1.00 40.87     0.048 C 
HETATM   21  O3  8UH n1621     -32.312 125.859   3.288  1.00 48.83    -0.395 OA
ATOM     22  H3  8UH n1621     -31.622 126.272   2.783  1.00  0.00     0.210 HD
HETATM   23  C21 8UH n1621     -49.951 144.062  10.981  1.00 57.46    -0.018 C 
HETATM   24  C22 8UH n1621     -50.739 144.306  12.259  1.00 54.62     0.045 C 
HETATM   25  C23 8UH n1621     -50.245 145.389  13.223  1.00 54.91     0.123 C 
HETATM   26  C24 8UH n1621     -48.844 145.922  12.962  1.00 56.99     0.066 C 
HETATM   27  C25 8UH n1621     -47.993 144.911  12.245  1.00 60.65    -0.074 C 
HETATM   28  C26 8UH n1621     -48.465 144.232  11.197  1.00 60.28    -0.048 C 
HETATM   29  C27 8UH n1621     -47.560 143.649  10.182  1.00 57.11     0.009 C 
HETATM   30  C28 8UH n1621     -46.936 142.497  10.380  1.00 53.31     0.007 C 
HETATM   31  C29 8UH n1621     -46.077 141.921   9.346  1.00 54.19    -0.062 C 
HETATM   32  C30 8UH n1621     -45.680 140.666   9.560  1.00 54.84     0.007 C 
HETATM   33  C31 8UH n1621     -44.829 139.918   8.657  1.00 51.40     0.001 C 
HETATM   34  C32 8UH n1621     -43.977 139.102   9.253  1.00 48.08     0.007 C 
HETATM   35  C33 8UH n1621     -43.041 138.270   8.498  1.00 45.58    -0.062 C 
HETATM   36  C34 8UH n1621     -42.178 137.515   9.178  1.00 47.58     0.007 C 
HETATM   37  C35 8UH n1621     -41.219 136.641   8.529  1.00 48.15     0.001 C 
HETATM   38  C36 8UH n1621     -50.463 144.962   9.858  1.00 59.48     0.020 C 
HETATM   39  C37 8UH n1621     -50.197 142.627  10.552  1.00 57.14     0.020 C 
HETATM   40  C38 8UH n1621     -46.621 145.509  12.223  1.00 65.36     0.044 C 
HETATM   41  C39 8UH n1621     -45.721 142.707   8.125  1.00 53.01     0.048 C 
HETATM   42  C40 8UH n1621     -43.074 138.291   7.009  1.00 46.34     0.048 C 
HETATM   43  O23 8UH n1621     -51.165 146.479  13.140  1.00 51.54    -0.395 OA
ATOM     44  H23 8UH n1621     -50.858 147.150  13.738  1.00  0.00     0.210 HD
ENDROOT
TORSDOF 12
