REMARK VINA RESULT:    -8.628      0.000      0.000
REMARK INTER + INTRA:         -11.427
REMARK INTER:                  -8.628
REMARK INTRA:                  -2.799
REMARK UNBOUND:                -2.799
REMARK  0 active torsions:
REMARK  status: ('A' for Active; 'I' for Inactive)
REMARK       I    between atoms: C3_3  and  O3_21 
REMARK       I    between atoms: C6_6  and  C7_7 
REMARK       I    between atoms: C8_8  and  C9_9 
REMARK       I    between atoms: C10_10  and  C11_11 
REMARK       I    between atoms: C12_12  and  C13_13 
REMARK       I    between atoms: C14_14  and  C15_15 
REMARK       I    between atoms: C23_25  and  O23_43 
REMARK       I    between atoms: C26_28  and  C27_29 
REMARK       I    between atoms: C28_30  and  C29_31 
REMARK       I    between atoms: C30_32  and  C31_33 
REMARK       I    between atoms: C32_34  and  C33_35 
REMARK       I    between atoms: C34_36  and  C35_37 
ROOT
HETATM    1  C1  8UH g1620     -34.460 126.875   6.261  1.00 59.27    -0.018 C 
HETATM    2  C2  8UH g1620     -33.882 126.078   5.101  1.00 64.60     0.045 C 
HETATM    3  C3  8UH g1620     -32.901 126.836   4.233  1.00 63.28     0.123 C 
HETATM    4  C4  8UH g1620     -31.799 127.408   5.085  1.00 61.00     0.066 C 
HETATM    5  C5  8UH g1620     -32.376 128.275   6.167  1.00 64.87    -0.074 C 
HETATM    6  C6  8UH g1620     -33.572 128.018   6.733  1.00 63.96    -0.048 C 
HETATM    7  C7  8UH g1620     -34.055 128.823   7.887  1.00 64.82     0.009 C 
HETATM    8  C8  8UH g1620     -34.698 129.986   7.739  1.00 58.91     0.007 C 
HETATM    9  C9  8UH g1620     -35.182 130.772   8.874  1.00 59.76    -0.062 C 
HETATM   10  C10 8UH g1620     -35.881 131.868   8.561  1.00 59.44     0.007 C 
HETATM   11  C11 8UH g1620     -36.474 132.797   9.504  1.00 53.66     0.001 C 
HETATM   12  C12 8UH g1620     -37.264 133.685   8.924  1.00 59.47     0.007 C 
HETATM   13  C13 8UH g1620     -38.002 134.715   9.662  1.00 64.69    -0.062 C 
HETATM   14  C14 8UH g1620     -38.892 135.437   8.977  1.00 66.67     0.007 C 
HETATM   15  C15 8UH g1620     -39.711 136.462   9.608  1.00 73.65     0.001 C 
HETATM   16  C16 8UH g1620     -34.742 125.850   7.355  1.00 56.55     0.020 C 
HETATM   17  C17 8UH g1620     -35.773 127.496   5.814  1.00 59.14     0.020 C 
HETATM   18  C18 8UH g1620     -31.440 129.340   6.663  1.00 61.00     0.044 C 
HETATM   19  C19 8UH g1620     -34.881 130.358  10.283  1.00 55.95     0.048 C 
HETATM   20  C20 8UH g1620     -37.768 134.923  11.126  1.00 67.83     0.048 C 
HETATM   21  O3  8UH g1620     -32.334 125.937   3.277  1.00 73.40    -0.395 OA
ATOM     22  H3  8UH g1620     -31.718 126.413   2.732  1.00  0.00     0.210 HD
HETATM   23  C21 8UH g1620     -49.693 144.654  10.529  1.00 27.99    -0.018 C 
HETATM   24  C22 8UH g1620     -50.729 144.525  11.654  1.00 27.99     0.045 C 
HETATM   25  C23 8UH g1620     -50.161 144.212  13.032  1.00 27.99     0.123 C 
HETATM   26  C24 8UH g1620     -48.903 145.034  13.234  1.00 27.99     0.066 C 
HETATM   27  C25 8UH g1620     -47.910 144.498  12.245  1.00 27.99    -0.074 C 
HETATM   28  C26 8UH g1620     -48.243 144.454  10.949  1.00 27.99    -0.048 C 
HETATM   29  C27 8UH g1620     -47.297 143.994   9.908  1.00 27.99     0.009 C 
HETATM   30  C28 8UH g1620     -46.472 142.984  10.216  1.00 27.99     0.007 C 
HETATM   31  C29 8UH g1620     -45.683 142.319   9.145  1.00 93.82    -0.062 C 
HETATM   32  C30 8UH g1620     -44.930 141.312   9.582  1.00 83.29     0.007 C 
HETATM   33  C31 8UH g1620     -44.095 140.480   8.740  1.00 75.18     0.001 C 
HETATM   34  C32 8UH g1620     -43.309 139.651   9.404  1.00 71.38     0.007 C 
HETATM   35  C33 8UH g1620     -42.423 138.703   8.724  1.00 70.67    -0.062 C 
HETATM   36  C34 8UH g1620     -41.590 137.974   9.474  1.00 74.09     0.007 C 
HETATM   37  C35 8UH g1620     -40.704 136.976   8.894  1.00 74.87     0.001 C 
HETATM   38  C36 8UH g1620     -49.723 146.102  10.036  1.00 27.99     0.020 C 
HETATM   39  C37 8UH g1620     -50.093 143.709   9.397  1.00 27.99     0.020 C 
HETATM   40  C38 8UH g1620     -46.503 144.738  12.717  1.00 27.99     0.044 C 
HETATM   41  C39 8UH g1620     -45.729 142.725   7.703  1.00 99.93     0.048 C 
HETATM   42  C40 8UH g1620     -42.488 138.550   7.238  1.00 65.73     0.048 C 
HETATM   43  O23 8UH g1620     -51.125 144.518  14.048  1.00 27.99    -0.395 OA
ATOM     44  H23 8UH g1620     -51.913 144.003  13.921  1.00  0.00     0.210 HD
ENDROOT
TORSDOF 12
