REMARK VINA RESULT:    -8.955      1.858     16.463
REMARK INTER + INTRA:         -11.411
REMARK INTER:                  -7.974
REMARK INTRA:                  -3.437
REMARK UNBOUND:                -2.456
REMARK  0 active torsions:
REMARK  status: ('A' for Active; 'I' for Inactive)
REMARK       I    between atoms: C3_3  and  O3_21 
REMARK       I    between atoms: C6_6  and  C7_7 
REMARK       I    between atoms: C8_8  and  C9_9 
REMARK       I    between atoms: C10_10  and  C11_11 
REMARK       I    between atoms: C12_12  and  C13_13 
REMARK       I    between atoms: C14_14  and  C15_15 
REMARK       I    between atoms: C23_25  and  O23_43 
REMARK       I    between atoms: C26_28  and  C27_29 
REMARK       I    between atoms: C28_30  and  C29_31 
REMARK       I    between atoms: C30_32  and  C31_33 
REMARK       I    between atoms: C32_34  and  C33_35 
REMARK       I    between atoms: C34_36  and  C35_37 
ROOT
HETATM    1  C1  8UH 1 316     -48.897 147.240   8.844  1.00 73.24    -0.018 C 
HETATM    2  C2  8UH 1 316     -50.417 147.276   9.024  1.00 72.84     0.045 C 
HETATM    3  C3  8UH 1 316     -50.945 147.045  10.435  1.00 72.53     0.123 C 
HETATM    4  C4  8UH 1 316     -50.090 147.791  11.441  1.00 72.61     0.066 C 
HETATM    5  C5  8UH 1 316     -48.665 147.318  11.328  1.00 72.68    -0.074 C 
HETATM    6  C6  8UH 1 316     -48.099 147.141  10.133  1.00 72.79    -0.048 C 
HETATM    7  C7  8UH 1 316     -46.652 146.830  10.049  1.00 71.90     0.009 C 
HETATM    8  C8  8UH 1 316     -46.220 145.573  10.191  1.00 71.51     0.007 C 
HETATM    9  C9  8UH 1 316     -44.791 145.202  10.112  1.00 70.48    -0.062 C 
HETATM   10  C10 8UH 1 316     -44.472 143.902  10.209  1.00 69.46     0.007 C 
HETATM   11  C11 8UH 1 316     -43.111 143.374  10.144  1.00 69.85     0.001 C 
HETATM   12  C12 8UH 1 316     -42.987 142.049  10.228  1.00 72.15     0.007 C 
HETATM   13  C13 8UH 1 316     -41.700 141.323  10.165  1.00 73.74    -0.062 C 
HETATM   14  C14 8UH 1 316     -41.745 139.987  10.008  1.00 74.04     0.007 C 
HETATM   15  C15 8UH 1 316     -40.549 139.152   9.905  1.00 74.62     0.001 C 
HETATM   16  C16 8UH 1 316     -48.479 148.510   8.114  1.00 72.68     0.020 C 
HETATM   17  C17 8UH 1 316     -48.547 146.029   7.989  1.00 73.05     0.020 C 
HETATM   18  C18 8UH 1 316     -47.823 147.392  12.570  1.00 72.13     0.044 C 
HETATM   19  C19 8UH 1 316     -43.732 146.250   9.937  1.00 70.45     0.048 C 
HETATM   20  C20 8UH 1 316     -40.391 142.053  10.275  1.00 72.89     0.048 C 
HETATM   21  O3  8UH 1 316     -52.296 147.520  10.520  1.00 71.04    -0.395 OA
ATOM     22  H3  8UH 1 316     -52.832 147.053   9.890  1.00  0.00     0.210 HD
HETATM   23  C21 8UH 1 316     -33.347 129.390   6.599  1.00 45.52    -0.018 C 
HETATM   24  C22 8UH 1 316     -32.406 130.388   5.929  1.00 45.52     0.045 C 
HETATM   25  C23 8UH 1 316     -31.680 131.311   6.900  1.00 45.52     0.123 C 
HETATM   26  C24 8UH 1 316     -31.420 130.576   8.201  1.00 45.52     0.066 C 
HETATM   27  C25 8UH 1 316     -32.764 130.291   8.809  1.00 45.52    -0.074 C 
HETATM   28  C26 8UH 1 316     -33.710 129.783   8.008  1.00 45.52    -0.048 C 
HETATM   29  C27 8UH 1 316     -35.128 129.886   8.362  1.00 45.52     0.009 C 
HETATM   30  C28 8UH 1 316     -35.447 131.176   8.488  1.00 45.52     0.007 C 
HETATM   31  C29 8UH 1 316     -36.834 131.638   8.685  1.00 94.72    -0.062 C 
HETATM   32  C30 8UH 1 316     -37.048 132.957   8.784  1.00 91.32     0.007 C 
HETATM   33  C31 8UH 1 316     -38.368 133.558   8.960  1.00 87.88     0.001 C 
HETATM   34  C32 8UH 1 316     -38.396 134.873   9.155  1.00 84.19     0.007 C 
HETATM   35  C33 8UH 1 316     -39.631 135.659   9.322  1.00 80.79    -0.062 C 
HETATM   36  C34 8UH 1 316     -39.524 136.979   9.563  1.00 78.84     0.007 C 
HETATM   37  C35 8UH 1 316     -40.695 137.840   9.707  1.00 76.79     0.001 C 
HETATM   38  C36 8UH 1 316     -32.662 128.033   6.691  1.00 45.52     0.020 C 
HETATM   39  C37 8UH 1 316     -34.632 129.254   5.796  1.00 45.52     0.020 C 
HETATM   40  C38 8UH 1 316     -32.995 130.749  10.229  1.00 45.52     0.044 C 
HETATM   41  C39 8UH 1 316     -37.967 130.660   8.757  1.00 95.37     0.048 C 
HETATM   42  C40 8UH 1 316     -40.972 134.999   9.200  1.00 90.13     0.048 C 
HETATM   43  O23 8UH 1 316     -30.431 131.727   6.340  1.00 45.52    -0.395 OA
ATOM     44  H23 8UH 1 316     -29.979 132.303   6.946  1.00  0.00     0.210 HD
ENDROOT
TORSDOF 12
