REMARK VINA RESULT:   -10.872      0.000      0.000
REMARK INTER + INTRA:         -13.768
REMARK INTER:                 -10.872
REMARK INTRA:                  -2.896
REMARK UNBOUND:                -2.896
REMARK  0 active torsions:
REMARK  status: ('A' for Active; 'I' for Inactive)
REMARK       I    between atoms: C3_3  and  O3_21 
REMARK       I    between atoms: C6_6  and  C7_7 
REMARK       I    between atoms: C8_8  and  C9_9 
REMARK       I    between atoms: C10_10  and  C11_11 
REMARK       I    between atoms: C12_12  and  C13_13 
REMARK       I    between atoms: C14_14  and  C15_15 
REMARK       I    between atoms: C23_25  and  O23_43 
REMARK       I    between atoms: C26_28  and  C27_29 
REMARK       I    between atoms: C28_30  and  C29_31 
REMARK       I    between atoms: C30_32  and  C31_33 
REMARK       I    between atoms: C32_34  and  C33_35 
REMARK       I    between atoms: C34_36  and  C35_37 
ROOT
HETATM    1  C1  8UH X1620     -33.737 129.304   7.066  1.00 33.88    -0.022 C 
HETATM    2  C2  8UH X1620     -32.943 130.059   6.010  1.00 33.88     0.045 C 
HETATM    3  C3  8UH X1620     -32.126 131.216   6.547  1.00 33.88     0.119 C 
HETATM    4  C4  8UH X1620     -31.224 130.660   7.628  1.00 33.88     0.040 C 
HETATM    5  C5  8UH X1620     -32.068 130.081   8.735  1.00 33.88     0.013 C 
HETATM    6  C6  8UH X1620     -33.329 129.715   8.480  1.00 33.88    -0.068 C 
HETATM    7  C7  8UH X1620     -34.399 130.006   9.442  1.00 33.88     0.004 C 
HETATM    8  C8  8UH X1620     -34.958 131.171   9.091  1.00 33.88     0.007 C 
HETATM    9  C9  8UH X1620     -36.041 131.828   9.870  1.00 33.88    -0.062 C 
HETATM   10  C10 8UH X1620     -36.496 133.008   9.385  1.00 33.88     0.007 C 
HETATM   11  C11 8UH X1620     -37.577 133.774   9.995  1.00 33.88     0.001 C 
HETATM   12  C12 8UH X1620     -38.006 134.894   9.433  1.00 33.88     0.007 C 
HETATM   13  C13 8UH X1620     -39.147 135.636  10.000  1.00 33.88    -0.062 C 
HETATM   14  C14 8UH X1620     -39.598 136.664   9.264  1.00 33.88     0.007 C 
HETATM   15  C15 8UH X1620     -40.756 137.493   9.596  1.00 33.88     0.001 C 
HETATM   16  C16 8UH X1620     -33.564 127.828   6.712  1.00 33.88     0.019 C 
HETATM   17  C17 8UH X1620     -35.201 129.691   6.870  1.00 33.88     0.019 C 
HETATM   18  C18 8UH X1620     -31.693 131.034   9.841  1.00 33.88     0.015 C 
HETATM   19  C19 8UH X1620     -36.594 131.179  11.120  1.00 33.88     0.048 C 
HETATM   20  C20 8UH X1620     -39.785 135.164  11.280  1.00 33.88     0.048 C 
HETATM   21  O3  8UH X1620     -31.345 131.717   5.457  1.00 33.88    -0.396 OA
ATOM     22  H3  8UH X1620     -30.832 132.443   5.794  1.00  0.00     0.210 HD
HETATM   23  C21 8UH X1620     -50.679 144.944   8.711  1.00 32.28    -0.018 C 
HETATM   24  C22 8UH X1620     -51.787 145.161   9.727  1.00 32.10     0.045 C 
HETATM   25  C23 8UH X1620     -51.404 145.843  11.020  1.00 30.03     0.123 C 
HETATM   26  C24 8UH X1620     -50.491 147.017  10.798  1.00 27.01     0.066 C 
HETATM   27  C25 8UH X1620     -49.311 146.642   9.959  1.00 26.85    -0.074 C 
HETATM   28  C26 8UH X1620     -49.378 145.671   9.033  1.00 32.38    -0.048 C 
HETATM   29  C27 8UH X1620     -48.154 145.289   8.285  1.00 31.45     0.009 C 
HETATM   30  C28 8UH X1620     -47.376 144.295   8.710  1.00 30.07     0.007 C 
HETATM   31  C29 8UH X1620     -46.146 143.859   8.025  1.00 33.88    -0.062 C 
HETATM   32  C30 8UH X1620     -45.552 142.766   8.552  1.00 33.88     0.007 C 
HETATM   33  C31 8UH X1620     -44.346 142.116   8.034  1.00 33.88     0.001 C 
HETATM   34  C32 8UH X1620     -43.884 141.038   8.676  1.00 33.88     0.007 C 
HETATM   35  C33 8UH X1620     -42.677 140.303   8.234  1.00 33.88    -0.062 C 
HETATM   36  C34 8UH X1620     -42.263 139.283   9.013  1.00 33.88     0.007 C 
HETATM   37  C35 8UH X1620     -41.098 138.446   8.732  1.00 33.88     0.001 C 
HETATM   38  C36 8UH X1620     -51.291 145.373   7.381  1.00 30.09     0.020 C 
HETATM   39  C37 8UH X1620     -50.370 143.455   8.655  1.00 35.00     0.020 C 
HETATM   40  C38 8UH X1620     -48.032 147.304  10.373  1.00 25.72     0.044 C 
HETATM   41  C39 8UH X1620     -45.656 144.573   6.788  1.00 33.88     0.048 C 
HETATM   42  C40 8UH X1620     -42.013 140.695   6.940  1.00 33.88     0.048 C 
HETATM   43  O23 8UH X1620     -52.593 146.349  11.630  1.00 33.60    -0.395 OA
ATOM     44  H23 8UH X1620     -52.353 146.778  12.443  1.00  0.00     0.210 HD
ENDROOT
TORSDOF 12
