REMARK VINA RESULT:   -12.372      0.000      0.000
REMARK INTER + INTRA:         -12.482
REMARK INTER:                 -12.372
REMARK INTRA:                  -0.110
REMARK UNBOUND:                -0.110
REMARK  0 active torsions:
REMARK  status: ('A' for Active; 'I' for Inactive)
REMARK       I    between atoms: C3_3  and  O3_21 
REMARK       I    between atoms: C6_6  and  C7_7 
REMARK       I    between atoms: C8_8  and  C9_9 
REMARK       I    between atoms: C10_10  and  C11_11 
REMARK       I    between atoms: C12_12  and  C13_13 
REMARK       I    between atoms: C14_14  and  C15_15 
REMARK       I    between atoms: C23_25  and  O23_43 
REMARK       I    between atoms: C26_28  and  C27_29 
REMARK       I    between atoms: C28_30  and  C29_31 
REMARK       I    between atoms: C30_32  and  C31_33 
REMARK       I    between atoms: C32_34  and  C33_35 
REMARK       I    between atoms: C34_36  and  C35_37 
ROOT
HETATM    1  C1  8UH 61620     -49.925 144.150  12.546  1.00 97.95    -0.018 C 
HETATM    2  C2  8UH 61620     -50.298 144.576  13.962  1.00 97.95     0.045 C 
HETATM    3  C3  8UH 61620     -49.578 145.782  14.540  1.00 97.95     0.123 C 
HETATM    4  C4  8UH 61620     -49.317 146.833  13.487  1.00 97.95     0.066 C 
HETATM    5  C5  8UH 61620     -48.538 146.214  12.366  1.00 97.95    -0.074 C 
HETATM    6  C6  8UH 61620     -48.838 144.993  11.908  1.00 97.95    -0.048 C 
HETATM    7  C7  8UH 61620     -48.109 144.423  10.749  1.00 97.95     0.009 C 
HETATM    8  C8  8UH 61620     -46.992 143.716  10.913  1.00 97.95     0.007 C 
HETATM    9  C9  8UH 61620     -46.261 143.128   9.789  1.00 97.95    -0.062 C 
HETATM   10  C10 8UH 61620     -45.211 142.371  10.095  1.00 97.95     0.007 C 
HETATM   11  C11 8UH 61620     -44.388 141.703   9.102  1.00 97.95     0.001 C 
HETATM   12  C12 8UH 61620     -43.389 141.006   9.614  1.00 97.95     0.007 C 
HETATM   13  C13 8UH 61620     -42.447 140.224   8.805  1.00 97.95    -0.062 C 
HETATM   14  C14 8UH 61620     -41.722 139.332   9.478  1.00 97.95     0.007 C 
HETATM   15  C15 8UH 61620     -40.770 138.441   8.844  1.00 97.95     0.001 C 
HETATM   16  C16 8UH 61620     -51.210 144.178  11.723  1.00 97.95     0.020 C 
HETATM   17  C17 8UH 61620     -49.414 142.716  12.605  1.00 97.95     0.020 C 
HETATM   18  C18 8UH 61620     -47.511 147.097  11.721  1.00 97.95     0.044 C 
HETATM   19  C19 8UH 61620     -46.684 143.368   8.372  1.00 97.95     0.048 C 
HETATM   20  C20 8UH 61620     -42.321 140.402   7.323  1.00 97.95     0.048 C 
HETATM   21  O3  8UH 61620     -50.397 146.369  15.558  1.00 97.95    -0.395 OA
ATOM     22  H3  8UH 61620     -49.946 147.123  15.920  1.00  0.00     0.210 HD
HETATM   23  C21 8UH 61620     -34.178 128.022   7.022  1.00 25.46    -0.018 C 
HETATM   24  C22 8UH 61620     -33.490 127.478   5.774  1.00 25.46     0.045 C 
HETATM   25  C23 8UH 61620     -32.323 128.278   5.221  1.00 25.46     0.123 C 
HETATM   26  C24 8UH 61620     -31.489 128.832   6.355  1.00 25.46     0.066 C 
HETATM   27  C25 8UH 61620     -32.378 129.720   7.174  1.00 25.46    -0.074 C 
HETATM   28  C26 8UH 61620     -33.564 129.280   7.609  1.00 25.46    -0.048 C 
HETATM   29  C27 8UH 61620     -34.281 129.986   8.709  1.00 25.46     0.009 C 
HETATM   30  C28 8UH 61620     -35.082 131.029   8.476  1.00 25.46     0.007 C 
HETATM   31  C29 8UH 61620     -35.815 131.755   9.509  1.00 97.95    -0.062 C 
HETATM   32  C30 8UH 61620     -36.578 132.755   9.078  1.00 97.95     0.007 C 
HETATM   33  C31 8UH 61620     -37.402 133.600   9.919  1.00 97.95     0.001 C 
HETATM   34  C32 8UH 61620     -38.043 134.524   9.225  1.00 97.95     0.007 C 
HETATM   35  C33 8UH 61620     -38.947 135.494   9.837  1.00 97.95    -0.062 C 
HETATM   36  C34 8UH 61620     -39.514 136.390   9.029  1.00 97.95     0.007 C 
HETATM   37  C35 8UH 61620     -40.437 137.376   9.558  1.00 97.95     0.001 C 
HETATM   38  C36 8UH 61620     -34.230 126.891   8.043  1.00 25.46     0.020 C 
HETATM   39  C37 8UH 61620     -35.593 128.398   6.628  1.00 25.46     0.020 C 
HETATM   40  C38 8UH 61620     -31.566 130.715   7.940  1.00 25.46     0.044 C 
HETATM   41  C39 8UH 61620     -35.720 131.385  10.958  1.00 97.95     0.048 C 
HETATM   42  C40 8UH 61620     -39.215 135.473  11.308  1.00 97.95     0.048 C 
HETATM   43  O23 8UH 61620     -31.514 127.408   4.425  1.00 25.46    -0.395 OA
ATOM     44  H23 8UH 61620     -32.038 127.061   3.714  1.00  0.00     0.210 HD
ENDROOT
TORSDOF 12
