REMARK VINA RESULT:    -6.363      2.130      3.913
REMARK INTER + INTRA:          -7.532
REMARK INTER:                  -5.774
REMARK INTRA:                  -1.758
REMARK UNBOUND:                -1.169
REMARK  0 active torsions:
REMARK  status: ('A' for Active; 'I' for Inactive)
REMARK       I    between atoms: C3_3  and  O3_21 
REMARK       I    between atoms: C6_6  and  C7_7 
REMARK       I    between atoms: C8_8  and  C9_9 
REMARK       I    between atoms: C10_10  and  C11_11 
REMARK       I    between atoms: C12_12  and  C13_13 
REMARK       I    between atoms: C14_14  and  C15_15 
REMARK       I    between atoms: C23_25  and  O23_43 
REMARK       I    between atoms: C26_28  and  C27_29 
REMARK       I    between atoms: C28_30  and  C29_31 
REMARK       I    between atoms: C30_32  and  C31_33 
REMARK       I    between atoms: C32_34  and  C33_35 
REMARK       I    between atoms: C34_36  and  C35_37 
ROOT
HETATM    1  C1  8UH 2 615     -48.117 150.211   9.158  1.00 79.94    -0.018 C 
HETATM    2  C2  8UH 2 615     -49.275 151.014   8.569  1.00 79.60     0.045 C 
HETATM    3  C3  8UH 2 615     -50.654 150.385   8.708  1.00 80.06     0.123 C 
HETATM    4  C4  8UH 2 615     -50.877 149.949  10.142  1.00 79.91     0.066 C 
HETATM    5  C5  8UH 2 615     -49.802 148.971  10.533  1.00 78.96    -0.074 C 
HETATM    6  C6  8UH 2 615     -48.530 149.154  10.165  1.00 78.99    -0.048 C 
HETATM    7  C7  8UH 2 615     -47.482 148.297  10.766  1.00 78.77     0.009 C 
HETATM    8  C8  8UH 2 615     -47.264 147.063  10.308  1.00 79.10     0.007 C 
HETATM    9  C9  8UH 2 615     -46.228 146.189  10.891  1.00 80.39    -0.062 C 
HETATM   10  C10 8UH 2 615     -46.084 144.951  10.397  1.00 81.39     0.007 C 
HETATM   11  C11 8UH 2 615     -45.089 144.004  10.895  1.00 81.92     0.001 C 
HETATM   12  C12 8UH 2 615     -44.992 142.836  10.267  1.00 82.76     0.007 C 
HETATM   13  C13 8UH 2 615     -44.021 141.796  10.653  1.00 83.90    -0.062 C 
HETATM   14  C14 8UH 2 615     -43.778 140.806   9.781  1.00 84.98     0.007 C 
HETATM   15  C15 8UH 2 615     -42.818 139.738  10.045  1.00 86.34     0.001 C 
HETATM   16  C16 8UH 2 615     -47.164 151.189   9.834  1.00 79.93     0.020 C 
HETATM   17  C17 8UH 2 615     -47.389 149.505   8.019  1.00 80.89     0.020 C 
HETATM   18  C18 8UH 2 615     -50.144 148.085  11.695  1.00 77.35     0.044 C 
HETATM   19  C19 8UH 2 615     -45.365 146.678  12.016  1.00 80.43     0.048 C 
HETATM   20  C20 8UH 2 615     -43.325 141.847  11.981  1.00 83.80     0.048 C 
HETATM   21  O3  8UH 2 615     -51.651 151.350   8.351  1.00 80.93    -0.395 OA
ATOM     22  H3  8UH 2 615     -52.512 150.957   8.438  1.00  0.00     0.210 HD
HETATM   23  C21 8UH 2 615     -34.898 130.376   7.634  1.00 48.79    -0.018 C 
HETATM   24  C22 8UH 2 615     -33.897 129.833   8.645  1.00 49.38     0.045 C 
HETATM   25  C23 8UH 2 615     -34.030 128.364   9.039  1.00 51.85     0.123 C 
HETATM   26  C24 8UH 2 615     -35.464 127.938   9.298  1.00 54.16     0.066 C 
HETATM   27  C25 8UH 2 615     -36.517 128.697   8.539  1.00 52.93    -0.074 C 
HETATM   28  C26 8UH 2 615     -36.302 129.863   7.907  1.00 53.44    -0.048 C 
HETATM   29  C27 8UH 2 615     -37.456 130.674   7.432  1.00 56.18     0.009 C 
HETATM   30  C28 8UH 2 615     -37.924 131.717   8.122  1.00 54.04     0.007 C 
HETATM   31  C29 8UH 2 615     -39.047 132.544   7.665  1.00 89.92    -0.062 C 
HETATM   32  C30 8UH 2 615     -39.333 133.659   8.351  1.00 89.40     0.007 C 
HETATM   33  C31 8UH 2 615     -40.410 134.570   7.981  1.00 87.93     0.001 C 
HETATM   34  C32 8UH 2 615     -40.549 135.658   8.731  1.00 87.59     0.007 C 
HETATM   35  C33 8UH 2 615     -41.573 136.686   8.476  1.00 88.80    -0.062 C 
HETATM   36  C34 8UH 2 615     -41.678 137.721   9.325  1.00 88.99     0.007 C 
HETATM   37  C35 8UH 2 615     -42.649 138.792   9.122  1.00 88.02     0.001 C 
HETATM   38  C36 8UH 2 615     -34.457 130.001   6.228  1.00 50.92     0.020 C 
HETATM   39  C37 8UH 2 615     -34.879 131.899   7.726  1.00 48.05     0.020 C 
HETATM   40  C38 8UH 2 615     -37.864 128.309   9.056  1.00 55.82     0.044 C 
HETATM   41  C39 8UH 2 615     -39.846 132.156   6.455  1.00 89.99     0.048 C 
HETATM   42  C40 8UH 2 615     -42.470 136.580   7.279  1.00 89.61     0.048 C 
HETATM   43  O23 8UH 2 615     -33.421 127.494   8.075  1.00 50.70    -0.395 OA
ATOM     44  H23 8UH 2 615     -33.504 126.580   8.320  1.00  0.00     0.210 HD
ENDROOT
TORSDOF 12
