REMARK VINA RESULT:    -9.408      1.725     16.770
REMARK INTER + INTRA:         -12.682
REMARK INTER:                 -10.662
REMARK INTRA:                  -2.020
REMARK UNBOUND:                -3.274
REMARK  0 active torsions:
REMARK  status: ('A' for Active; 'I' for Inactive)
REMARK       I    between atoms: C3_3  and  O3_21 
REMARK       I    between atoms: C6_6  and  C7_7 
REMARK       I    between atoms: C8_8  and  C9_9 
REMARK       I    between atoms: C10_10  and  C11_11 
REMARK       I    between atoms: C12_12  and  C13_13 
REMARK       I    between atoms: C14_14  and  C15_15 
REMARK       I    between atoms: C23_25  and  O23_43 
REMARK       I    between atoms: C26_28  and  C27_29 
REMARK       I    between atoms: C28_30  and  C29_31 
REMARK       I    between atoms: C30_32  and  C31_33 
REMARK       I    between atoms: C32_34  and  C33_35 
REMARK       I    between atoms: C34_36  and  C35_37 
ROOT
HETATM    1  C1  8UH N1621     -47.953 145.824  12.771  1.00 51.88    -0.018 C 
HETATM    2  C2  8UH N1621     -48.728 145.980  14.073  1.00 51.88     0.045 C 
HETATM    3  C3  8UH N1621     -47.996 146.625  15.228  1.00 51.88     0.123 C 
HETATM    4  C4  8UH N1621     -47.163 147.779  14.726  1.00 51.88     0.066 C 
HETATM    5  C5  8UH N1621     -46.175 147.271  13.719  1.00 51.88    -0.074 C 
HETATM    6  C6  8UH N1621     -46.556 146.416  12.768  1.00 51.88    -0.048 C 
HETATM    7  C7  8UH N1621     -45.651 146.002  11.663  1.00 51.88     0.009 C 
HETATM    8  C8  8UH N1621     -44.756 145.022  11.802  1.00 51.88     0.007 C 
HETATM    9  C9  8UH N1621     -43.877 144.549  10.725  1.00 51.88    -0.062 C 
HETATM   10  C10 8UH N1621     -43.360 143.335  10.918  1.00 51.88     0.007 C 
HETATM   11  C11 8UH N1621     -42.497 142.603  10.006  1.00 51.88     0.001 C 
HETATM   12  C12 8UH N1621     -42.149 141.397  10.436  1.00 51.88     0.007 C 
HETATM   13  C13 8UH N1621     -41.328 140.476   9.640  1.00 51.88    -0.062 C 
HETATM   14  C14 8UH N1621     -41.006 139.288  10.167  1.00 51.88     0.007 C 
HETATM   15  C15 8UH N1621     -40.226 138.312   9.417  1.00 51.88     0.001 C 
HETATM   16  C16 8UH N1621     -48.805 146.407  11.655  1.00 51.88     0.020 C 
HETATM   17  C17 8UH N1621     -47.813 144.342  12.511  1.00 51.88     0.020 C 
HETATM   18  C18 8UH N1621     -44.867 147.999  13.682  1.00 51.88     0.044 C 
HETATM   19  C19 8UH N1621     -43.591 145.363   9.503  1.00 51.88     0.048 C 
HETATM   20  C20 8UH N1621     -40.908 140.858   8.255  1.00 51.88     0.048 C 
HETATM   21  O3  8UH N1621     -48.959 147.141  16.151  1.00 51.88    -0.395 OA
ATOM     22  H3  8UH N1621     -48.499 147.546  16.877  1.00  0.00     0.210 HD
HETATM   23  C21 8UH N1621     -34.353 127.180   6.707  1.00 48.43    -0.018 C 
HETATM   24  C22 8UH N1621     -33.828 126.411   5.501  1.00 44.61     0.045 C 
HETATM   25  C23 8UH N1621     -32.919 127.178   4.561  1.00 44.41     0.123 C 
HETATM   26  C24 8UH N1621     -31.950 128.039   5.333  1.00 41.53     0.066 C 
HETATM   27  C25 8UH N1621     -32.745 129.003   6.155  1.00 37.72    -0.074 C 
HETATM   28  C26 8UH N1621     -33.768 128.570   6.891  1.00 43.52    -0.048 C 
HETATM   29  C27 8UH N1621     -34.371 129.408   7.953  1.00 44.60     0.009 C 
HETATM   30  C28 8UH N1621     -35.266 130.352   7.687  1.00 43.22     0.007 C 
HETATM   31  C29 8UH N1621     -35.888 131.145   8.760  1.00 51.88    -0.062 C 
HETATM   32  C30 8UH N1621     -36.849 132.002   8.397  1.00 51.88     0.007 C 
HETATM   33  C31 8UH N1621     -37.577 132.870   9.314  1.00 51.88     0.001 C 
HETATM   34  C32 8UH N1621     -37.951 134.063   8.855  1.00 51.88     0.007 C 
HETATM   35  C33 8UH N1621     -38.695 135.017   9.690  1.00 51.88    -0.062 C 
HETATM   36  C34 8UH N1621     -39.065 136.210   9.200  1.00 51.88     0.007 C 
HETATM   37  C35 8UH N1621     -39.819 137.181   9.989  1.00 51.88     0.001 C 
HETATM   38  C36 8UH N1621     -34.103 126.281   7.913  1.00 47.48     0.020 C 
HETATM   39  C37 8UH N1621     -35.844 127.409   6.547  1.00 54.25     0.020 C 
HETATM   40  C38 8UH N1621     -31.962 130.223   6.509  1.00 37.77     0.044 C 
HETATM   41  C39 8UH N1621     -35.453 130.990  10.184  1.00 51.88     0.048 C 
HETATM   42  C40 8UH N1621     -39.027 134.625  11.086  1.00 51.88     0.048 C 
HETATM   43  O23 8UH N1621     -32.178 126.247   3.771  1.00 48.83    -0.395 OA
ATOM     44  H23 8UH N1621     -31.609 126.728   3.182  1.00  0.00     0.210 HD
ENDROOT
TORSDOF 12
