REMARK VINA RESULT:    -7.808      1.861      2.964
REMARK INTER + INTRA:         -11.811
REMARK INTER:                  -9.704
REMARK INTRA:                  -2.107
REMARK UNBOUND:                -4.004
REMARK  0 active torsions:
REMARK  status: ('A' for Active; 'I' for Inactive)
REMARK       I    between atoms: C3_3  and  O3_21 
REMARK       I    between atoms: C6_6  and  C7_7 
REMARK       I    between atoms: C8_8  and  C9_9 
REMARK       I    between atoms: C10_10  and  C11_11 
REMARK       I    between atoms: C12_12  and  C13_13 
REMARK       I    between atoms: C14_14  and  C15_15 
REMARK       I    between atoms: C23_25  and  O23_43 
REMARK       I    between atoms: C26_28  and  C27_29 
REMARK       I    between atoms: C28_30  and  C29_31 
REMARK       I    between atoms: C30_32  and  C31_33 
REMARK       I    between atoms: C32_34  and  C33_35 
REMARK       I    between atoms: C34_36  and  C35_37 
ROOT
HETATM    1  C1  8UH D3621     -46.767 148.125   9.774  1.00 23.41    -0.018 C 
HETATM    2  C2  8UH D3621     -48.186 148.714   9.860  1.00 23.79     0.045 C 
HETATM    3  C3  8UH D3621     -48.989 148.616  11.154  1.00 23.28     0.123 C 
HETATM    4  C4  8UH D3621     -48.133 148.355  12.404  1.00 23.70     0.066 C 
HETATM    5  C5  8UH D3621     -46.744 147.796  12.285  1.00 23.84    -0.074 C 
HETATM    6  C6  8UH D3621     -46.067 147.674  11.088  1.00 22.99    -0.048 C 
HETATM    7  C7  8UH D3621     -44.688 147.135  10.943  1.00 20.55     0.009 C 
HETATM    8  C8  8UH D3621     -44.374 145.822  10.909  1.00 19.35     0.007 C 
HETATM    9  C9  8UH D3621     -43.066 145.166  10.828  1.00 18.45    -0.062 C 
HETATM   10  C10 8UH D3621     -43.054 143.824  10.676  1.00 18.11     0.007 C 
HETATM   11  C11 8UH D3621     -41.904 142.986  10.486  1.00 18.44     0.001 C 
HETATM   12  C12 8UH D3621     -42.008 141.656  10.261  1.00 19.34     0.007 C 
HETATM   13  C13 8UH D3621     -40.894 140.739   9.956  1.00 20.12    -0.062 C 
HETATM   14  C14 8UH D3621     -41.176 139.434   9.727  1.00 19.73     0.007 C 
HETATM   15  C15 8UH D3621     -40.238 138.376   9.358  1.00 19.24     0.001 C 
HETATM   16  C16 8UH D3621     -45.996 149.277   9.119  1.00 23.73     0.020 C 
HETATM   17  C17 8UH D3621     -46.812 146.959   8.778  1.00 23.42     0.020 C 
HETATM   18  C18 8UH D3621     -46.241 147.447  13.638  1.00 22.78     0.044 C 
HETATM   19  C19 8UH D3621     -41.844 146.032  10.842  1.00 16.12     0.048 C 
HETATM   20  C20 8UH D3621     -39.515 141.336   9.894  1.00 17.75     0.048 C 
HETATM   21  O3  8UH D3621     -49.784 149.780  11.327  1.00 21.52    -0.395 OA
ATOM     22  H3  8UH D3621     -50.284 149.719  12.132  1.00  0.00     0.210 HD
HETATM   23  C21 8UH D3621     -34.403 127.083   6.184  1.00 38.90    -0.018 C 
HETATM   24  C22 8UH D3621     -33.558 127.435   4.962  1.00 38.90     0.045 C 
HETATM   25  C23 8UH D3621     -32.442 128.447   5.205  1.00 38.90     0.123 C 
HETATM   26  C24 8UH D3621     -32.074 128.482   6.677  1.00 38.90     0.066 C 
HETATM   27  C25 8UH D3621     -33.317 128.912   7.399  1.00 38.90    -0.074 C 
HETATM   28  C26 8UH D3621     -34.415 128.169   7.234  1.00 38.90    -0.048 C 
HETATM   29  C27 8UH D3621     -35.687 128.531   7.884  1.00 38.90     0.009 C 
HETATM   30  C28 8UH D3621     -35.990 129.820   7.744  1.00 38.90     0.007 C 
HETATM   31  C29 8UH D3621     -37.320 130.397   8.139  1.00 21.21    -0.062 C 
HETATM   32  C30 8UH D3621     -37.492 131.733   7.998  1.00 20.08     0.007 C 
HETATM   33  C31 8UH D3621     -38.682 132.481   8.331  1.00 17.89     0.001 C 
HETATM   34  C32 8UH D3621     -38.719 133.836   8.364  1.00 17.64     0.007 C 
HETATM   35  C33 8UH D3621     -39.853 134.714   8.741  1.00 17.45    -0.062 C 
HETATM   36  C34 8UH D3621     -39.626 136.048   8.818  1.00 15.95     0.007 C 
HETATM   37  C35 8UH D3621     -40.573 137.080   9.209  1.00 18.41     0.001 C 
HETATM   38  C36 8UH D3621     -33.805 125.850   6.859  1.00 38.90     0.020 C 
HETATM   39  C37 8UH D3621     -35.834 126.779   5.759  1.00 38.90     0.020 C 
HETATM   40  C38 8UH D3621     -33.074 129.782   8.610  1.00 38.90     0.044 C 
HETATM   41  C39 8UH D3621     -38.349 129.479   8.745  1.00 22.05     0.048 C 
HETATM   42  C40 8UH D3621     -41.164 134.052   9.085  1.00 11.49     0.048 C 
HETATM   43  O23 8UH D3621     -31.283 128.092   4.447  1.00 38.90    -0.395 OA
ATOM     44  H23 8UH D3621     -31.513 128.070   3.526  1.00  0.00     0.210 HD
ENDROOT
TORSDOF 12
