REMARK VINA RESULT:   -10.562      0.852     16.292
REMARK INTER + INTRA:         -13.081
REMARK INTER:                 -10.798
REMARK INTRA:                  -2.283
REMARK UNBOUND:                -2.519
REMARK  0 active torsions:
REMARK  status: ('A' for Active; 'I' for Inactive)
REMARK       I    between atoms: C3_3  and  O3_21 
REMARK       I    between atoms: C6_6  and  C7_7 
REMARK       I    between atoms: C8_8  and  C9_9 
REMARK       I    between atoms: C10_10  and  C11_11 
REMARK       I    between atoms: C12_12  and  C13_13 
REMARK       I    between atoms: C14_14  and  C15_15 
REMARK       I    between atoms: C23_25  and  O23_43 
REMARK       I    between atoms: C26_28  and  C27_29 
REMARK       I    between atoms: C28_30  and  C29_31 
REMARK       I    between atoms: C30_32  and  C31_33 
REMARK       I    between atoms: C32_34  and  C33_35 
REMARK       I    between atoms: C34_36  and  C35_37 
ROOT
HETATM    1  C1  8UH Y1620     -49.533 144.113  11.360  1.00 33.25    -0.018 C 
HETATM    2  C2  8UH Y1620     -50.069 144.237  12.778  1.00 33.25     0.045 C 
HETATM    3  C3  8UH Y1620     -49.320 145.158  13.724  1.00 33.25     0.123 C 
HETATM    4  C4  8UH Y1620     -48.773 146.355  13.000  1.00 33.25     0.066 C 
HETATM    5  C5  8UH Y1620     -47.893 145.913  11.887  1.00 33.25    -0.074 C 
HETATM    6  C6  8UH Y1620     -48.248 144.885  11.117  1.00 33.25    -0.048 C 
HETATM    7  C7  8UH Y1620     -47.377 144.494   9.994  1.00 33.25     0.009 C 
HETATM    8  C8  8UH Y1620     -46.463 143.554  10.172  1.00 33.25     0.007 C 
HETATM    9  C9  8UH Y1620     -45.569 143.103   9.114  1.00 33.25    -0.062 C 
HETATM   10  C10 8UH Y1620     -44.588 142.312   9.527  1.00 33.25     0.007 C 
HETATM   11  C11 8UH Y1620     -43.587 141.709   8.684  1.00 33.25     0.001 C 
HETATM   12  C12 8UH Y1620     -42.982 140.711   9.294  1.00 33.25     0.007 C 
HETATM   13  C13 8UH Y1620     -41.970 139.898   8.644  1.00 33.25    -0.062 C 
HETATM   14  C14 8UH Y1620     -41.487 138.875   9.335  1.00 33.25     0.007 C 
HETATM   15  C15 8UH Y1620     -40.526 137.977   8.736  1.00 33.25     0.001 C 
HETATM   16  C16 8UH Y1620     -50.662 144.539  10.426  1.00 33.25     0.020 C 
HETATM   17  C17 8UH Y1620     -49.243 142.643  11.120  1.00 33.25     0.020 C 
HETATM   18  C18 8UH Y1620     -46.661 146.733  11.665  1.00 33.25     0.044 C 
HETATM   19  C19 8UH Y1620     -45.762 143.523   7.692  1.00 33.25     0.048 C 
HETATM   20  C20 8UH Y1620     -41.537 140.193   7.248  1.00 33.25     0.048 C 
HETATM   21  O3  8UH Y1620     -50.221 145.651  14.713  1.00 33.25    -0.395 OA
ATOM     22  H3  8UH Y1620     -49.752 146.227  15.305  1.00  0.00     0.210 HD
HETATM   23  C21 8UH Y1620     -34.329 127.458   6.715  1.00 97.95    -0.018 C 
HETATM   24  C22 8UH Y1620     -33.751 127.004   5.379  1.00 97.95     0.045 C 
HETATM   25  C23 8UH Y1620     -32.517 127.730   4.869  1.00 97.95     0.123 C 
HETATM   26  C24 8UH Y1620     -31.585 128.106   5.999  1.00 97.95     0.066 C 
HETATM   27  C25 8UH Y1620     -32.339 128.936   6.993  1.00 97.95    -0.074 C 
HETATM   28  C26 8UH Y1620     -33.589 128.622   7.350  1.00 97.95    -0.048 C 
HETATM   29  C27 8UH Y1620     -34.296 129.408   8.390  1.00 97.95     0.009 C 
HETATM   30  C28 8UH Y1620     -35.017 130.482   8.074  1.00 97.95     0.007 C 
HETATM   31  C29 8UH Y1620     -35.731 131.256   9.078  1.00 33.25    -0.062 C 
HETATM   32  C30 8UH Y1620     -36.638 132.106   8.620  1.00 33.25     0.007 C 
HETATM   33  C31 8UH Y1620     -37.447 132.947   9.472  1.00 33.25     0.001 C 
HETATM   34  C32 8UH Y1620     -37.970 133.981   8.851  1.00 33.25     0.007 C 
HETATM   35  C33 8UH Y1620     -38.841 134.922   9.541  1.00 33.25    -0.062 C 
HETATM   36  C34 8UH Y1620     -39.319 135.932   8.828  1.00 33.25     0.007 C 
HETATM   37  C35 8UH Y1620     -40.232 136.887   9.413  1.00 33.25     0.001 C 
HETATM   38  C36 8UH Y1620     -34.341 126.238   7.630  1.00 97.95     0.020 C 
HETATM   39  C37 8UH Y1620     -35.765 127.908   6.480  1.00 97.95     0.020 C 
HETATM   40  C38 8UH Y1620     -31.558 130.040   7.644  1.00 97.95     0.044 C 
HETATM   41  C39 8UH Y1620     -35.449 131.107  10.540  1.00 33.25     0.048 C 
HETATM   42  C40 8UH Y1620     -39.193 134.727  10.978  1.00 33.25     0.048 C 
HETATM   43  O23 8UH Y1620     -31.806 126.866   3.976  1.00 97.95    -0.395 OA
ATOM     44  H23 8UH Y1620     -31.034 127.319   3.658  1.00  0.00     0.210 HD
ENDROOT
TORSDOF 12
