REMARK VINA RESULT:   -10.675      0.000      0.000
REMARK INTER + INTRA:         -13.338
REMARK INTER:                 -10.675
REMARK INTRA:                  -2.663
REMARK UNBOUND:                -2.663
REMARK  0 active torsions:
REMARK  status: ('A' for Active; 'I' for Inactive)
REMARK       I    between atoms: C3_3  and  O3_21 
REMARK       I    between atoms: C6_6  and  C7_7 
REMARK       I    between atoms: C8_8  and  C9_9 
REMARK       I    between atoms: C10_10  and  C11_11 
REMARK       I    between atoms: C12_12  and  C13_13 
REMARK       I    between atoms: C14_14  and  C15_15 
REMARK       I    between atoms: C23_25  and  O23_43 
REMARK       I    between atoms: C26_28  and  C27_29 
REMARK       I    between atoms: C28_30  and  C29_31 
REMARK       I    between atoms: C30_32  and  C31_33 
REMARK       I    between atoms: C32_34  and  C33_35 
REMARK       I    between atoms: C34_36  and  C35_37 
ROOT
HETATM    1  C1  8UH 6 621     -49.396 145.547   8.859  1.00 27.76    -0.018 C 
HETATM    2  C2  8UH 6 621     -50.864 145.387   9.244  1.00 27.76     0.045 C 
HETATM    3  C3  8UH 6 621     -51.272 145.511  10.707  1.00 27.76     0.123 C 
HETATM    4  C4  8UH 6 621     -50.315 146.373  11.502  1.00 27.76     0.066 C 
HETATM    5  C5  8UH 6 621     -48.912 145.881  11.277  1.00 27.76    -0.074 C 
HETATM    6  C6  8UH 6 621     -48.460 145.616  10.049  1.00 27.76    -0.048 C 
HETATM    7  C7  8UH 6 621     -47.005 145.407   9.843  1.00 27.76     0.009 C 
HETATM    8  C8  8UH 6 621     -46.435 144.198   9.868  1.00 27.76     0.007 C 
HETATM    9  C9  8UH 6 621     -44.984 144.028   9.672  1.00 27.76    -0.062 C 
HETATM   10  C10 8UH 6 621     -44.479 142.780   9.668  1.00 27.76     0.007 C 
HETATM   11  C11 8UH 6 621     -43.073 142.408   9.510  1.00 27.76     0.001 C 
HETATM   12  C12 8UH 6 621     -42.786 141.125   9.710  1.00 27.76     0.007 C 
HETATM   13  C13 8UH 6 621     -41.469 140.469   9.601  1.00 27.76    -0.062 C 
HETATM   14  C14 8UH 6 621     -41.475 139.131   9.520  1.00 27.76     0.007 C 
HETATM   15  C15 8UH 6 621     -40.285 138.301   9.370  1.00 27.76     0.001 C 
HETATM   16  C16 8UH 6 621     -49.291 146.792   7.982  1.00 27.76     0.020 C 
HETATM   17  C17 8UH 6 621     -48.982 144.340   8.032  1.00 27.76     0.020 C 
HETATM   18  C18 8UH 6 621     -47.974 146.203  12.404  1.00 27.76     0.044 C 
HETATM   19  C19 8UH 6 621     -44.132 145.242   9.490  1.00 27.76     0.048 C 
HETATM   20  C20 8UH 6 621     -40.189 141.241   9.575  1.00 27.76     0.048 C 
HETATM   21  O3  8UH 6 621     -52.578 146.089  10.789  1.00 27.76    -0.395 OA
ATOM     22  H3  8UH 6 621     -52.832 146.167  11.701  1.00  0.00     0.210 HD
HETATM   23  C21 8UH 6 621     -34.558 127.038   6.106  1.00 20.50    -0.018 C 
HETATM   24  C22 8UH 6 621     -33.567 127.002   4.949  1.00 20.50     0.045 C 
HETATM   25  C23 8UH 6 621     -32.367 127.921   5.047  1.00 20.50     0.123 C 
HETATM   26  C24 8UH 6 621     -32.083 128.242   6.493  1.00 20.50     0.066 C 
HETATM   27  C25 8UH 6 621     -33.313 128.903   7.018  1.00 20.50    -0.074 C 
HETATM   28  C26 8UH 6 621     -34.454 128.238   7.002  1.00 20.50    -0.048 C 
HETATM   29  C27 8UH 6 621     -35.680 128.723   7.647  1.00 20.50     0.009 C 
HETATM   30  C28 8UH 6 621     -35.921 130.031   7.673  1.00 20.50     0.007 C 
HETATM   31  C29 8UH 6 621     -37.259 130.524   8.098  1.00 27.76    -0.062 C 
HETATM   32  C30 8UH 6 621     -37.455 131.832   7.913  1.00 27.76     0.007 C 
HETATM   33  C31 8UH 6 621     -38.677 132.559   8.225  1.00 27.76     0.001 C 
HETATM   34  C32 8UH 6 621     -38.546 133.879   8.248  1.00 27.76     0.007 C 
HETATM   35  C33 8UH 6 621     -39.652 134.807   8.508  1.00 27.76    -0.062 C 
HETATM   36  C34 8UH 6 621     -39.395 136.111   8.705  1.00 27.76     0.007 C 
HETATM   37  C35 8UH 6 621     -40.484 137.058   8.935  1.00 27.76     0.001 C 
HETATM   38  C36 8UH 6 621     -34.315 125.850   7.018  1.00 20.50     0.020 C 
HETATM   39  C37 8UH 6 621     -35.946 126.918   5.525  1.00 20.50     0.020 C 
HETATM   40  C38 8UH 6 621     -32.907 129.726   8.187  1.00 20.50     0.044 C 
HETATM   41  C39 8UH 6 621     -38.309 129.629   8.683  1.00 27.76     0.048 C 
HETATM   42  C40 8UH 6 621     -41.049 134.282   8.513  1.00 27.76     0.048 C 
HETATM   43  O23 8UH 6 621     -31.270 127.219   4.479  1.00 20.50    -0.395 OA
ATOM     44  H23 8UH 6 621     -30.516 127.796   4.540  1.00  0.00     0.210 HD
ENDROOT
TORSDOF 12
