REMARK VINA RESULT:    -8.403      0.815     16.614
REMARK INTER + INTRA:         -10.674
REMARK INTER:                  -7.918
REMARK INTRA:                  -2.756
REMARK UNBOUND:                -2.271
REMARK  0 active torsions:
REMARK  status: ('A' for Active; 'I' for Inactive)
REMARK       I    between atoms: C3_3  and  O3_21 
REMARK       I    between atoms: C6_6  and  C7_7 
REMARK       I    between atoms: C8_8  and  C9_9 
REMARK       I    between atoms: C10_10  and  C11_11 
REMARK       I    between atoms: C12_12  and  C13_13 
REMARK       I    between atoms: C14_14  and  C15_15 
REMARK       I    between atoms: C23_25  and  O23_43 
REMARK       I    between atoms: C26_28  and  C27_29 
REMARK       I    between atoms: C28_30  and  C29_31 
REMARK       I    between atoms: C30_32  and  C31_33 
REMARK       I    between atoms: C32_34  and  C33_35 
REMARK       I    between atoms: C34_36  and  C35_37 
ROOT
HETATM    1  C1  8UH n1620     -34.510 126.808   6.153  1.00 57.79    -0.018 C 
HETATM    2  C2  8UH n1620     -33.810 125.950   5.114  1.00 59.26     0.045 C 
HETATM    3  C3  8UH n1620     -32.946 126.746   4.161  1.00 62.25     0.123 C 
HETATM    4  C4  8UH n1620     -31.878 127.462   4.948  1.00 57.83     0.066 C 
HETATM    5  C5  8UH n1620     -32.472 128.277   6.064  1.00 54.66    -0.074 C 
HETATM    6  C6  8UH n1620     -33.665 127.986   6.629  1.00 55.29    -0.048 C 
HETATM    7  C7  8UH n1620     -34.162 128.788   7.778  1.00 55.61     0.009 C 
HETATM    8  C8  8UH n1620     -34.836 129.930   7.627  1.00 56.19     0.007 C 
HETATM    9  C9  8UH n1620     -35.331 130.718   8.753  1.00 61.49    -0.062 C 
HETATM   10  C10 8UH n1620     -36.048 131.787   8.422  1.00 57.47     0.007 C 
HETATM   11  C11 8UH n1620     -36.647 132.703   9.368  1.00 53.29     0.001 C 
HETATM   12  C12 8UH n1620     -37.408 133.617   8.797  1.00 52.45     0.007 C 
HETATM   13  C13 8UH n1620     -38.134 134.616   9.575  1.00 52.04    -0.062 C 
HETATM   14  C14 8UH n1620     -39.061 135.316   8.922  1.00 54.29     0.007 C 
HETATM   15  C15 8UH n1620     -39.889 136.315   9.567  1.00 53.12     0.001 C 
HETATM   16  C16 8UH n1620     -34.917 125.850   7.267  1.00 58.39     0.020 C 
HETATM   17  C17 8UH n1620     -35.777 127.381   5.538  1.00 64.45     0.020 C 
HETATM   18  C18 8UH n1620     -31.591 129.411   6.501  1.00 58.11     0.044 C 
HETATM   19  C19 8UH n1620     -35.021 130.345  10.173  1.00 70.55     0.048 C 
HETATM   20  C20 8UH n1620     -37.852 134.810  11.030  1.00 53.04     0.048 C 
HETATM   21  O3  8UH n1620     -32.305 125.864   3.238  1.00 65.91    -0.395 OA
ATOM     22  H3  8UH n1620     -31.763 126.364   2.639  1.00  0.00     0.210 HD
HETATM   23  C21 8UH n1620     -49.861 143.927  10.974  1.00 13.75    -0.018 C 
HETATM   24  C22 8UH n1620     -50.751 144.677  11.955  1.00 13.75     0.045 C 
HETATM   25  C23 8UH n1620     -49.996 145.274  13.119  1.00 13.75     0.123 C 
HETATM   26  C24 8UH n1620     -48.929 146.188  12.577  1.00 13.75     0.066 C 
HETATM   27  C25 8UH n1620     -47.989 145.400  11.713  1.00 13.75    -0.074 C 
HETATM   28  C26 8UH n1620     -48.416 144.401  10.921  1.00 13.75    -0.048 C 
HETATM   29  C27 8UH n1620     -47.539 143.737   9.917  1.00 13.75     0.009 C 
HETATM   30  C28 8UH n1620     -46.627 142.795  10.193  1.00 13.75     0.007 C 
HETATM   31  C29 8UH n1620     -45.821 142.160   9.143  1.00 71.47    -0.062 C 
HETATM   32  C30 8UH n1620     -45.103 141.111   9.536  1.00 69.97     0.007 C 
HETATM   33  C31 8UH n1620     -44.255 140.311   8.674  1.00 65.68     0.001 C 
HETATM   34  C32 8UH n1620     -43.516 139.431   9.322  1.00 62.75     0.007 C 
HETATM   35  C33 8UH n1620     -42.615 138.500   8.641  1.00 61.08    -0.062 C 
HETATM   36  C34 8UH n1620     -41.771 137.798   9.400  1.00 59.90     0.007 C 
HETATM   37  C35 8UH n1620     -40.866 136.819   8.830  1.00 55.64     0.001 C 
HETATM   38  C36 8UH n1620     -50.529 144.049   9.613  1.00 13.75     0.020 C 
HETATM   39  C37 8UH n1620     -49.831 142.466  11.393  1.00 13.75     0.020 C 
HETATM   40  C38 8UH n1620     -46.636 146.020  11.595  1.00 13.75     0.044 C 
HETATM   41  C39 8UH n1620     -45.817 142.655   7.731  1.00 74.91     0.048 C 
HETATM   42  C40 8UH n1620     -42.674 138.334   7.154  1.00 55.73     0.048 C 
HETATM   43  O23 8UH n1620     -50.889 146.032  13.937  1.00 13.75    -0.395 OA
ATOM     44  H23 8UH n1620     -51.563 145.456  14.279  1.00  0.00     0.210 HD
ENDROOT
TORSDOF 12
