REMARK VINA RESULT:   -10.774      0.733     16.855
REMARK INTER + INTRA:         -10.822
REMARK INTER:                 -10.484
REMARK INTRA:                  -0.338
REMARK UNBOUND:                -0.048
REMARK  0 active torsions:
REMARK  status: ('A' for Active; 'I' for Inactive)
REMARK       I    between atoms: C3_3  and  O3_21 
REMARK       I    between atoms: C6_6  and  C7_7 
REMARK       I    between atoms: C8_8  and  C9_9 
REMARK       I    between atoms: C10_10  and  C11_11 
REMARK       I    between atoms: C12_12  and  C13_13 
REMARK       I    between atoms: C14_14  and  C15_15 
REMARK       I    between atoms: C23_25  and  O23_43 
REMARK       I    between atoms: C26_28  and  C27_29 
REMARK       I    between atoms: C28_30  and  C29_31 
REMARK       I    between atoms: C30_32  and  C31_33 
REMARK       I    between atoms: C32_34  and  C33_35 
REMARK       I    between atoms: C34_36  and  C35_37 
ROOT
HETATM    1  C1  8UH U1621     -50.795 145.581   9.490  1.00 20.50    -0.018 C 
HETATM    2  C2  8UH U1621     -51.642 145.526  10.754  1.00 20.50     0.045 C 
HETATM    3  C3  8UH U1621     -51.133 146.296  11.955  1.00 20.50     0.123 C 
HETATM    4  C4  8UH U1621     -50.228 147.416  11.500  1.00 20.50     0.066 C 
HETATM    5  C5  8UH U1621     -49.108 146.764  10.759  1.00 20.50    -0.074 C 
HETATM    6  C6  8UH U1621     -49.381 146.047   9.686  1.00 20.50    -0.048 C 
HETATM    7  C7  8UH U1621     -48.350 145.511   8.788  1.00 20.50     0.009 C 
HETATM    8  C8  8UH U1621     -47.185 145.126   9.302  1.00 20.50     0.007 C 
HETATM    9  C9  8UH U1621     -46.255 144.370   8.449  1.00 20.50    -0.062 C 
HETATM   10  C10 8UH U1621     -45.363 143.575   9.051  1.00 20.50     0.007 C 
HETATM   11  C11 8UH U1621     -44.486 142.656   8.335  1.00 20.50     0.001 C 
HETATM   12  C12 8UH U1621     -43.792 141.753   9.017  1.00 20.50     0.007 C 
HETATM   13  C13 8UH U1621     -42.953 140.751   8.335  1.00 20.50    -0.062 C 
HETATM   14  C14 8UH U1621     -42.410 139.778   9.077  1.00 20.50     0.007 C 
HETATM   15  C15 8UH U1621     -41.581 138.705   8.537  1.00 20.50     0.001 C 
HETATM   16  C16 8UH U1621     -51.401 146.576   8.517  1.00 20.50     0.020 C 
HETATM   17  C17 8UH U1621     -50.828 144.213   8.855  1.00 20.50     0.020 C 
HETATM   18  C18 8UH U1621     -47.951 147.698  10.801  1.00 20.50     0.044 C 
HETATM   19  C19 8UH U1621     -46.400 144.430   6.960  1.00 20.50     0.048 C 
HETATM   20  C20 8UH U1621     -42.771 140.850   6.853  1.00 20.50     0.048 C 
HETATM   21  O3  8UH U1621     -52.274 146.829  12.612  1.00 20.50    -0.395 OA
ATOM     22  H3  8UH U1621     -51.954 147.312  13.366  1.00  0.00     0.210 HD
HETATM   23  C21 8UH U1621     -34.000 128.370   7.436  1.00 21.49    -0.018 C 
HETATM   24  C22 8UH U1621     -33.150 127.532   6.467  1.00 20.69     0.045 C 
HETATM   25  C23 8UH U1621     -31.946 128.145   5.753  1.00 22.34     0.123 C 
HETATM   26  C24 8UH U1621     -31.547 129.560   6.217  1.00 20.89     0.066 C 
HETATM   27  C25 8UH U1621     -32.420 130.349   7.149  1.00 22.34    -0.074 C 
HETATM   28  C26 8UH U1621     -33.557 129.845   7.741  1.00 21.76    -0.048 C 
HETATM   29  C27 8UH U1621     -34.444 130.599   8.674  1.00 21.22     0.009 C 
HETATM   30  C28 8UH U1621     -35.415 131.493   8.318  1.00 19.00     0.007 C 
HETATM   31  C29 8UH U1621     -36.259 132.241   9.212  1.00 20.50    -0.062 C 
HETATM   32  C30 8UH U1621     -37.176 133.054   8.667  1.00 20.50     0.007 C 
HETATM   33  C31 8UH U1621     -38.076 133.910   9.429  1.00 20.50     0.001 C 
HETATM   34  C32 8UH U1621     -38.825 134.797   8.786  1.00 20.50     0.007 C 
HETATM   35  C33 8UH U1621     -39.686 135.745   9.510  1.00 20.50    -0.062 C 
HETATM   36  C34 8UH U1621     -40.268 136.715   8.791  1.00 20.50     0.007 C 
HETATM   37  C35 8UH U1621     -41.109 137.774   9.347  1.00 20.50     0.001 C 
HETATM   38  C36 8UH U1621     -33.978 127.521   8.729  1.00 20.30     0.020 C 
HETATM   39  C37 8UH U1621     -35.436 128.349   6.888  1.00 19.22     0.020 C 
HETATM   40  C38 8UH U1621     -31.845 131.703   7.339  1.00 22.01     0.044 C 
HETATM   41  C39 8UH U1621     -36.080 132.038  10.684  1.00 20.50     0.048 C 
HETATM   42  C40 8UH U1621     -39.811 135.617  10.996  1.00 20.50     0.048 C 
HETATM   43  O23 8UH U1621     -30.829 127.264   5.810  1.00 21.61    -0.395 OA
ATOM     44  H23 8UH U1621     -30.080 127.645   5.366  1.00  0.00     0.210 HD
ENDROOT
TORSDOF 12
