REMARK VINA RESULT:   -11.408      3.088      4.561
REMARK INTER + INTRA:         -11.679
REMARK INTER:                  -5.241
REMARK INTRA:                  -6.438
REMARK UNBOUND:                -0.271
REMARK  0 active torsions:
REMARK  status: ('A' for Active; 'I' for Inactive)
REMARK       I    between atoms: C3_3  and  O3_21 
REMARK       I    between atoms: C6_6  and  C7_7 
REMARK       I    between atoms: C8_8  and  C9_9 
REMARK       I    between atoms: C10_10  and  C11_11 
REMARK       I    between atoms: C12_12  and  C13_13 
REMARK       I    between atoms: C14_14  and  C15_15 
REMARK       I    between atoms: C23_25  and  O23_43 
REMARK       I    between atoms: C26_28  and  C27_29 
REMARK       I    between atoms: C28_30  and  C29_31 
REMARK       I    between atoms: C30_32  and  C31_33 
REMARK       I    between atoms: C32_34  and  C33_35 
REMARK       I    between atoms: C34_36  and  C35_37 
ROOT
HETATM    1  C1  8UH S1621     -49.018 150.404   7.514  1.00 98.50    -0.018 C 
HETATM    2  C2  8UH S1621     -50.221 151.159   6.986  1.00 95.05     0.045 C 
HETATM    3  C3  8UH S1621     -51.508 150.401   7.223  1.00 91.19     0.123 C 
HETATM    4  C4  8UH S1621     -51.724 150.161   8.702  1.00 95.39     0.066 C 
HETATM    5  C5  8UH S1621     -50.464 149.915   9.489  1.00 94.24    -0.074 C 
HETATM    6  C6  8UH S1621     -49.230 149.898   8.937  1.00 98.17    -0.048 C 
HETATM    7  C7  8UH S1621     -48.029 149.436   9.693  1.00 96.30     0.009 C 
HETATM    8  C8  8UH S1621     -47.669 148.150   9.783  1.00 99.74     0.007 C 
HETATM    9  C9  8UH S1621     -46.486 147.655  10.488  1.00 91.17    -0.062 C 
HETATM   10  C10 8UH S1621     -46.183 146.383  10.233  1.00 97.68     0.007 C 
HETATM   11  C11 8UH S1621     -45.039 145.695  10.796  1.00 98.02     0.001 C 
HETATM   12  C12 8UH S1621     -44.746 144.573  10.167  1.00 91.18     0.007 C 
HETATM   13  C13 8UH S1621     -43.614 143.722  10.529  1.00 90.92    -0.062 C 
HETATM   14  C14 8UH S1621     -43.450 142.622   9.799  1.00 96.50     0.007 C 
HETATM   15  C15 8UH S1621     -42.376 141.673   9.998  1.00 99.38     0.001 C 
HETATM   16  C16 8UH S1621     -47.842 151.350   7.332  1.00 90.00     0.020 C 
HETATM   17  C17 8UH S1621     -48.750 149.183   6.657  1.00 93.85     0.020 C 
HETATM   18  C18 8UH S1621     -50.820 149.181  10.743  1.00 91.76     0.044 C 
HETATM   19  C19 8UH S1621     -45.674 148.512  11.410  1.00 90.99     0.048 C 
HETATM   20  C20 8UH S1621     -42.686 144.092  11.646  1.00 93.33     0.048 C 
HETATM   21  O3  8UH S1621     -52.600 151.184   6.742  1.00 92.07    -0.395 OA
ATOM     22  H3  8UH S1621     -53.408 150.708   6.891  1.00  0.00     0.210 HD
HETATM   23  C21 8UH S1621     -35.205 131.244   8.124  1.00 98.00    -0.022 C 
HETATM   24  C22 8UH S1621     -34.415 130.085   8.724  1.00 98.00     0.045 C 
HETATM   25  C23 8UH S1621     -33.844 130.368  10.111  1.00 98.00     0.119 C 
HETATM   26  C24 8UH S1621     -34.924 130.879  11.051  1.00 98.00     0.040 C 
HETATM   27  C25 8UH S1621     -35.578 132.063  10.396  1.00 98.00     0.013 C 
HETATM   28  C26 8UH S1621     -36.048 131.931   9.166  1.00 98.00    -0.068 C 
HETATM   29  C27 8UH S1621     -37.392 132.420   8.829  1.00 98.00     0.004 C 
HETATM   30  C28 8UH S1621     -37.632 133.724   8.898  1.00 98.00     0.007 C 
HETATM   31  C29 8UH S1621     -38.946 134.265   8.544  1.00 98.43    -0.062 C 
HETATM   32  C30 8UH S1621     -39.089 135.571   8.711  1.00 92.06     0.007 C 
HETATM   33  C31 8UH S1621     -40.301 136.304   8.412  1.00 98.99     0.001 C 
HETATM   34  C32 8UH S1621     -40.359 137.471   9.024  1.00 98.35     0.007 C 
HETATM   35  C33 8UH S1621     -41.474 138.397   8.850  1.00 93.74    -0.062 C 
HETATM   36  C34 8UH S1621     -41.480 139.498   9.597  1.00 95.45     0.007 C 
HETATM   37  C35 8UH S1621     -42.536 140.479   9.453  1.00 96.56     0.001 C 
HETATM   38  C36 8UH S1621     -36.079 130.715   6.994  1.00 98.00     0.019 C 
HETATM   39  C37 8UH S1621     -34.259 132.289   7.551  1.00 98.00     0.019 C 
HETATM   40  C38 8UH S1621     -36.421 131.707  11.587  1.00 98.00     0.015 C 
HETATM   41  C39 8UH S1621     -40.053 133.397   8.028  1.00 93.10     0.048 C 
HETATM   42  C40 8UH S1621     -42.539 138.111   7.841  1.00 95.49     0.048 C 
HETATM   43  O23 8UH S1621     -33.267 129.177  10.652  1.00 98.00    -0.396 OA
ATOM     44  H23 8UH S1621     -32.591 128.858  10.064  1.00  0.00     0.210 HD
ENDROOT
TORSDOF 12
