REMARK VINA RESULT:   -10.448      0.000      0.000
REMARK INTER + INTRA:         -13.063
REMARK INTER:                 -10.448
REMARK INTRA:                  -2.615
REMARK UNBOUND:                -2.615
REMARK  0 active torsions:
REMARK  status: ('A' for Active; 'I' for Inactive)
REMARK       I    between atoms: C3_3  and  O3_21 
REMARK       I    between atoms: C6_6  and  C7_7 
REMARK       I    between atoms: C8_8  and  C9_9 
REMARK       I    between atoms: C10_10  and  C11_11 
REMARK       I    between atoms: C12_12  and  C13_13 
REMARK       I    between atoms: C14_14  and  C15_15 
REMARK       I    between atoms: C23_25  and  O23_43 
REMARK       I    between atoms: C26_28  and  C27_29 
REMARK       I    between atoms: C28_30  and  C29_31 
REMARK       I    between atoms: C30_32  and  C31_33 
REMARK       I    between atoms: C32_34  and  C33_35 
REMARK       I    between atoms: C34_36  and  C35_37 
ROOT
HETATM    1  C1  8UH 21621     -48.141 145.226  12.562  1.00 90.34    -0.018 C 
HETATM    2  C2  8UH 21621     -48.740 145.598  13.915  1.00 90.34     0.045 C 
HETATM    3  C3  8UH 21621     -47.938 146.523  14.816  1.00 90.34     0.123 C 
HETATM    4  C4  8UH 21621     -47.122 147.514  14.010  1.00 90.34     0.066 C 
HETATM    5  C5  8UH 21621     -46.248 146.730  13.075  1.00 90.34    -0.074 C 
HETATM    6  C6  8UH 21621     -46.768 145.798  12.280  1.00 90.34    -0.048 C 
HETATM    7  C7  8UH 21621     -46.041 145.300  11.086  1.00 90.34     0.009 C 
HETATM    8  C8  8UH 21621     -45.077 144.382  11.201  1.00 90.34     0.007 C 
HETATM    9  C9  8UH 21621     -44.329 143.816  10.070  1.00 90.34    -0.062 C 
HETATM   10  C10 8UH 21621     -43.644 142.704  10.337  1.00 90.34     0.007 C 
HETATM   11  C11 8UH 21621     -42.845 141.920   9.411  1.00 90.34     0.001 C 
HETATM   12  C12 8UH 21621     -42.265 140.857   9.960  1.00 90.34     0.007 C 
HETATM   13  C13 8UH 21621     -41.446 139.918   9.186  1.00 90.34    -0.062 C 
HETATM   14  C14 8UH 21621     -40.933 138.856   9.813  1.00 90.34     0.007 C 
HETATM   15  C15 8UH 21621     -40.143 137.860   9.100  1.00 90.34     0.001 C 
HETATM   16  C16 8UH 21621     -49.148 145.664  11.506  1.00 90.34     0.020 C 
HETATM   17  C17 8UH 21621     -47.994 143.717  12.513  1.00 90.34     0.020 C 
HETATM   18  C18 8UH 21621     -45.122 147.610  12.632  1.00 90.34     0.044 C 
HETATM   19  C19 8UH 21621     -44.346 144.437   8.708  1.00 90.34     0.048 C 
HETATM   20  C20 8UH 21621     -41.213 140.141   7.724  1.00 90.34     0.048 C 
HETATM   21  O3  8UH 21621     -48.855 147.254  15.628  1.00 90.34    -0.395 OA
ATOM     22  H3  8UH 21621     -48.354 147.832  16.191  1.00  0.00     0.210 HD
HETATM   23  C21 8UH 21621     -34.338 126.800   6.538  1.00 71.46    -0.018 C 
HETATM   24  C22 8UH 21621     -33.791 126.002   5.368  1.00 75.98     0.045 C 
HETATM   25  C23 8UH 21621     -33.117 126.769   4.252  1.00 84.37     0.123 C 
HETATM   26  C24 8UH 21621     -32.169 127.798   4.800  1.00 79.68     0.066 C 
HETATM   27  C25 8UH 21621     -32.900 128.697   5.751  1.00 81.86    -0.074 C 
HETATM   28  C26 8UH 21621     -33.795 128.220   6.630  1.00 72.92    -0.048 C 
HETATM   29  C27 8UH 21621     -34.249 129.078   7.752  1.00 76.42     0.009 C 
HETATM   30  C28 8UH 21621     -35.231 129.961   7.592  1.00 69.46     0.007 C 
HETATM   31  C29 8UH 21621     -35.700 130.822   8.685  1.00 90.34    -0.062 C 
HETATM   32  C30 8UH 21621     -36.767 131.568   8.408  1.00 90.34     0.007 C 
HETATM   33  C31 8UH 21621     -37.422 132.476   9.338  1.00 90.34     0.001 C 
HETATM   34  C32 8UH 21621     -37.913 133.593   8.814  1.00 90.34     0.007 C 
HETATM   35  C33 8UH 21621     -38.628 134.594   9.614  1.00 90.34    -0.062 C 
HETATM   36  C34 8UH 21621     -38.981 135.751   9.036  1.00 90.34     0.007 C 
HETATM   37  C35 8UH 21621     -39.731 136.777   9.751  1.00 90.34     0.001 C 
HETATM   38  C36 8UH 21621     -34.045 125.964   7.775  1.00 75.59     0.020 C 
HETATM   39  C37 8UH 21621     -35.851 126.877   6.406  1.00 74.59     0.020 C 
HETATM   40  C38 8UH 21621     -32.128 129.961   5.983  1.00 90.73     0.044 C 
HETATM   41  C39 8UH 21621     -35.040 130.846  10.029  1.00 90.34     0.048 C 
HETATM   42  C40 8UH 21621     -38.968 134.290  11.037  1.00 90.34     0.048 C 
HETATM   43  O23 8UH 21621     -32.357 125.850   3.469  1.00 94.57    -0.395 OA
ATOM     44  H23 8UH 21621     -32.956 125.200   3.123  1.00  0.00     0.210 HD
ENDROOT
TORSDOF 12
