REMARK VINA RESULT:    -9.201      1.782     16.672
REMARK INTER + INTRA:         -11.654
REMARK INTER:                  -7.593
REMARK INTRA:                  -4.061
REMARK UNBOUND:                -2.453
REMARK  0 active torsions:
REMARK  status: ('A' for Active; 'I' for Inactive)
REMARK       I    between atoms: C3_3  and  O3_21 
REMARK       I    between atoms: C6_6  and  C7_7 
REMARK       I    between atoms: C8_8  and  C9_9 
REMARK       I    between atoms: C10_10  and  C11_11 
REMARK       I    between atoms: C12_12  and  C13_13 
REMARK       I    between atoms: C14_14  and  C15_15 
REMARK       I    between atoms: C23_25  and  O23_43 
REMARK       I    between atoms: C26_28  and  C27_29 
REMARK       I    between atoms: C28_30  and  C29_31 
REMARK       I    between atoms: C30_32  and  C31_33 
REMARK       I    between atoms: C32_34  and  C33_35 
REMARK       I    between atoms: C34_36  and  C35_37 
ROOT
HETATM    1  C1  8UH Z 618     -34.475 126.958   5.878  1.00 27.67    -0.018 C 
HETATM    2  C2  8UH Z 618     -34.016 126.307   4.575  1.00 27.67     0.045 C 
HETATM    3  C3  8UH Z 618     -32.769 126.879   3.918  1.00 27.67     0.123 C 
HETATM    4  C4  8UH Z 618     -31.750 127.288   4.958  1.00 27.67     0.066 C 
HETATM    5  C5  8UH Z 618     -32.400 128.329   5.819  1.00 27.67    -0.074 C 
HETATM    6  C6  8UH Z 618     -33.585 128.082   6.381  1.00 27.67    -0.048 C 
HETATM    7  C7  8UH Z 618     -34.064 128.883   7.535  1.00 27.67     0.009 C 
HETATM    8  C8  8UH Z 618     -34.619 130.086   7.382  1.00 27.67     0.007 C 
HETATM    9  C9  8UH Z 618     -35.106 130.862   8.530  1.00 27.67    -0.062 C 
HETATM   10  C10 8UH Z 618     -36.009 131.812   8.272  1.00 27.67     0.007 C 
HETATM   11  C11 8UH Z 618     -36.641 132.670   9.266  1.00 27.67     0.001 C 
HETATM   12  C12 8UH Z 618     -37.614 133.413   8.754  1.00 27.67     0.007 C 
HETATM   13  C13 8UH Z 618     -38.478 134.351   9.480  1.00 27.67    -0.062 C 
HETATM   14  C14 8UH Z 618     -39.375 135.032   8.753  1.00 27.67     0.007 C 
HETATM   15  C15 8UH Z 618     -40.334 135.952   9.345  1.00 27.67     0.001 C 
HETATM   16  C16 8UH Z 618     -34.597 125.850   6.920  1.00 27.67     0.020 C 
HETATM   17  C17 8UH Z 618     -35.856 127.554   5.645  1.00 27.67     0.020 C 
HETATM   18  C18 8UH Z 618     -31.334 129.128   6.506  1.00 27.67     0.044 C 
HETATM   19  C19 8UH Z 618     -34.607 130.594   9.915  1.00 27.67     0.048 C 
HETATM   20  C20 8UH Z 618     -38.383 134.514  10.965  1.00 27.67     0.048 C 
HETATM   21  O3  8UH Z 618     -32.199 125.884   3.066  1.00 27.67    -0.395 OA
ATOM     22  H3  8UH Z 618     -32.839 125.628   2.413  1.00  0.00     0.210 HD
HETATM   23  C21 8UH Z 618     -50.063 143.806  11.147  1.00 17.54    -0.018 C 
HETATM   24  C22 8UH Z 618     -50.706 143.845  12.522  1.00 17.54     0.045 C 
HETATM   25  C23 8UH Z 618     -50.396 145.035  13.425  1.00 17.54     0.123 C 
HETATM   26  C24 8UH Z 618     -49.021 145.655  13.218  1.00 17.54     0.066 C 
HETATM   27  C25 8UH Z 618     -48.135 144.879  12.279  1.00 17.54    -0.074 C 
HETATM   28  C26 8UH Z 618     -48.591 144.105  11.283  1.00 17.54    -0.048 C 
HETATM   29  C27 8UH Z 618     -47.653 143.561  10.273  1.00 17.54     0.009 C 
HETATM   30  C28 8UH Z 618     -47.127 142.341  10.355  1.00 17.54     0.007 C 
HETATM   31  C29 8UH Z 618     -46.190 141.841   9.325  1.00 27.67    -0.062 C 
HETATM   32  C30 8UH Z 618     -45.736 140.594   9.485  1.00 27.67     0.007 C 
HETATM   33  C31 8UH Z 618     -44.812 139.929   8.577  1.00 27.67     0.001 C 
HETATM   34  C32 8UH Z 618     -43.921 139.134   9.158  1.00 27.67     0.007 C 
HETATM   35  C33 8UH Z 618     -42.907 138.356   8.431  1.00 27.67    -0.062 C 
HETATM   36  C34 8UH Z 618     -42.170 137.492   9.141  1.00 27.67     0.007 C 
HETATM   37  C35 8UH Z 618     -41.164 136.619   8.549  1.00 27.67     0.001 C 
HETATM   38  C36 8UH Z 618     -50.745 144.753  10.161  1.00 17.54     0.020 C 
HETATM   39  C37 8UH Z 618     -50.250 142.398  10.613  1.00 17.54     0.020 C 
HETATM   40  C38 8UH Z 618     -46.716 145.326  12.308  1.00 17.54     0.044 C 
HETATM   41  C39 8UH Z 618     -45.772 142.693   8.166  1.00 27.67     0.048 C 
HETATM   42  C40 8UH Z 618     -42.699 138.525   6.960  1.00 27.67     0.048 C 
HETATM   43  O23 8UH Z 618     -51.394 146.037  13.208  1.00 17.54    -0.395 OA
ATOM     44  H23 8UH Z 618     -52.252 145.650  13.337  1.00  0.00     0.210 HD
ENDROOT
TORSDOF 12
