REMARK VINA RESULT:   -10.733      0.000      0.000
REMARK INTER + INTRA:         -13.223
REMARK INTER:                 -10.733
REMARK INTRA:                  -2.490
REMARK UNBOUND:                -2.490
REMARK  0 active torsions:
REMARK  status: ('A' for Active; 'I' for Inactive)
REMARK       I    between atoms: C3_3  and  O3_21 
REMARK       I    between atoms: C6_6  and  C7_7 
REMARK       I    between atoms: C8_8  and  C9_9 
REMARK       I    between atoms: C10_10  and  C11_11 
REMARK       I    between atoms: C12_12  and  C13_13 
REMARK       I    between atoms: C14_14  and  C15_15 
REMARK       I    between atoms: C23_25  and  O23_43 
REMARK       I    between atoms: C26_28  and  C27_29 
REMARK       I    between atoms: C28_30  and  C29_31 
REMARK       I    between atoms: C30_32  and  C31_33 
REMARK       I    between atoms: C32_34  and  C33_35 
REMARK       I    between atoms: C34_36  and  C35_37 
ROOT
HETATM    1  C1  8UH y1620     -34.285 127.130   6.561  1.00 32.28    -0.018 C 
HETATM    2  C2  8UH y1620     -33.788 126.632   5.215  1.00 32.10     0.045 C 
HETATM    3  C3  8UH y1620     -32.684 127.428   4.555  1.00 30.03     0.123 C 
HETATM    4  C4  8UH y1620     -31.615 127.836   5.529  1.00 27.01     0.066 C 
HETATM    5  C5  8UH y1620     -32.195 128.516   6.728  1.00 26.85    -0.074 C 
HETATM    6  C6  8UH y1620     -33.426 128.230   7.181  1.00 32.38    -0.048 C 
HETATM    7  C7  8UH y1620     -33.981 128.993   8.326  1.00 31.45     0.009 C 
HETATM    8  C8  8UH y1620     -34.728 130.077   8.126  1.00 30.07     0.007 C 
HETATM    9  C9  8UH y1620     -35.306 130.880   9.201  1.00 31.62    -0.062 C 
HETATM   10  C10 8UH y1620     -35.886 132.017   8.815  1.00 26.80     0.007 C 
HETATM   11  C11 8UH y1620     -36.532 132.962   9.699  1.00 22.84     0.001 C 
HETATM   12  C12 8UH y1620     -37.326 133.784   9.046  1.00 24.53     0.007 C 
HETATM   13  C13 8UH y1620     -38.142 134.805   9.694  1.00 24.57    -0.062 C 
HETATM   14  C14 8UH y1620     -38.929 135.523   8.899  1.00 24.07     0.007 C 
HETATM   15  C15 8UH y1620     -39.830 136.536   9.400  1.00 24.13     0.001 C 
HETATM   16  C16 8UH y1620     -34.369 125.877   7.426  1.00 30.09     0.020 C 
HETATM   17  C17 8UH y1620     -35.684 127.695   6.371  1.00 35.00     0.020 C 
HETATM   18  C18 8UH y1620     -31.368 129.654   7.245  1.00 25.72     0.044 C 
HETATM   19  C19 8UH y1620     -35.212 130.446  10.631  1.00 32.28     0.048 C 
HETATM   20  C20 8UH y1620     -38.110 134.992  11.175  1.00 25.14     0.048 C 
HETATM   21  O3  8UH y1620     -32.060 126.599   3.572  1.00 33.60    -0.395 OA
ATOM     22  H3  8UH y1620     -32.737 126.341   2.957  1.00  0.00     0.210 HD
HETATM   23  C21 8UH y1620     -49.672 144.435  10.358  1.00 19.07    -0.018 C 
HETATM   24  C22 8UH y1620     -50.452 145.367  11.305  1.00 18.69     0.045 C 
HETATM   25  C23 8UH y1620     -49.636 146.276  12.220  1.00 19.88     0.123 C 
HETATM   26  C24 8UH y1620     -48.345 146.808  11.576  1.00 19.59     0.066 C 
HETATM   27  C25 8UH y1620     -47.619 145.912  10.620  1.00 18.61    -0.074 C 
HETATM   28  C26 8UH y1620     -48.197 144.806  10.036  1.00 18.29    -0.048 C 
HETATM   29  C27 8UH y1620     -47.446 143.949   9.094  1.00 19.20     0.009 C 
HETATM   30  C28 8UH y1620     -46.511 143.008   9.382  1.00 18.47     0.007 C 
HETATM   31  C29 8UH y1620     -45.680 142.312   8.441  1.00 31.74    -0.062 C 
HETATM   32  C30 8UH y1620     -44.995 141.288   8.913  1.00 30.48     0.007 C 
HETATM   33  C31 8UH y1620     -44.129 140.458   8.109  1.00 30.78     0.001 C 
HETATM   34  C32 8UH y1620     -43.380 139.639   8.819  1.00 30.06     0.007 C 
HETATM   35  C33 8UH y1620     -42.452 138.699   8.201  1.00 27.63    -0.062 C 
HETATM   36  C34 8UH y1620     -41.678 137.992   9.021  1.00 25.49     0.007 C 
HETATM   37  C35 8UH y1620     -40.733 137.002   8.554  1.00 24.60     0.001 C 
HETATM   38  C36 8UH y1620     -50.526 144.497   9.080  1.00 17.04     0.020 C 
HETATM   39  C37 8UH y1620     -49.744 143.006  10.930  1.00 20.18     0.020 C 
HETATM   40  C38 8UH y1620     -46.249 146.461  10.458  1.00 19.93     0.044 C 
HETATM   41  C39 8UH y1620     -45.604 142.726   7.009  1.00 33.51     0.048 C 
HETATM   42  C40 8UH y1620     -42.411 138.553   6.715  1.00 28.91     0.048 C 
HETATM   43  O23 8UH y1620     -50.435 147.350  12.694  1.00 19.51    -0.395 OA
ATOM     44  H23 8UH y1620     -49.927 147.915  13.264  1.00  0.00     0.210 HD
ENDROOT
TORSDOF 12
