REMARK VINA RESULT:    -9.983      0.000      0.000
REMARK INTER + INTRA:         -12.903
REMARK INTER:                  -9.983
REMARK INTRA:                  -2.919
REMARK UNBOUND:                -2.919
REMARK  0 active torsions:
REMARK  status: ('A' for Active; 'I' for Inactive)
REMARK       I    between atoms: C3_3  and  O3_21 
REMARK       I    between atoms: C6_6  and  C7_7 
REMARK       I    between atoms: C8_8  and  C9_9 
REMARK       I    between atoms: C10_10  and  C11_11 
REMARK       I    between atoms: C12_12  and  C13_13 
REMARK       I    between atoms: C14_14  and  C15_15 
REMARK       I    between atoms: C23_25  and  O23_43 
REMARK       I    between atoms: C26_28  and  C27_29 
REMARK       I    between atoms: C28_30  and  C29_31 
REMARK       I    between atoms: C30_32  and  C31_33 
REMARK       I    between atoms: C32_34  and  C33_35 
REMARK       I    between atoms: C34_36  and  C35_37 
ROOT
HETATM    1  C1  8UH n1621     -34.427 127.003   6.319  1.00 51.52    -0.018 C 
HETATM    2  C2  8UH n1621     -34.056 126.417   4.964  1.00 51.52     0.045 C 
HETATM    3  C3  8UH n1621     -32.895 127.059   4.238  1.00 51.52     0.123 C 
HETATM    4  C4  8UH n1621     -31.798 127.391   5.220  1.00 51.52     0.066 C 
HETATM    5  C5  8UH n1621     -32.334 128.335   6.255  1.00 51.52    -0.074 C 
HETATM    6  C6  8UH n1621     -33.525 128.118   6.818  1.00 51.52    -0.048 C 
HETATM    7  C7  8UH n1621     -34.028 128.936   7.952  1.00 51.52     0.009 C 
HETATM    8  C8  8UH n1621     -34.637 130.110   7.770  1.00 51.52     0.007 C 
HETATM    9  C9  8UH n1621     -35.192 130.929   8.855  1.00 51.52    -0.062 C 
HETATM   10  C10 8UH n1621     -36.092 131.832   8.471  1.00 51.52     0.007 C 
HETATM   11  C11 8UH n1621     -36.833 132.744   9.327  1.00 51.52     0.001 C 
HETATM   12  C12 8UH n1621     -37.692 133.522   8.682  1.00 51.52     0.007 C 
HETATM   13  C13 8UH n1621     -38.572 134.472   9.370  1.00 51.52    -0.062 C 
HETATM   14  C14 8UH n1621     -39.391 135.235   8.634  1.00 51.52     0.007 C 
HETATM   15  C15 8UH n1621     -40.320 136.170   9.253  1.00 51.52     0.001 C 
HETATM   16  C16 8UH n1621     -34.491 125.856   7.316  1.00 51.52     0.020 C 
HETATM   17  C17 8UH n1621     -35.820 127.574   6.191  1.00 51.52     0.020 C 
HETATM   18  C18 8UH n1621     -31.345 129.316   6.801  1.00 51.52     0.044 C 
HETATM   19  C19 8UH n1621     -34.784 130.753  10.284  1.00 51.52     0.048 C 
HETATM   20  C20 8UH n1621     -38.577 134.538  10.867  1.00 51.52     0.048 C 
HETATM   21  O3  8UH n1621     -32.372 126.125   3.289  1.00 51.52    -0.395 OA
ATOM     22  H3  8UH n1621     -31.643 126.528   2.833  1.00  0.00     0.210 HD
HETATM   23  C21 8UH n1621     -49.809 144.870  10.285  1.00 22.61    -0.018 C 
HETATM   24  C22 8UH n1621     -50.796 145.411  11.336  1.00 23.33     0.045 C 
HETATM   25  C23 8UH n1621     -50.289 146.137  12.588  1.00 24.77     0.123 C 
HETATM   26  C24 8UH n1621     -48.778 146.418  12.639  1.00 22.10     0.066 C 
HETATM   27  C25 8UH n1621     -47.858 145.735  11.686  1.00 21.89    -0.074 C 
HETATM   28  C26 8UH n1621     -48.283 145.018  10.589  1.00 21.83    -0.048 C 
HETATM   29  C27 8UH n1621     -47.374 144.346   9.633  1.00 21.27     0.009 C 
HETATM   30  C28 8UH n1621     -46.787 143.146   9.846  1.00 20.16     0.007 C 
HETATM   31  C29 8UH n1621     -45.895 142.452   8.956  1.00 51.52    -0.062 C 
HETATM   32  C30 8UH n1621     -45.489 141.224   9.297  1.00 51.52     0.007 C 
HETATM   33  C31 8UH n1621     -44.589 140.396   8.504  1.00 51.52     0.001 C 
HETATM   34  C32 8UH n1621     -43.759 139.593   9.167  1.00 51.52     0.007 C 
HETATM   35  C33 8UH n1621     -42.811 138.710   8.470  1.00 51.52    -0.062 C 
HETATM   36  C34 8UH n1621     -41.991 137.907   9.163  1.00 51.52     0.007 C 
HETATM   37  C35 8UH n1621     -41.048 137.001   8.510  1.00 51.52     0.001 C 
HETATM   38  C36 8UH n1621     -50.184 145.648   9.016  1.00 21.21     0.020 C 
HETATM   39  C37 8UH n1621     -50.176 143.392  10.034  1.00 21.56     0.020 C 
HETATM   40  C38 8UH n1621     -46.469 146.007  12.119  1.00 21.82     0.044 C 
HETATM   41  C39 8UH n1621     -45.448 143.117   7.690  1.00 51.52     0.048 C 
HETATM   42  C40 8UH n1621     -42.793 138.729   6.983  1.00 51.52     0.048 C 
HETATM   43  O23 8UH n1621     -51.022 147.341  12.792  1.00 25.40    -0.395 OA
ATOM     44  H23 8UH n1621     -50.708 147.791  13.567  1.00  0.00     0.210 HD
ENDROOT
TORSDOF 12
