REMARK VINA RESULT:   -10.747      0.000      0.000
REMARK INTER + INTRA:         -13.838
REMARK INTER:                 -10.747
REMARK INTRA:                  -3.091
REMARK UNBOUND:                -3.091
REMARK  0 active torsions:
REMARK  status: ('A' for Active; 'I' for Inactive)
REMARK       I    between atoms: C3_3  and  O3_21 
REMARK       I    between atoms: C6_6  and  C7_7 
REMARK       I    between atoms: C8_8  and  C9_9 
REMARK       I    between atoms: C10_10  and  C11_11 
REMARK       I    between atoms: C12_12  and  C13_13 
REMARK       I    between atoms: C14_14  and  C15_15 
REMARK       I    between atoms: C23_25  and  O23_43 
REMARK       I    between atoms: C26_28  and  C27_29 
REMARK       I    between atoms: C28_30  and  C29_31 
REMARK       I    between atoms: C30_32  and  C31_33 
REMARK       I    between atoms: C32_34  and  C33_35 
REMARK       I    between atoms: C34_36  and  C35_37 
ROOT
HETATM    1  C1  8UH N1621     -47.575 145.484  12.667  1.00 48.43    -0.018 C 
HETATM    2  C2  8UH N1621     -48.328 145.892  13.926  1.00 44.61     0.045 C 
HETATM    3  C3  8UH N1621     -47.523 146.625  14.981  1.00 44.41     0.123 C 
HETATM    4  C4  8UH N1621     -46.598 147.634  14.347  1.00 41.53     0.066 C 
HETATM    5  C5  8UH N1621     -45.669 146.896  13.434  1.00 37.72    -0.074 C 
HETATM    6  C6  8UH N1621     -46.150 146.005  12.569  1.00 43.52    -0.048 C 
HETATM    7  C7  8UH N1621     -45.334 145.495  11.442  1.00 44.60     0.009 C 
HETATM    8  C8  8UH N1621     -44.448 144.520  11.595  1.00 43.22     0.007 C 
HETATM    9  C9  8UH N1621     -43.687 144.007  10.457  1.00 45.04    -0.062 C 
HETATM   10  C10 8UH N1621     -43.016 142.887  10.689  1.00 43.71     0.007 C 
HETATM   11  C11 8UH N1621     -42.240 142.161   9.712  1.00 42.87     0.001 C 
HETATM   12  C12 8UH N1621     -41.792 141.019  10.192  1.00 44.70     0.007 C 
HETATM   13  C13 8UH N1621     -41.042 140.054   9.393  1.00 42.63    -0.062 C 
HETATM   14  C14 8UH N1621     -40.702 138.912   9.994  1.00 42.62     0.007 C 
HETATM   15  C15 8UH N1621     -39.996 137.871   9.279  1.00 44.33     0.001 C 
HETATM   16  C16 8UH N1621     -48.441 145.940  11.497  1.00 47.48     0.020 C 
HETATM   17  C17 8UH N1621     -47.434 143.973  12.633  1.00 54.25     0.020 C 
HETATM   18  C18 8UH N1621     -44.402 147.645  13.192  1.00 37.77     0.044 C 
HETATM   19  C19 8UH N1621     -43.697 144.692   9.129  1.00 46.17     0.048 C 
HETATM   20  C20 8UH N1621     -40.731 140.330   7.954  1.00 40.87     0.048 C 
HETATM   21  O3  8UH N1621     -48.420 147.311  15.854  1.00 48.83    -0.395 OA
ATOM     22  H3  8UH N1621     -47.916 147.770  16.515  1.00  0.00     0.210 HD
HETATM   23  C21 8UH N1621     -34.440 126.872   6.340  1.00 23.68    -0.018 C 
HETATM   24  C22 8UH N1621     -34.084 126.198   5.018  1.00 23.68     0.045 C 
HETATM   25  C23 8UH N1621     -33.058 126.869   4.112  1.00 23.68     0.123 C 
HETATM   26  C24 8UH N1621     -32.079 127.719   4.899  1.00 23.68     0.066 C 
HETATM   27  C25 8UH N1621     -32.860 128.686   5.744  1.00 23.68    -0.074 C 
HETATM   28  C26 8UH N1621     -33.836 128.252   6.542  1.00 23.68    -0.048 C 
HETATM   29  C27 8UH N1621     -34.328 129.090   7.669  1.00 23.68     0.009 C 
HETATM   30  C28 8UH N1621     -35.253 130.043   7.523  1.00 23.68     0.007 C 
HETATM   31  C29 8UH N1621     -35.729 130.850   8.640  1.00 54.19    -0.062 C 
HETATM   32  C30 8UH N1621     -36.802 131.605   8.403  1.00 54.84     0.007 C 
HETATM   33  C31 8UH N1621     -37.422 132.470   9.385  1.00 51.40     0.001 C 
HETATM   34  C32 8UH N1621     -37.908 133.598   8.896  1.00 48.08     0.007 C 
HETATM   35  C33 8UH N1621     -38.567 134.590   9.744  1.00 45.58    -0.062 C 
HETATM   36  C34 8UH N1621     -38.981 135.725   9.181  1.00 47.58     0.007 C 
HETATM   37  C35 8UH N1621     -39.661 136.769   9.927  1.00 48.15     0.001 C 
HETATM   38  C36 8UH N1621     -34.006 125.914   7.436  1.00 23.68     0.020 C 
HETATM   39  C37 8UH N1621     -35.953 127.029   6.400  1.00 23.68     0.020 C 
HETATM   40  C38 8UH N1621     -31.967 129.821   6.146  1.00 23.68     0.044 C 
HETATM   41  C39 8UH N1621     -35.046 130.774   9.969  1.00 53.01     0.048 C 
HETATM   42  C40 8UH N1621     -38.753 134.312  11.196  1.00 46.34     0.048 C 
HETATM   43  O23 8UH N1621     -32.337 125.850   3.417  1.00 23.68    -0.395 OA
ATOM     44  H23 8UH N1621     -31.698 126.268   2.852  1.00  0.00     0.210 HD
ENDROOT
TORSDOF 12
