REMARK VINA RESULT:    -8.390      2.857     16.847
REMARK INTER + INTRA:          -8.519
REMARK INTER:                  -4.639
REMARK INTRA:                  -3.880
REMARK UNBOUND:                -0.128
REMARK  0 active torsions:
REMARK  status: ('A' for Active; 'I' for Inactive)
REMARK       I    between atoms: C3_3  and  O3_21 
REMARK       I    between atoms: C6_6  and  C7_7 
REMARK       I    between atoms: C8_8  and  C9_9 
REMARK       I    between atoms: C10_10  and  C11_11 
REMARK       I    between atoms: C12_12  and  C13_13 
REMARK       I    between atoms: C14_14  and  C15_15 
REMARK       I    between atoms: C23_25  and  O23_43 
REMARK       I    between atoms: C26_28  and  C27_29 
REMARK       I    between atoms: C28_30  and  C29_31 
REMARK       I    between atoms: C30_32  and  C31_33 
REMARK       I    between atoms: C32_34  and  C33_35 
REMARK       I    between atoms: C34_36  and  C35_37 
ROOT
HETATM    1  C1  8UH 2 617     -34.474 128.165   6.069  1.00 73.56    -0.018 C 
HETATM    2  C2  8UH 2 617     -33.547 127.729   4.932  1.00 73.56     0.045 C 
HETATM    3  C3  8UH 2 617     -32.083 128.164   4.982  1.00 73.56     0.123 C 
HETATM    4  C4  8UH 2 617     -31.592 128.302   6.415  1.00 73.56     0.066 C 
HETATM    5  C5  8UH 2 617     -32.503 129.275   7.113  1.00 73.56    -0.074 C 
HETATM    6  C6  8UH 2 617     -33.828 129.085   7.094  1.00 73.56    -0.048 C 
HETATM    7  C7  8UH 2 617     -34.687 129.750   8.103  1.00 73.56     0.009 C 
HETATM    8  C8  8UH 2 617     -35.138 130.999   7.959  1.00 73.56     0.007 C 
HETATM    9  C9  8UH 2 617     -35.994 131.630   8.982  1.00 73.56    -0.062 C 
HETATM   10  C10 8UH 2 617     -36.640 132.762   8.667  1.00 73.56     0.007 C 
HETATM   11  C11 8UH 2 617     -37.510 133.475   9.598  1.00 73.56     0.001 C 
HETATM   12  C12 8UH 2 617     -37.862 134.718   9.277  1.00 73.56     0.007 C 
HETATM   13  C13 8UH 2 617     -38.744 135.548  10.118  1.00 73.56    -0.062 C 
HETATM   14  C14 8UH 2 617     -39.369 136.577   9.531  1.00 73.56     0.007 C 
HETATM   15  C15 8UH 2 617     -40.287 137.473  10.226  1.00 73.56     0.001 C 
HETATM   16  C16 8UH 2 617     -35.009 126.898   6.736  1.00 73.56     0.020 C 
HETATM   17  C17 8UH 2 617     -35.644 128.930   5.464  1.00 73.56     0.020 C 
HETATM   18  C18 8UH 2 617     -31.801 129.798   8.334  1.00 73.56     0.044 C 
HETATM   19  C19 8UH 2 617     -36.130 131.018  10.342  1.00 73.56     0.048 C 
HETATM   20  C20 8UH 2 617     -38.930 135.255  11.578  1.00 73.56     0.048 C 
HETATM   21  O3  8UH 2 617     -31.284 127.189   4.302  1.00 73.56    -0.395 OA
ATOM     22  H3  8UH 2 617     -31.590 127.103   3.407  1.00  0.00     0.210 HD
HETATM   23  C21 8UH 2 617     -50.212 145.676   8.473  1.00 23.68    -0.018 C 
HETATM   24  C22 8UH 2 617     -51.177 146.469   9.350  1.00 23.68     0.045 C 
HETATM   25  C23 8UH 2 617     -50.645 147.677  10.110  1.00 23.68     0.123 C 
HETATM   26  C24 8UH 2 617     -49.454 148.305   9.413  1.00 23.68     0.066 C 
HETATM   27  C25 8UH 2 617     -48.421 147.240   9.179  1.00 23.68    -0.074 C 
HETATM   28  C26 8UH 2 617     -48.754 146.093   8.580  1.00 23.68    -0.048 C 
HETATM   29  C27 8UH 2 617     -47.712 145.222   7.971  1.00 23.68     0.009 C 
HETATM   30  C28 8UH 2 617     -47.009 144.326   8.669  1.00 23.68     0.007 C 
HETATM   31  C29 8UH 2 617     -45.980 143.456   8.061  1.00 73.56    -0.062 C 
HETATM   32  C30 8UH 2 617     -45.333 142.610   8.874  1.00 73.56     0.007 C 
HETATM   33  C31 8UH 2 617     -44.298 141.685   8.423  1.00 73.56     0.001 C 
HETATM   34  C32 8UH 2 617     -43.698 140.922   9.335  1.00 73.56     0.007 C 
HETATM   35  C33 8UH 2 617     -42.654 139.954   8.957  1.00 73.56    -0.062 C 
HETATM   36  C34 8UH 2 617     -42.057 139.173   9.875  1.00 73.56     0.007 C 
HETATM   37  C35 8UH 2 617     -41.045 138.216   9.427  1.00 73.56     0.001 C 
HETATM   38  C36 8UH 2 617     -50.721 145.812   7.048  1.00 23.68     0.020 C 
HETATM   39  C37 8UH 2 617     -50.292 144.213   8.882  1.00 23.68     0.020 C 
HETATM   40  C38 8UH 2 617     -47.089 147.884   8.946  1.00 23.68     0.044 C 
HETATM   41  C39 8UH 2 617     -45.674 143.516   6.594  1.00 73.56     0.048 C 
HETATM   42  C40 8UH 2 617     -42.272 139.851   7.513  1.00 73.56     0.048 C 
HETATM   43  O23 8UH 2 617     -51.692 148.644  10.207  1.00 23.68    -0.395 OA
ATOM     44  H23 8UH 2 617     -51.359 149.398  10.681  1.00  0.00     0.210 HD
ENDROOT
TORSDOF 12
