REMARK VINA RESULT:   -10.144      0.000      0.000
REMARK INTER + INTRA:         -12.483
REMARK INTER:                 -10.144
REMARK INTRA:                  -2.339
REMARK UNBOUND:                -2.339
REMARK  0 active torsions:
REMARK  status: ('A' for Active; 'I' for Inactive)
REMARK       I    between atoms: C3_3  and  O3_21 
REMARK       I    between atoms: C6_6  and  C7_7 
REMARK       I    between atoms: C8_8  and  C9_9 
REMARK       I    between atoms: C10_10  and  C11_11 
REMARK       I    between atoms: C12_12  and  C13_13 
REMARK       I    between atoms: C14_14  and  C15_15 
REMARK       I    between atoms: C23_25  and  O23_43 
REMARK       I    between atoms: C26_28  and  C27_29 
REMARK       I    between atoms: C28_30  and  C29_31 
REMARK       I    between atoms: C30_32  and  C31_33 
REMARK       I    between atoms: C32_34  and  C33_35 
REMARK       I    between atoms: C34_36  and  C35_37 
ROOT
HETATM    1  C1  8UH 51620     -49.333 144.043  11.998  1.00 94.67    -0.018 C 
HETATM    2  C2  8UH 51620     -49.719 144.489  13.402  1.00 94.67     0.045 C 
HETATM    3  C3  8UH 51620     -48.888 145.598  14.012  1.00 94.67     0.123 C 
HETATM    4  C4  8UH 51620     -48.664 146.668  12.978  1.00 94.67     0.066 C 
HETATM    5  C5  8UH 51620     -47.938 146.091  11.804  1.00 94.67    -0.074 C 
HETATM    6  C6  8UH 51620     -48.253 144.880  11.340  1.00 94.67    -0.048 C 
HETATM    7  C7  8UH 51620     -47.561 144.317  10.156  1.00 94.67     0.009 C 
HETATM    8  C8  8UH 51620     -46.436 143.617  10.282  1.00 94.67     0.007 C 
HETATM    9  C9  8UH 51620     -45.731 143.025   9.145  1.00 94.67    -0.062 C 
HETATM   10  C10 8UH 51620     -44.660 142.299   9.447  1.00 94.67     0.007 C 
HETATM   11  C11 8UH 51620     -43.839 141.608   8.471  1.00 94.67     0.001 C 
HETATM   12  C12 8UH 51620     -43.071 140.681   9.022  1.00 94.67     0.007 C 
HETATM   13  C13 8UH 51620     -42.165 139.813   8.274  1.00 94.67    -0.062 C 
HETATM   14  C14 8UH 51620     -41.544 138.868   8.974  1.00 94.67     0.007 C 
HETATM   15  C15 8UH 51620     -40.635 137.896   8.389  1.00 94.67     0.001 C 
HETATM   16  C16 8UH 51620     -50.622 144.065  11.182  1.00 94.67     0.020 C 
HETATM   17  C17 8UH 51620     -48.801 142.622  12.097  1.00 94.67     0.020 C 
HETATM   18  C18 8UH 51620     -46.901 146.968  11.166  1.00 94.67     0.044 C 
HETATM   19  C19 8UH 51620     -46.198 143.228   7.737  1.00 94.67     0.048 C 
HETATM   20  C20 8UH 51620     -41.976 139.975   6.799  1.00 94.67     0.048 C 
HETATM   21  O3  8UH 51620     -49.618 146.173  15.095  1.00 94.67    -0.395 OA
ATOM     22  H3  8UH 51620     -49.097 146.868  15.478  1.00  0.00     0.210 HD
HETATM   23  C21 8UH 51620     -34.326 127.506   6.658  1.00 66.61    -0.018 C 
HETATM   24  C22 8UH 51620     -33.756 127.073   5.312  1.00 66.61     0.045 C 
HETATM   25  C23 8UH 51620     -32.478 127.738   4.825  1.00 66.61     0.123 C 
HETATM   26  C24 8UH 51620     -31.572 128.113   5.978  1.00 66.61     0.066 C 
HETATM   27  C25 8UH 51620     -32.336 128.971   6.945  1.00 66.61    -0.074 C 
HETATM   28  C26 8UH 51620     -33.577 128.647   7.320  1.00 66.61    -0.048 C 
HETATM   29  C27 8UH 51620     -34.252 129.391   8.414  1.00 66.61     0.009 C 
HETATM   30  C28 8UH 51620     -34.943 130.508   8.178  1.00 66.61     0.007 C 
HETATM   31  C29 8UH 51620     -35.626 131.252   9.237  1.00 94.67    -0.062 C 
HETATM   32  C30 8UH 51620     -36.465 132.198   8.820  1.00 94.67     0.007 C 
HETATM   33  C31 8UH 51620     -37.255 133.068   9.672  1.00 94.67     0.001 C 
HETATM   34  C32 8UH 51620     -37.832 134.034   8.979  1.00 94.67     0.007 C 
HETATM   35  C33 8UH 51620     -38.689 135.070   9.550  1.00 94.67    -0.062 C 
HETATM   36  C34 8UH 51620     -39.339 135.870   8.700  1.00 94.67     0.007 C 
HETATM   37  C35 8UH 51620     -40.227 136.915   9.183  1.00 94.67     0.001 C 
HETATM   38  C36 8UH 51620     -34.353 126.277   7.560  1.00 66.61     0.020 C 
HETATM   39  C37 8UH 51620     -35.757 127.961   6.422  1.00 66.61     0.020 C 
HETATM   40  C38 8UH 51620     -31.497 129.966   7.695  1.00 66.61     0.044 C 
HETATM   41  C39 8UH 51620     -35.401 130.959  10.686  1.00 94.67     0.048 C 
HETATM   42  C40 8UH 51620     -38.806 135.230  11.031  1.00 94.67     0.048 C 
HETATM   43  O23 8UH 51620     -31.783 126.816   3.981  1.00 66.61    -0.395 OA
ATOM     44  H23 8UH 51620     -30.985 127.232   3.677  1.00  0.00     0.210 HD
ENDROOT
TORSDOF 12
