REMARK VINA RESULT:   -10.175      0.000      0.000
REMARK INTER + INTRA:         -12.150
REMARK INTER:                 -10.175
REMARK INTRA:                  -1.976
REMARK UNBOUND:                -1.976
REMARK  0 active torsions:
REMARK  status: ('A' for Active; 'I' for Inactive)
REMARK       I    between atoms: C3_3  and  O3_21 
REMARK       I    between atoms: C6_6  and  C7_7 
REMARK       I    between atoms: C8_8  and  C9_9 
REMARK       I    between atoms: C10_10  and  C11_11 
REMARK       I    between atoms: C12_12  and  C13_13 
REMARK       I    between atoms: C14_14  and  C15_15 
REMARK       I    between atoms: C23_25  and  O23_43 
REMARK       I    between atoms: C26_28  and  C27_29 
REMARK       I    between atoms: C28_30  and  C29_31 
REMARK       I    between atoms: C30_32  and  C31_33 
REMARK       I    between atoms: C32_34  and  C33_35 
REMARK       I    between atoms: C34_36  and  C35_37 
ROOT
HETATM    1  C1  8UH G1621     -47.801 145.625  13.011  1.00 57.09    -0.018 C 
HETATM    2  C2  8UH G1621     -48.389 145.991  14.367  1.00 57.09     0.045 C 
HETATM    3  C3  8UH G1621     -47.556 146.883  15.269  1.00 57.09     0.123 C 
HETATM    4  C4  8UH G1621     -46.812 147.918  14.454  1.00 57.09     0.066 C 
HETATM    5  C5  8UH G1621     -45.948 147.210  13.454  1.00 57.09    -0.074 C 
HETATM    6  C6  8UH G1621     -46.454 146.236  12.689  1.00 57.09    -0.048 C 
HETATM    7  C7  8UH G1621     -45.731 145.732  11.489  1.00 57.09     0.009 C 
HETATM    8  C8  8UH G1621     -44.741 144.839  11.584  1.00 57.09     0.007 C 
HETATM    9  C9  8UH G1621     -44.007 144.297  10.429  1.00 57.09    -0.062 C 
HETATM   10  C10 8UH G1621     -43.403 143.123  10.629  1.00 57.09     0.007 C 
HETATM   11  C11 8UH G1621     -42.640 142.356   9.653  1.00 57.09     0.001 C 
HETATM   12  C12 8UH G1621     -42.186 141.191  10.101  1.00 57.09     0.007 C 
HETATM   13  C13 8UH G1621     -41.429 140.227   9.289  1.00 57.09    -0.062 C 
HETATM   14  C14 8UH G1621     -40.946 139.127   9.882  1.00 57.09     0.007 C 
HETATM   15  C15 8UH G1621     -40.231 138.106   9.127  1.00 57.09     0.001 C 
HETATM   16  C16 8UH G1621     -48.835 146.007  11.962  1.00 57.09     0.020 C 
HETATM   17  C17 8UH G1621     -47.610 144.124  12.994  1.00 57.09     0.020 C 
HETATM   18  C18 8UH G1621     -44.792 148.060  13.015  1.00 57.09     0.044 C 
HETATM   19  C19 8UH G1621     -43.946 145.017   9.118  1.00 57.09     0.048 C 
HETATM   20  C20 8UH G1621     -41.253 140.458   7.821  1.00 57.09     0.048 C 
HETATM   21  O3  8UH G1621     -48.448 147.554  16.161  1.00 57.09    -0.395 OA
ATOM     22  H3  8UH G1621     -48.916 146.903  16.673  1.00  0.00     0.210 HD
HETATM   23  C21 8UH G1621     -34.595 126.988   6.441  1.00 16.39    -0.018 C 
HETATM   24  C22 8UH G1621     -34.164 126.271   5.169  1.00 16.39     0.045 C 
HETATM   25  C23 8UH G1621     -33.075 126.903   4.315  1.00 16.39     0.123 C 
HETATM   26  C24 8UH G1621     -32.094 127.707   5.138  1.00 16.39     0.066 C 
HETATM   27  C25 8UH G1621     -32.858 128.707   5.948  1.00 16.39    -0.074 C 
HETATM   28  C26 8UH G1621     -33.920 128.331   6.661  1.00 16.39    -0.048 C 
HETATM   29  C27 8UH G1621     -34.431 129.223   7.727  1.00 16.39     0.009 C 
HETATM   30  C28 8UH G1621     -35.344 130.170   7.504  1.00 16.39     0.007 C 
HETATM   31  C29 8UH G1621     -35.822 131.041   8.596  1.00 57.09    -0.062 C 
HETATM   32  C30 8UH G1621     -36.867 131.818   8.304  1.00 57.09     0.007 C 
HETATM   33  C31 8UH G1621     -37.473 132.745   9.247  1.00 57.09     0.001 C 
HETATM   34  C32 8UH G1621     -37.949 133.870   8.731  1.00 57.09     0.007 C 
HETATM   35  C33 8UH G1621     -38.591 134.895   9.554  1.00 57.09    -0.062 C 
HETATM   36  C34 8UH G1621     -39.175 135.947   8.975  1.00 57.09     0.007 C 
HETATM   37  C35 8UH G1621     -39.849 136.990   9.737  1.00 57.09     0.001 C 
HETATM   38  C36 8UH G1621     -34.347 126.030   7.599  1.00 16.39     0.020 C 
HETATM   39  C37 8UH G1621     -36.089 127.258   6.347  1.00 16.39     0.020 C 
HETATM   40  C38 8UH G1621     -31.976 129.843   6.377  1.00 16.39     0.044 C 
HETATM   41  C39 8UH G1621     -35.168 131.067   9.941  1.00 57.09     0.048 C 
HETATM   42  C40 8UH G1621     -38.551 134.734  11.029  1.00 57.09     0.048 C 
HETATM   43  O23 8UH G1621     -32.363 125.864   3.640  1.00 16.39    -0.395 OA
ATOM     44  H23 8UH G1621     -31.684 126.258   3.107  1.00  0.00     0.210 HD
ENDROOT
TORSDOF 12
