REMARK VINA RESULT:    -5.738      1.907     16.491
REMARK INTER + INTRA:          -9.079
REMARK INTER:                  -5.097
REMARK INTRA:                  -3.981
REMARK UNBOUND:                -3.340
REMARK  0 active torsions:
REMARK  status: ('A' for Active; 'I' for Inactive)
REMARK       I    between atoms: C3_3  and  O3_21 
REMARK       I    between atoms: C6_6  and  C7_7 
REMARK       I    between atoms: C8_8  and  C9_9 
REMARK       I    between atoms: C10_10  and  C11_11 
REMARK       I    between atoms: C12_12  and  C13_13 
REMARK       I    between atoms: C14_14  and  C15_15 
REMARK       I    between atoms: C23_25  and  O23_43 
REMARK       I    between atoms: C26_28  and  C27_29 
REMARK       I    between atoms: C28_30  and  C29_31 
REMARK       I    between atoms: C30_32  and  C31_33 
REMARK       I    between atoms: C32_34  and  C33_35 
REMARK       I    between atoms: C34_36  and  C35_37 
ROOT
HETATM    1  C1  8UH X1620     -50.284 144.831   9.017  1.00 33.88    -0.022 C 
HETATM    2  C2  8UH X1620     -50.578 144.479  10.468  1.00 33.88     0.045 C 
HETATM    3  C3  8UH X1620     -49.500 144.891  11.447  1.00 33.88     0.119 C 
HETATM    4  C4  8UH X1620     -49.282 146.378  11.270  1.00 33.88     0.040 C 
HETATM    5  C5  8UH X1620     -48.819 146.653   9.863  1.00 33.88     0.013 C 
HETATM    6  C6  8UH X1620     -49.078 145.763   8.898  1.00 33.88    -0.068 C 
HETATM    7  C7  8UH X1620     -48.061 145.437   7.890  1.00 33.88     0.004 C 
HETATM    8  C8  8UH X1620     -47.389 144.361   8.322  1.00 33.88     0.007 C 
HETATM    9  C9  8UH X1620     -46.235 143.770   7.596  1.00 33.88    -0.062 C 
HETATM   10  C10 8UH X1620     -45.660 142.685   8.167  1.00 33.88     0.007 C 
HETATM   11  C11 8UH X1620     -44.542 141.954   7.580  1.00 33.88     0.001 C 
HETATM   12  C12 8UH X1620     -44.067 140.868   8.169  1.00 33.88     0.007 C 
HETATM   13  C13 8UH X1620     -42.988 140.080   7.547  1.00 33.88    -0.062 C 
HETATM   14  C14 8UH X1620     -42.694 138.916   8.148  1.00 33.88     0.007 C 
HETATM   15  C15 8UH X1620     -41.711 137.945   7.668  1.00 33.88     0.001 C 
HETATM   16  C16 8UH X1620     -51.605 145.357   8.460  1.00 33.88     0.019 C 
HETATM   17  C17 8UH X1620     -49.935 143.522   8.313  1.00 33.88     0.019 C 
HETATM   18  C18 8UH X1620     -47.433 147.161  10.165  1.00 33.88     0.015 C 
HETATM   19  C19 8UH X1620     -45.763 144.362   6.285  1.00 33.88     0.048 C 
HETATM   20  C20 8UH X1620     -42.358 140.556   6.264  1.00 33.88     0.048 C 
HETATM   21  O3  8UH X1620     -49.997 144.614  12.759  1.00 33.88    -0.396 OA
ATOM     22  H3  8UH X1620     -49.320 144.872  13.374  1.00  0.00     0.210 HD
HETATM   23  C21 8UH X1620     -35.491 126.545   6.392  1.00 31.86    -0.018 C 
HETATM   24  C22 8UH X1620     -35.266 125.992   4.981  1.00 31.86     0.045 C 
HETATM   25  C23 8UH X1620     -34.417 126.835   4.037  1.00 31.86     0.123 C 
HETATM   26  C24 8UH X1620     -33.570 127.851   4.792  1.00 31.86     0.066 C 
HETATM   27  C25 8UH X1620     -34.515 128.658   5.631  1.00 31.86    -0.074 C 
HETATM   28  C26 8UH X1620     -35.258 128.032   6.543  1.00 31.86    -0.048 C 
HETATM   29  C27 8UH X1620     -36.020 128.756   7.582  1.00 31.86     0.009 C 
HETATM   30  C28 8UH X1620     -36.512 129.967   7.304  1.00 31.86     0.007 C 
HETATM   31  C29 8UH X1620     -37.481 130.609   8.252  1.00 33.88    -0.062 C 
HETATM   32  C30 8UH X1620     -37.984 131.781   7.807  1.00 33.88     0.007 C 
HETATM   33  C31 8UH X1620     -38.974 132.606   8.506  1.00 33.88     0.001 C 
HETATM   34  C32 8UH X1620     -39.368 133.745   7.926  1.00 33.88     0.007 C 
HETATM   35  C33 8UH X1620     -40.367 134.648   8.543  1.00 33.88    -0.062 C 
HETATM   36  C34 8UH X1620     -40.620 135.807   7.901  1.00 33.88     0.007 C 
HETATM   37  C35 8UH X1620     -41.575 136.816   8.359  1.00 33.88     0.001 C 
HETATM   38  C36 8UH X1620     -34.500 125.888   7.350  1.00 31.86     0.020 C 
HETATM   39  C37 8UH X1620     -36.897 126.160   6.828  1.00 31.86     0.020 C 
HETATM   40  C38 8UH X1620     -33.747 129.911   5.948  1.00 31.86     0.044 C 
HETATM   41  C39 8UH X1620     -37.888 129.954   9.551  1.00 33.88     0.048 C 
HETATM   42  C40 8UH X1620     -41.066 134.215   9.804  1.00 33.88     0.048 C 
HETATM   43  O23 8UH X1620     -33.573 125.924   3.336  1.00 31.86    -0.395 OA
ATOM     44  H23 8UH X1620     -33.045 126.449   2.747  1.00  0.00     0.210 HD
ENDROOT
TORSDOF 12
