REMARK VINA RESULT:    -9.102      1.263     16.068
REMARK INTER + INTRA:         -12.412
REMARK INTER:                 -11.402
REMARK INTRA:                  -1.010
REMARK UNBOUND:                -3.310
REMARK  0 active torsions:
REMARK  status: ('A' for Active; 'I' for Inactive)
REMARK       I    between atoms: C3_3  and  O3_21 
REMARK       I    between atoms: C6_6  and  C7_7 
REMARK       I    between atoms: C8_8  and  C9_9 
REMARK       I    between atoms: C10_10  and  C11_11 
REMARK       I    between atoms: C12_12  and  C13_13 
REMARK       I    between atoms: C14_14  and  C15_15 
REMARK       I    between atoms: C23_25  and  O23_43 
REMARK       I    between atoms: C26_28  and  C27_29 
REMARK       I    between atoms: C28_30  and  C29_31 
REMARK       I    between atoms: C30_32  and  C31_33 
REMARK       I    between atoms: C32_34  and  C33_35 
REMARK       I    between atoms: C34_36  and  C35_37 
ROOT
HETATM    1  C1  8UH R 620     -34.210 128.432   6.819  1.00 48.79    -0.018 C 
HETATM    2  C2  8UH R 620     -33.508 128.287   5.476  1.00 49.38     0.045 C 
HETATM    3  C3  8UH R 620     -31.981 128.252   5.487  1.00 51.85     0.123 C 
HETATM    4  C4  8UH R 620     -31.361 129.295   6.399  1.00 54.16     0.066 C 
HETATM    5  C5  8UH R 620     -32.197 129.704   7.582  1.00 52.93    -0.074 C 
HETATM    6  C6  8UH R 620     -33.508 129.441   7.712  1.00 53.44    -0.048 C 
HETATM    7  C7  8UH R 620     -34.302 130.128   8.767  1.00 56.18     0.009 C 
HETATM    8  C8  8UH R 620     -35.060 131.194   8.505  1.00 54.04     0.007 C 
HETATM    9  C9  8UH R 620     -35.870 131.880   9.519  1.00 57.87    -0.062 C 
HETATM   10  C10 8UH R 620     -36.478 132.997   9.129  1.00 59.37     0.007 C 
HETATM   11  C11 8UH R 620     -37.342 133.803   9.973  1.00 54.77     0.001 C 
HETATM   12  C12 8UH R 620     -37.979 134.752   9.311  1.00 53.15     0.007 C 
HETATM   13  C13 8UH R 620     -38.934 135.671   9.928  1.00 52.91    -0.062 C 
HETATM   14  C14 8UH R 620     -39.601 136.453   9.086  1.00 56.79     0.007 C 
HETATM   15  C15 8UH R 620     -40.614 137.390   9.525  1.00 60.51     0.001 C 
HETATM   16  C16 8UH R 620     -34.287 127.076   7.504  1.00 50.92     0.020 C 
HETATM   17  C17 8UH R 620     -35.641 128.890   6.553  1.00 48.05     0.020 C 
HETATM   18  C18 8UH R 620     -31.549 130.872   8.253  1.00 55.82     0.044 C 
HETATM   19  C19 8UH R 620     -36.020 131.351  10.911  1.00 58.46     0.048 C 
HETATM   20  C20 8UH R 620     -39.164 135.709  11.407  1.00 55.54     0.048 C 
HETATM   21  O3  8UH R 620     -31.478 126.949   5.810  1.00 50.70    -0.395 OA
ATOM     22  H3  8UH R 620     -31.865 126.296   5.240  1.00  0.00     0.210 HD
HETATM   23  C21 8UH R 620     -50.402 144.552   9.556  1.00 15.23    -0.018 C 
HETATM   24  C22 8UH R 620     -51.135 143.873  10.695  1.00 15.23     0.045 C 
HETATM   25  C23 8UH R 620     -50.320 143.692  11.949  1.00 15.23     0.123 C 
HETATM   26  C24 8UH R 620     -49.636 144.993  12.241  1.00 15.23     0.066 C 
HETATM   27  C25 8UH R 620     -48.693 145.347  11.133  1.00 15.23    -0.074 C 
HETATM   28  C26 8UH R 620     -49.010 145.033   9.874  1.00 15.23    -0.048 C 
HETATM   29  C27 8UH R 620     -47.985 144.851   8.842  1.00 15.23     0.009 C 
HETATM   30  C28 8UH R 620     -47.061 143.957   9.209  1.00 15.23     0.007 C 
HETATM   31  C29 8UH R 620     -46.054 143.457   8.268  1.00 46.41    -0.062 C 
HETATM   32  C30 8UH R 620     -45.527 142.292   8.615  1.00 51.67     0.007 C 
HETATM   33  C31 8UH R 620     -44.513 141.584   7.870  1.00 48.57     0.001 C 
HETATM   34  C32 8UH R 620     -43.917 140.675   8.613  1.00 50.80     0.007 C 
HETATM   35  C33 8UH R 620     -42.856 139.818   8.102  1.00 54.69    -0.062 C 
HETATM   36  C34 8UH R 620     -42.331 138.941   8.955  1.00 55.71     0.007 C 
HETATM   37  C35 8UH R 620     -41.285 138.018   8.571  1.00 57.66     0.001 C 
HETATM   38  C36 8UH R 620     -51.181 145.814   9.239  1.00 15.23     0.020 C 
HETATM   39  C37 8UH R 620     -50.391 143.606   8.369  1.00 15.23     0.020 C 
HETATM   40  C38 8UH R 620     -47.315 145.730  11.591  1.00 15.23     0.044 C 
HETATM   41  C39 8UH R 620     -45.650 144.189   7.028  1.00 47.78     0.048 C 
HETATM   42  C40 8UH R 620     -42.391 139.957   6.687  1.00 56.30     0.048 C 
HETATM   43  O23 8UH R 620     -51.192 143.428  13.042  1.00 15.23    -0.395 OA
ATOM     44  H23 8UH R 620     -50.678 143.314  13.833  1.00  0.00     0.210 HD
ENDROOT
TORSDOF 12
