REMARK VINA RESULT:   -10.240      1.387     16.510
REMARK INTER + INTRA:         -11.567
REMARK INTER:                  -8.494
REMARK INTRA:                  -3.073
REMARK UNBOUND:                -1.327
REMARK  0 active torsions:
REMARK  status: ('A' for Active; 'I' for Inactive)
REMARK       I    between atoms: C3_3  and  O3_21 
REMARK       I    between atoms: C6_6  and  C7_7 
REMARK       I    between atoms: C8_8  and  C9_9 
REMARK       I    between atoms: C10_10  and  C11_11 
REMARK       I    between atoms: C12_12  and  C13_13 
REMARK       I    between atoms: C14_14  and  C15_15 
REMARK       I    between atoms: C23_25  and  O23_43 
REMARK       I    between atoms: C26_28  and  C27_29 
REMARK       I    between atoms: C28_30  and  C29_31 
REMARK       I    between atoms: C30_32  and  C31_33 
REMARK       I    between atoms: C32_34  and  C33_35 
REMARK       I    between atoms: C34_36  and  C35_37 
ROOT
HETATM    1  C1  8UH 31620     -49.138 144.407  12.392  1.00 70.34    -0.018 C 
HETATM    2  C2  8UH 31620     -49.480 144.872  13.793  1.00 70.34     0.045 C 
HETATM    3  C3  8UH 31620     -49.494 146.374  14.021  1.00 70.34     0.123 C 
HETATM    4  C4  8UH 31620     -48.310 147.079  13.388  1.00 70.34     0.066 C 
HETATM    5  C5  8UH 31620     -47.720 146.445  12.162  1.00 70.34    -0.074 C 
HETATM    6  C6  8UH 31620     -48.029 145.211  11.752  1.00 70.34    -0.048 C 
HETATM    7  C7  8UH 31620     -47.315 144.594  10.609  1.00 70.34     0.009 C 
HETATM    8  C8  8UH 31620     -46.259 143.802  10.766  1.00 70.34     0.007 C 
HETATM    9  C9  8UH 31620     -45.580 143.181   9.630  1.00 70.34    -0.062 C 
HETATM   10  C10 8UH 31620     -44.520 142.437   9.928  1.00 70.34     0.007 C 
HETATM   11  C11 8UH 31620     -43.716 141.708   8.971  1.00 70.34     0.001 C 
HETATM   12  C12 8UH 31620     -43.017 140.742   9.544  1.00 70.34     0.007 C 
HETATM   13  C13 8UH 31620     -42.130 139.830   8.823  1.00 70.34    -0.062 C 
HETATM   14  C14 8UH 31620     -41.541 138.884   9.545  1.00 70.34     0.007 C 
HETATM   15  C15 8UH 31620     -40.653 137.904   8.951  1.00 70.34     0.001 C 
HETATM   16  C16 8UH 31620     -50.404 144.436  11.545  1.00 70.34     0.020 C 
HETATM   17  C17 8UH 31620     -48.653 142.969  12.522  1.00 70.34     0.020 C 
HETATM   18  C18 8UH 31620     -46.524 147.183  11.636  1.00 70.34     0.044 C 
HETATM   19  C19 8UH 31620     -46.083 143.372   8.236  1.00 70.34     0.048 C 
HETATM   20  C20 8UH 31620     -41.902 139.953   7.349  1.00 70.34     0.048 C 
HETATM   21  O3  8UH 31620     -50.716 146.960  13.568  1.00 70.34    -0.395 OA
ATOM     22  H3  8UH 31620     -51.458 146.518  13.965  1.00  0.00     0.210 HD
HETATM   23  C21 8UH 31620     -34.346 127.697   6.379  1.00 51.40    -0.018 C 
HETATM   24  C22 8UH 31620     -33.755 127.283   5.039  1.00 51.40     0.045 C 
HETATM   25  C23 8UH 31620     -32.349 127.740   4.671  1.00 51.40     0.123 C 
HETATM   26  C24 8UH 31620     -31.560 128.249   5.857  1.00 51.40     0.066 C 
HETATM   27  C25 8UH 31620     -32.397 129.205   6.641  1.00 51.40    -0.074 C 
HETATM   28  C26 8UH 31620     -33.604 128.831   7.049  1.00 51.40    -0.048 C 
HETATM   29  C27 8UH 31620     -34.250 129.500   8.193  1.00 51.40     0.009 C 
HETATM   30  C28 8UH 31620     -34.867 130.660   8.023  1.00 51.40     0.007 C 
HETATM   31  C29 8UH 31620     -35.546 131.336   9.132  1.00 70.34    -0.062 C 
HETATM   32  C30 8UH 31620     -36.306 132.371   8.796  1.00 70.34     0.007 C 
HETATM   33  C31 8UH 31620     -37.067 133.172   9.739  1.00 70.34     0.001 C 
HETATM   34  C32 8UH 31620     -37.753 134.139   9.153  1.00 70.34     0.007 C 
HETATM   35  C33 8UH 31620     -38.603 135.087   9.872  1.00 70.34    -0.062 C 
HETATM   36  C34 8UH 31620     -39.281 135.965   9.136  1.00 70.34     0.007 C 
HETATM   37  C35 8UH 31620     -40.159 136.953   9.731  1.00 70.34     0.001 C 
HETATM   38  C36 8UH 31620     -34.425 126.456   7.259  1.00 51.40     0.020 C 
HETATM   39  C37 8UH 31620     -35.764 128.180   6.131  1.00 51.40     0.020 C 
HETATM   40  C38 8UH 31620     -31.439 129.945   7.521  1.00 51.40     0.044 C 
HETATM   41  C39 8UH 31620     -35.393 130.883  10.551  1.00 70.34     0.048 C 
HETATM   42  C40 8UH 31620     -38.687 135.070  11.362  1.00 70.34     0.048 C 
HETATM   43  O23 8UH 31620     -31.636 126.623   4.137  1.00 51.40    -0.395 OA
ATOM     44  H23 8UH 31620     -32.132 126.303   3.392  1.00  0.00     0.210 HD
ENDROOT
TORSDOF 12
