REMARK VINA RESULT:   -11.571      0.000      0.000
REMARK INTER + INTRA:         -13.674
REMARK INTER:                 -11.571
REMARK INTRA:                  -2.103
REMARK UNBOUND:                -2.103
REMARK  0 active torsions:
REMARK  status: ('A' for Active; 'I' for Inactive)
REMARK       I    between atoms: C3_3  and  O3_21 
REMARK       I    between atoms: C6_6  and  C7_7 
REMARK       I    between atoms: C8_8  and  C9_9 
REMARK       I    between atoms: C10_10  and  C11_11 
REMARK       I    between atoms: C12_12  and  C13_13 
REMARK       I    between atoms: C14_14  and  C15_15 
REMARK       I    between atoms: C23_25  and  O23_43 
REMARK       I    between atoms: C26_28  and  C27_29 
REMARK       I    between atoms: C28_30  and  C29_31 
REMARK       I    between atoms: C30_32  and  C31_33 
REMARK       I    between atoms: C32_34  and  C33_35 
REMARK       I    between atoms: C34_36  and  C35_37 
ROOT
HETATM    1  C1  8UH Z1621     -47.798 145.981  12.390  1.00 27.99    -0.018 C 
HETATM    2  C2  8UH Z1621     -48.319 146.099  13.828  1.00 27.99     0.045 C 
HETATM    3  C3  8UH Z1621     -47.298 146.570  14.855  1.00 27.99     0.123 C 
HETATM    4  C4  8UH Z1621     -46.474 147.685  14.242  1.00 27.99     0.066 C 
HETATM    5  C5  8UH Z1621     -45.686 147.041  13.139  1.00 27.99    -0.074 C 
HETATM    6  C6  8UH Z1621     -46.335 146.357  12.190  1.00 27.99    -0.048 C 
HETATM    7  C7  8UH Z1621     -45.632 145.745  11.040  1.00 27.99     0.009 C 
HETATM    8  C8  8UH Z1621     -44.423 145.213  11.259  1.00 27.99     0.007 C 
HETATM    9  C9  8UH Z1621     -43.805 144.376  10.201  1.00 27.99    -0.062 C 
HETATM   10  C10 8UH Z1621     -42.929 143.428  10.599  1.00 27.99     0.007 C 
HETATM   11  C11 8UH Z1621     -42.366 142.424   9.693  1.00 27.99     0.001 C 
HETATM   12  C12 8UH Z1621     -41.709 141.375  10.189  1.00 27.99     0.007 C 
HETATM   13  C13 8UH Z1621     -41.204 140.294   9.308  1.00 27.99    -0.062 C 
HETATM   14  C14 8UH Z1621     -40.688 139.196   9.900  1.00 27.99     0.007 C 
HETATM   15  C15 8UH Z1621     -40.168 138.033   9.175  1.00 27.99     0.001 C 
HETATM   16  C16 8UH Z1621     -48.547 147.010  11.541  1.00 27.99     0.020 C 
HETATM   17  C17 8UH Z1621     -48.097 144.572  11.883  1.00 27.99     0.020 C 
HETATM   18  C18 8UH Z1621     -44.421 147.809  12.870  1.00 27.99     0.044 C 
HETATM   19  C19 8UH Z1621     -44.246 144.544   8.766  1.00 27.99     0.048 C 
HETATM   20  C20 8UH Z1621     -41.321 140.461   7.814  1.00 27.99     0.048 C 
HETATM   21  O3  8UH Z1621     -47.962 147.033  16.038  1.00 27.99    -0.395 OA
ATOM     22  H3  8UH Z1621     -48.478 146.334  16.422  1.00  0.00     0.210 HD
HETATM   23  C21 8UH Z1621     -34.386 126.886   6.534  1.00 71.39    -0.018 C 
HETATM   24  C22 8UH Z1621     -34.183 126.280   5.151  1.00 71.39     0.045 C 
HETATM   25  C23 8UH Z1621     -33.248 126.997   4.185  1.00 71.39     0.123 C 
HETATM   26  C24 8UH Z1621     -32.163 127.753   4.920  1.00 71.39     0.066 C 
HETATM   27  C25 8UH Z1621     -32.849 128.692   5.867  1.00 71.39    -0.074 C 
HETATM   28  C26 8UH Z1621     -33.788 128.264   6.709  1.00 71.39    -0.048 C 
HETATM   29  C27 8UH Z1621     -34.279 129.101   7.837  1.00 71.39     0.009 C 
HETATM   30  C28 8UH Z1621     -35.221 130.030   7.658  1.00 71.39     0.007 C 
HETATM   31  C29 8UH Z1621     -35.767 130.864   8.729  1.00 27.99    -0.062 C 
HETATM   32  C30 8UH Z1621     -36.675 131.797   8.382  1.00 27.99     0.007 C 
HETATM   33  C31 8UH Z1621     -37.273 132.744   9.321  1.00 27.99     0.001 C 
HETATM   34  C32 8UH Z1621     -38.029 133.734   8.848  1.00 27.99     0.007 C 
HETATM   35  C33 8UH Z1621     -38.581 134.776   9.737  1.00 27.99    -0.062 C 
HETATM   36  C34 8UH Z1621     -39.152 135.845   9.141  1.00 27.99     0.007 C 
HETATM   37  C35 8UH Z1621     -39.690 137.000   9.863  1.00 27.99     0.001 C 
HETATM   38  C36 8UH Z1621     -33.830 125.913   7.567  1.00 71.39     0.020 C 
HETATM   39  C37 8UH Z1621     -35.875 127.013   6.774  1.00 71.39     0.020 C 
HETATM   40  C38 8UH Z1621     -32.009 129.889   6.147  1.00 71.39     0.044 C 
HETATM   41  C39 8UH Z1621     -35.290 130.616  10.137  1.00 27.99     0.048 C 
HETATM   42  C40 8UH Z1621     -38.426 134.627  11.227  1.00 27.99     0.048 C 
HETATM   43  O23 8UH Z1621     -32.614 126.028   3.344  1.00 71.39    -0.395 OA
ATOM     44  H23 8UH Z1621     -32.032 126.475   2.741  1.00  0.00     0.210 HD
ENDROOT
TORSDOF 12
