REMARK VINA RESULT:    -9.128      0.000      0.000
REMARK INTER + INTRA:         -11.936
REMARK INTER:                  -9.128
REMARK INTRA:                  -2.808
REMARK UNBOUND:                -2.808
REMARK  0 active torsions:
REMARK  status: ('A' for Active; 'I' for Inactive)
REMARK       I    between atoms: C3_3  and  O3_21 
REMARK       I    between atoms: C6_6  and  C7_7 
REMARK       I    between atoms: C8_8  and  C9_9 
REMARK       I    between atoms: C10_10  and  C11_11 
REMARK       I    between atoms: C12_12  and  C13_13 
REMARK       I    between atoms: C14_14  and  C15_15 
REMARK       I    between atoms: C23_25  and  O23_43 
REMARK       I    between atoms: C26_28  and  C27_29 
REMARK       I    between atoms: C28_30  and  C29_31 
REMARK       I    between atoms: C30_32  and  C31_33 
REMARK       I    between atoms: C32_34  and  C33_35 
REMARK       I    between atoms: C34_36  and  C35_37 
ROOT
HETATM    1  C1  8UH 8 314     -34.387 126.794   6.329  1.00 73.63    -0.018 C 
HETATM    2  C2  8UH 8 314     -33.872 125.995   5.136  1.00 75.58     0.045 C 
HETATM    3  C3  8UH 8 314     -33.001 126.777   4.167  1.00 77.85     0.123 C 
HETATM    4  C4  8UH 8 314     -31.874 127.458   4.926  1.00 76.46     0.066 C 
HETATM    5  C5  8UH 8 314     -32.427 128.327   6.029  1.00 74.82    -0.074 C 
HETATM    6  C6  8UH 8 314     -33.541 128.000   6.696  1.00 72.89    -0.048 C 
HETATM    7  C7  8UH 8 314     -33.996 128.825   7.842  1.00 69.76     0.009 C 
HETATM    8  C8  8UH 8 314     -34.652 129.969   7.640  1.00 67.74     0.007 C 
HETATM    9  C9  8UH 8 314     -35.146 130.817   8.745  1.00 67.19    -0.062 C 
HETATM   10  C10 8UH 8 314     -35.885 131.886   8.422  1.00 64.55     0.007 C 
HETATM   11  C11 8UH 8 314     -36.472 132.817   9.384  1.00 61.91     0.001 C 
HETATM   12  C12 8UH 8 314     -37.334 133.688   8.866  1.00 60.53     0.007 C 
HETATM   13  C13 8UH 8 314     -38.069 134.705   9.640  1.00 59.33    -0.062 C 
HETATM   14  C14 8UH 8 314     -39.012 135.410   8.991  1.00 60.00     0.007 C 
HETATM   15  C15 8UH 8 314     -39.837 136.429   9.634  1.00 60.35     0.001 C 
HETATM   16  C16 8UH 8 314     -34.467 125.850   7.524  1.00 75.09     0.020 C 
HETATM   17  C17 8UH 8 314     -35.786 127.300   6.002  1.00 73.62     0.020 C 
HETATM   18  C18 8UH 8 314     -31.559 129.462   6.486  1.00 74.16     0.044 C 
HETATM   19  C19 8UH 8 314     -34.843 130.484  10.177  1.00 68.15     0.048 C 
HETATM   20  C20 8UH 8 314     -37.784 134.929  11.096  1.00 57.80     0.048 C 
HETATM   21  O3  8UH 8 314     -32.445 125.868   3.209  1.00 79.25    -0.395 OA
ATOM     22  H3  8UH 8 314     -31.901 126.357   2.603  1.00  0.00     0.210 HD
HETATM   23  C21 8UH 8 314     -49.374 144.510  11.865  1.00 73.56    -0.018 C 
HETATM   24  C22 8UH 8 314     -49.903 145.241  13.102  1.00 73.56     0.045 C 
HETATM   25  C23 8UH 8 314     -49.081 146.397  13.668  1.00 73.56     0.123 C 
HETATM   26  C24 8UH 8 314     -48.307 147.119  12.575  1.00 73.56     0.066 C 
HETATM   27  C25 8UH 8 314     -47.453 146.096  11.877  1.00 73.56    -0.074 C 
HETATM   28  C26 8UH 8 314     -48.005 144.977  11.392  1.00 73.56    -0.048 C 
HETATM   29  C27 8UH 8 314     -47.300 144.190  10.352  1.00 73.56     0.009 C 
HETATM   30  C28 8UH 8 314     -46.368 143.278  10.643  1.00 73.56     0.007 C 
HETATM   31  C29 8UH 8 314     -45.682 142.507   9.584  1.00 75.56    -0.062 C 
HETATM   32  C30 8UH 8 314     -44.951 141.443   9.950  1.00 73.06     0.007 C 
HETATM   33  C31 8UH 8 314     -44.221 140.590   9.013  1.00 70.20     0.001 C 
HETATM   34  C32 8UH 8 314     -43.392 139.709   9.567  1.00 68.68     0.007 C 
HETATM   35  C33 8UH 8 314     -42.556 138.738   8.834  1.00 66.05    -0.062 C 
HETATM   36  C34 8UH 8 314     -41.655 138.027   9.533  1.00 63.06     0.007 C 
HETATM   37  C35 8UH 8 314     -40.791 137.025   8.918  1.00 60.73     0.001 C 
HETATM   38  C36 8UH 8 314     -50.416 144.668  10.759  1.00 73.56     0.020 C 
HETATM   39  C37 8UH 8 314     -49.243 143.030  12.205  1.00 73.56     0.020 C 
HETATM   40  C38 8UH 8 314     -46.352 146.809  11.145  1.00 73.56     0.044 C 
HETATM   41  C39 8UH 8 314     -45.790 142.908   8.142  1.00 73.18     0.048 C 
HETATM   42  C40 8UH 8 314     -42.713 138.545   7.355  1.00 66.25     0.048 C 
HETATM   43  O23 8UH 8 314     -49.962 147.325  14.311  1.00 73.56    -0.395 OA
ATOM     44  H23 8UH 8 314     -49.451 148.044  14.664  1.00  0.00     0.210 HD
ENDROOT
TORSDOF 12
