REMARK VINA RESULT:   -10.632      0.000      0.000
REMARK INTER + INTRA:         -12.495
REMARK INTER:                 -10.632
REMARK INTRA:                  -1.863
REMARK UNBOUND:                -1.863
REMARK  0 active torsions:
REMARK  status: ('A' for Active; 'I' for Inactive)
REMARK       I    between atoms: C3_3  and  O3_21 
REMARK       I    between atoms: C6_6  and  C7_7 
REMARK       I    between atoms: C8_8  and  C9_9 
REMARK       I    between atoms: C10_10  and  C11_11 
REMARK       I    between atoms: C12_12  and  C13_13 
REMARK       I    between atoms: C14_14  and  C15_15 
REMARK       I    between atoms: C23_25  and  O23_43 
REMARK       I    between atoms: C26_28  and  C27_29 
REMARK       I    between atoms: C28_30  and  C29_31 
REMARK       I    between atoms: C30_32  and  C31_33 
REMARK       I    between atoms: C32_34  and  C33_35 
REMARK       I    between atoms: C34_36  and  C35_37 
ROOT
HETATM    1  C1  8UH W1621     -47.832 146.104  12.563  1.00 22.20    -0.018 C 
HETATM    2  C2  8UH W1621     -48.384 146.090  13.983  1.00 22.20     0.045 C 
HETATM    3  C3  8UH W1621     -47.523 146.711  15.060  1.00 22.20     0.123 C 
HETATM    4  C4  8UH W1621     -46.586 147.724  14.449  1.00 22.20     0.066 C 
HETATM    5  C5  8UH W1621     -45.759 146.973  13.458  1.00 22.20    -0.074 C 
HETATM    6  C6  8UH W1621     -46.357 146.364  12.454  1.00 22.20    -0.048 C 
HETATM    7  C7  8UH W1621     -45.631 145.745  11.335  1.00 22.20     0.009 C 
HETATM    8  C8  8UH W1621     -44.452 145.178  11.569  1.00 22.20     0.007 C 
HETATM    9  C9  8UH W1621     -43.847 144.353  10.510  1.00 22.20    -0.062 C 
HETATM   10  C10 8UH W1621     -42.968 143.414  10.879  1.00 22.20     0.007 C 
HETATM   11  C11 8UH W1621     -42.409 142.427   9.961  1.00 22.20     0.001 C 
HETATM   12  C12 8UH W1621     -41.723 141.401  10.447  1.00 22.20     0.007 C 
HETATM   13  C13 8UH W1621     -41.205 140.337   9.568  1.00 22.20    -0.062 C 
HETATM   14  C14 8UH W1621     -40.660 139.256  10.146  1.00 22.20     0.007 C 
HETATM   15  C15 8UH W1621     -40.132 138.116   9.406  1.00 22.20     0.001 C 
HETATM   16  C16 8UH W1621     -48.483 147.227  11.777  1.00 22.20     0.020 C 
HETATM   17  C17 8UH W1621     -48.199 144.792  11.913  1.00 22.20     0.020 C 
HETATM   18  C18 8UH W1621     -44.497 147.738  13.270  1.00 22.20     0.044 C 
HETATM   19  C19 8UH W1621     -44.298 144.521   9.092  1.00 22.20     0.048 C 
HETATM   20  C20 8UH W1621     -41.335 140.497   8.087  1.00 22.20     0.048 C 
HETATM   21  O3  8UH W1621     -48.406 147.354  15.971  1.00 22.20    -0.395 OA
ATOM     22  H3  8UH W1621     -47.865 147.744  16.647  1.00  0.00     0.210 HD
HETATM   23  C21 8UH W1621     -34.466 126.905   6.562  1.00 26.19    -0.018 C 
HETATM   24  C22 8UH W1621     -33.955 126.078   5.388  1.00 26.65     0.045 C 
HETATM   25  C23 8UH W1621     -33.150 126.804   4.327  1.00 28.07     0.123 C 
HETATM   26  C24 8UH W1621     -32.227 127.829   4.935  1.00 30.07     0.066 C 
HETATM   27  C25 8UH W1621     -33.032 128.781   5.757  1.00 28.83    -0.074 C 
HETATM   28  C26 8UH W1621     -33.916 128.321   6.648  1.00 27.49    -0.048 C 
HETATM   29  C27 8UH W1621     -34.403 129.162   7.771  1.00 29.45     0.009 C 
HETATM   30  C28 8UH W1621     -35.270 130.161   7.595  1.00 27.83     0.007 C 
HETATM   31  C29 8UH W1621     -35.781 130.965   8.708  1.00 22.20    -0.062 C 
HETATM   32  C30 8UH W1621     -36.665 131.926   8.402  1.00 22.20     0.007 C 
HETATM   33  C31 8UH W1621     -37.246 132.848   9.368  1.00 22.20     0.001 C 
HETATM   34  C32 8UH W1621     -37.980 133.864   8.932  1.00 22.20     0.007 C 
HETATM   35  C33 8UH W1621     -38.518 134.875   9.854  1.00 22.20    -0.062 C 
HETATM   36  C34 8UH W1621     -39.096 135.957   9.309  1.00 22.20     0.007 C 
HETATM   37  C35 8UH W1621     -39.634 137.083  10.065  1.00 22.20     0.001 C 
HETATM   38  C36 8UH W1621     -34.088 126.106   7.797  1.00 26.46     0.020 C 
HETATM   39  C37 8UH W1621     -35.980 127.014   6.468  1.00 26.61     0.020 C 
HETATM   40  C38 8UH W1621     -32.145 129.954   6.015  1.00 29.43     0.044 C 
HETATM   41  C39 8UH W1621     -35.320 130.652  10.097  1.00 22.20     0.048 C 
HETATM   42  C40 8UH W1621     -38.338 134.680  11.326  1.00 22.20     0.048 C 
HETATM   43  O23 8UH W1621     -32.370 125.850   3.612  1.00 27.44    -0.395 OA
ATOM     44  H23 8UH W1621     -31.865 126.304   2.948  1.00  0.00     0.210 HD
ENDROOT
TORSDOF 12
