REMARK VINA RESULT:    -9.535      1.346     16.941
REMARK INTER + INTRA:         -10.471
REMARK INTER:                  -7.771
REMARK INTRA:                  -2.701
REMARK UNBOUND:                -0.936
REMARK  0 active torsions:
REMARK  status: ('A' for Active; 'I' for Inactive)
REMARK       I    between atoms: C3_3  and  O3_21 
REMARK       I    between atoms: C6_6  and  C7_7 
REMARK       I    between atoms: C8_8  and  C9_9 
REMARK       I    between atoms: C10_10  and  C11_11 
REMARK       I    between atoms: C12_12  and  C13_13 
REMARK       I    between atoms: C14_14  and  C15_15 
REMARK       I    between atoms: C23_25  and  O23_43 
REMARK       I    between atoms: C26_28  and  C27_29 
REMARK       I    between atoms: C28_30  and  C29_31 
REMARK       I    between atoms: C30_32  and  C31_33 
REMARK       I    between atoms: C32_34  and  C33_35 
REMARK       I    between atoms: C34_36  and  C35_37 
ROOT
HETATM    1  C1  8UH D3620     -34.575 127.022   6.121  1.00 21.49    -0.018 C 
HETATM    2  C2  8UH D3620     -34.095 126.375   4.803  1.00 21.50     0.045 C 
HETATM    3  C3  8UH D3620     -32.840 126.916   4.109  1.00 22.37     0.123 C 
HETATM    4  C4  8UH D3620     -31.943 127.804   4.975  1.00 21.17     0.066 C 
HETATM    5  C5  8UH D3620     -32.539 128.558   6.119  1.00 19.70    -0.074 C 
HETATM    6  C6  8UH D3620     -33.760 128.224   6.675  1.00 20.41    -0.048 C 
HETATM    7  C7  8UH D3620     -34.342 128.973   7.807  1.00 19.41     0.009 C 
HETATM    8  C8  8UH D3620     -34.969 130.157   7.770  1.00 18.90     0.007 C 
HETATM    9  C9  8UH D3620     -35.416 130.961   8.912  1.00 20.60    -0.062 C 
HETATM   10  C10 8UH D3620     -36.127 132.077   8.646  1.00 18.78     0.007 C 
HETATM   11  C11 8UH D3620     -36.670 132.995   9.601  1.00 19.97     0.001 C 
HETATM   12  C12 8UH D3620     -37.504 133.962   9.182  1.00 23.02     0.007 C 
HETATM   13  C13 8UH D3620     -38.201 134.978   9.972  1.00 23.57    -0.062 C 
HETATM   14  C14 8UH D3620     -39.077 135.776   9.323  1.00 23.43     0.007 C 
HETATM   15  C15 8UH D3620     -39.931 136.781   9.886  1.00 24.57     0.001 C 
HETATM   16  C16 8UH D3620     -34.523 125.853   7.123  1.00 19.84     0.020 C 
HETATM   17  C17 8UH D3620     -36.059 127.427   5.922  1.00 19.63     0.020 C 
HETATM   18  C18 8UH D3620     -31.588 129.642   6.482  1.00 19.29     0.044 C 
HETATM   19  C19 8UH D3620     -35.098 130.466  10.305  1.00 18.57     0.048 C 
HETATM   20  C20 8UH D3620     -37.949 135.014  11.447  1.00 22.43     0.048 C 
HETATM   21  O3  8UH D3620     -32.083 125.850   3.560  1.00 22.38    -0.395 OA
ATOM     22  H3  8UH D3620     -31.304 126.185   3.130  1.00  0.00     0.210 HD
HETATM   23  C21 8UH D3620     -49.394 144.645  12.817  1.00 87.69    -0.018 C 
HETATM   24  C22 8UH D3620     -49.655 145.141  14.226  1.00 87.69     0.045 C 
HETATM   25  C23 8UH D3620     -49.277 146.587  14.522  1.00 87.69     0.123 C 
HETATM   26  C24 8UH D3620     -48.120 147.137  13.701  1.00 87.69     0.066 C 
HETATM   27  C25 8UH D3620     -47.394 146.084  12.904  1.00 87.69    -0.074 C 
HETATM   28  C26 8UH D3620     -48.047 145.087  12.313  1.00 87.69    -0.048 C 
HETATM   29  C27 8UH D3620     -47.487 144.412  11.120  1.00 87.69     0.009 C 
HETATM   30  C28 8UH D3620     -46.575 143.454  11.244  1.00 87.69     0.007 C 
HETATM   31  C29 8UH D3620     -45.980 142.713  10.085  1.00 31.15    -0.062 C 
HETATM   32  C30 8UH D3620     -45.052 141.773  10.363  1.00 29.00     0.007 C 
HETATM   33  C31 8UH D3620     -44.360 140.951   9.417  1.00 26.88     0.001 C 
HETATM   34  C32 8UH D3620     -43.424 140.086   9.817  1.00 27.02     0.007 C 
HETATM   35  C33 8UH D3620     -42.594 139.182   9.012  1.00 27.13    -0.062 C 
HETATM   36  C34 8UH D3620     -41.692 138.415   9.664  1.00 25.88     0.007 C 
HETATM   37  C35 8UH D3620     -40.779 137.459   9.106  1.00 25.96     0.001 C 
HETATM   38  C36 8UH D3620     -50.511 145.079  11.872  1.00 87.69     0.020 C 
HETATM   39  C37 8UH D3620     -49.383 143.133  12.871  1.00 87.69     0.020 C 
HETATM   40  C38 8UH D3620     -46.377 146.895  12.164  1.00 87.69     0.044 C 
HETATM   41  C39 8UH D3620     -46.425 143.060   8.693  1.00 30.08     0.048 C 
HETATM   42  C40 8UH D3620     -42.796 139.180   7.525  1.00 24.80     0.048 C 
HETATM   43  O23 8UH D3620     -50.429 147.387  14.257  1.00 87.69    -0.395 OA
ATOM     44  H23 8UH D3620     -51.152 147.043  14.769  1.00  0.00     0.210 HD
ENDROOT
TORSDOF 12
