REMARK VINA RESULT:    -9.666      1.593     16.868
REMARK INTER + INTRA:         -10.012
REMARK INTER:                  -6.706
REMARK INTRA:                  -3.306
REMARK UNBOUND:                -0.346
REMARK  0 active torsions:
REMARK  status: ('A' for Active; 'I' for Inactive)
REMARK       I    between atoms: C3_3  and  O3_21 
REMARK       I    between atoms: C6_6  and  C7_7 
REMARK       I    between atoms: C8_8  and  C9_9 
REMARK       I    between atoms: C10_10  and  C11_11 
REMARK       I    between atoms: C12_12  and  C13_13 
REMARK       I    between atoms: C14_14  and  C15_15 
REMARK       I    between atoms: C23_25  and  O23_43 
REMARK       I    between atoms: C26_28  and  C27_29 
REMARK       I    between atoms: C28_30  and  C29_31 
REMARK       I    between atoms: C30_32  and  C31_33 
REMARK       I    between atoms: C32_34  and  C33_35 
REMARK       I    between atoms: C34_36  and  C35_37 
ROOT
HETATM    1  C1  8UH 4 616     -49.218 145.328  12.639  1.00 72.69    -0.018 C 
HETATM    2  C2  8UH 4 616     -49.892 145.551  13.992  1.00 72.50     0.045 C 
HETATM    3  C3  8UH 4 616     -49.197 146.469  14.994  1.00 72.53     0.123 C 
HETATM    4  C4  8UH 4 616     -48.351 147.531  14.313  1.00 73.67     0.066 C 
HETATM    5  C5  8UH 4 616     -47.403 146.877  13.346  1.00 74.71    -0.074 C 
HETATM    6  C6  8UH 4 616     -47.836 145.933  12.512  1.00 74.26    -0.048 C 
HETATM    7  C7  8UH 4 616     -46.955 145.421  11.439  1.00 75.37     0.009 C 
HETATM    8  C8  8UH 4 616     -46.058 144.475  11.718  1.00 77.10     0.007 C 
HETATM    9  C9  8UH 4 616     -45.162 143.912  10.690  1.00 78.39    -0.062 C 
HETATM   10  C10 8UH 4 616     -44.321 142.927  11.045  1.00 81.08     0.007 C 
HETATM   11  C11 8UH 4 616     -43.404 142.284  10.104  1.00 84.31     0.001 C 
HETATM   12  C12 8UH 4 616     -42.790 141.181  10.524  1.00 87.06     0.007 C 
HETATM   13  C13 8UH 4 616     -41.854 140.395   9.697  1.00 89.04    -0.062 C 
HETATM   14  C14 8UH 4 616     -41.391 139.242  10.207  1.00 90.91     0.007 C 
HETATM   15  C15 8UH 4 616     -40.485 138.351   9.487  1.00 91.21     0.001 C 
HETATM   16  C16 8UH 4 616     -50.113 145.920  11.558  1.00 72.40     0.020 C 
HETATM   17  C17 8UH 4 616     -49.078 143.830  12.404  1.00 73.92     0.020 C 
HETATM   18  C18 8UH 4 616     -46.122 147.612  13.080  1.00 74.98     0.044 C 
HETATM   19  C19 8UH 4 616     -45.204 144.425   9.282  1.00 77.08     0.048 C 
HETATM   20  C20 8UH 4 616     -41.444 140.861   8.331  1.00 88.60     0.048 C 
HETATM   21  O3  8UH 4 616     -50.202 147.123  15.777  1.00 71.08    -0.395 OA
ATOM     22  H3  8UH 4 616     -50.731 146.458  16.203  1.00  0.00     0.210 HD
HETATM   23  C21 8UH 4 616     -34.501 127.794   6.141  1.00 23.68    -0.018 C 
HETATM   24  C22 8UH 4 616     -33.800 127.298   4.880  1.00 23.68     0.045 C 
HETATM   25  C23 8UH 4 616     -32.355 127.717   4.637  1.00 23.68     0.123 C 
HETATM   26  C24 8UH 4 616     -31.622 128.000   5.935  1.00 23.68     0.066 C 
HETATM   27  C25 8UH 4 616     -32.416 129.004   6.721  1.00 23.68    -0.074 C 
HETATM   28  C26 8UH 4 616     -33.715 128.805   6.958  1.00 23.68    -0.048 C 
HETATM   29  C27 8UH 4 616     -34.409 129.536   8.054  1.00 23.68     0.009 C 
HETATM   30  C28 8UH 4 616     -34.914 130.765   7.906  1.00 23.68     0.007 C 
HETATM   31  C29 8UH 4 616     -35.604 131.471   8.995  1.00 94.55    -0.062 C 
HETATM   32  C30 8UH 4 616     -36.391 132.510   8.684  1.00 95.44     0.007 C 
HETATM   33  C31 8UH 4 616     -37.148 133.282   9.669  1.00 95.37     0.001 C 
HETATM   34  C32 8UH 4 616     -37.821 134.327   9.195  1.00 94.20     0.007 C 
HETATM   35  C33 8UH 4 616     -38.665 135.226  10.003  1.00 92.43    -0.062 C 
HETATM   36  C34 8UH 4 616     -39.181 136.311   9.403  1.00 91.40     0.007 C 
HETATM   37  C35 8UH 4 616     -40.055 137.247  10.100  1.00 91.41     0.001 C 
HETATM   38  C36 8UH 4 616     -34.828 126.557   6.960  1.00 23.68     0.020 C 
HETATM   39  C37 8UH 4 616     -35.803 128.463   5.728  1.00 23.68     0.020 C 
HETATM   40  C38 8UH 4 616     -31.526 129.651   7.738  1.00 23.68     0.044 C 
HETATM   41  C39 8UH 4 616     -35.427 131.033  10.419  1.00 93.92     0.048 C 
HETATM   42  C40 8UH 4 616     -38.951 134.925  11.444  1.00 91.99     0.048 C 
HETATM   43  O23 8UH 4 616     -31.689 126.657   3.947  1.00 23.68    -0.395 OA
ATOM     44  H23 8UH 4 616     -32.147 126.480   3.134  1.00  0.00     0.210 HD
ENDROOT
TORSDOF 12
