REMARK VINA RESULT:    -9.426      0.000      0.000
REMARK INTER + INTRA:         -12.459
REMARK INTER:                  -9.426
REMARK INTRA:                  -3.033
REMARK UNBOUND:                -3.033
REMARK  0 active torsions:
REMARK  status: ('A' for Active; 'I' for Inactive)
REMARK       I    between atoms: C3_3  and  O3_21 
REMARK       I    between atoms: C6_6  and  C7_7 
REMARK       I    between atoms: C8_8  and  C9_9 
REMARK       I    between atoms: C10_10  and  C11_11 
REMARK       I    between atoms: C12_12  and  C13_13 
REMARK       I    between atoms: C14_14  and  C15_15 
REMARK       I    between atoms: C23_25  and  O23_43 
REMARK       I    between atoms: C26_28  and  C27_29 
REMARK       I    between atoms: C28_30  and  C29_31 
REMARK       I    between atoms: C30_32  and  C31_33 
REMARK       I    between atoms: C32_34  and  C33_35 
REMARK       I    between atoms: C34_36  and  C35_37 
ROOT
HETATM    1  C1  8UH 1 316     -48.990 144.330  12.022  1.00 73.24    -0.018 C 
HETATM    2  C2  8UH 1 316     -49.562 144.831  13.351  1.00 72.84     0.045 C 
HETATM    3  C3  8UH 1 316     -48.677 145.764  14.169  1.00 72.53     0.123 C 
HETATM    4  C4  8UH 1 316     -47.997 146.769  13.260  1.00 72.61     0.066 C 
HETATM    5  C5  8UH 1 316     -47.180 146.034  12.231  1.00 72.68    -0.074 C 
HETATM    6  C6  8UH 1 316     -47.671 144.960  11.611  1.00 72.79    -0.048 C 
HETATM    7  C7  8UH 1 316     -46.913 144.351  10.491  1.00 71.90     0.009 C 
HETATM    8  C8  8UH 1 316     -45.927 143.483  10.735  1.00 71.51     0.007 C 
HETATM    9  C9  8UH 1 316     -45.140 142.840   9.661  1.00 70.48    -0.062 C 
HETATM   10  C10 8UH 1 316     -44.212 141.937  10.014  1.00 69.46     0.007 C 
HETATM   11  C11 8UH 1 316     -43.358 141.212   9.075  1.00 69.85     0.001 C 
HETATM   12  C12 8UH 1 316     -42.514 140.328   9.607  1.00 72.15     0.007 C 
HETATM   13  C13 8UH 1 316     -41.583 139.485   8.826  1.00 73.74    -0.062 C 
HETATM   14  C14 8UH 1 316     -40.977 138.468   9.464  1.00 74.04     0.007 C 
HETATM   15  C15 8UH 1 316     -40.055 137.544   8.806  1.00 74.62     0.001 C 
HETATM   16  C16 8UH 1 316     -50.019 144.606  10.932  1.00 72.68     0.020 C 
HETATM   17  C17 8UH 1 316     -48.769 142.826  12.136  1.00 73.05     0.020 C 
HETATM   18  C18 8UH 1 316     -45.970 146.742  11.691  1.00 72.13     0.044 C 
HETATM   19  C19 8UH 1 316     -45.368 143.196   8.221  1.00 70.45     0.048 C 
HETATM   20  C20 8UH 1 316     -41.323 139.760   7.371  1.00 72.89     0.048 C 
HETATM   21  O3  8UH 1 316     -49.482 146.464  15.128  1.00 71.04    -0.395 OA
ATOM     22  H3  8UH 1 316     -49.908 145.833  15.698  1.00  0.00     0.210 HD
HETATM   23  C21 8UH 1 316     -33.565 126.640   6.949  1.00 32.96    -0.018 C 
HETATM   24  C22 8UH 1 316     -34.051 126.216   5.564  1.00 32.96     0.045 C 
HETATM   25  C23 8UH 1 316     -33.631 127.117   4.410  1.00 32.96     0.123 C 
HETATM   26  C24 8UH 1 316     -32.356 127.856   4.754  1.00 32.96     0.066 C 
HETATM   27  C25 8UH 1 316     -32.627 128.690   5.974  1.00 32.96    -0.074 C 
HETATM   28  C26 8UH 1 316     -33.165 128.089   7.040  1.00 32.96    -0.048 C 
HETATM   29  C27 8UH 1 316     -33.619 128.847   8.213  1.00 32.96     0.009 C 
HETATM   30  C28 8UH 1 316     -34.379 129.895   7.887  1.00 32.96     0.007 C 
HETATM   31  C29 8UH 1 316     -35.113 130.666   8.912  1.00 94.72    -0.062 C 
HETATM   32  C30 8UH 1 316     -35.865 131.692   8.495  1.00 91.32     0.007 C 
HETATM   33  C31 8UH 1 316     -36.662 132.534   9.384  1.00 87.88     0.001 C 
HETATM   34  C32 8UH 1 316     -37.262 133.581   8.824  1.00 84.19     0.007 C 
HETATM   35  C33 8UH 1 316     -38.130 134.524   9.552  1.00 80.79    -0.062 C 
HETATM   36  C34 8UH 1 316     -38.640 135.573   8.881  1.00 78.84     0.007 C 
HETATM   37  C35 8UH 1 316     -39.536 136.538   9.514  1.00 76.79     0.001 C 
HETATM   38  C36 8UH 1 316     -32.307 125.851   7.294  1.00 32.96     0.020 C 
HETATM   39  C37 8UH 1 316     -34.641 126.360   7.988  1.00 32.96     0.020 C 
HETATM   40  C38 8UH 1 316     -32.002 130.062   6.005  1.00 32.96     0.044 C 
HETATM   41  C39 8UH 1 316     -35.028 130.305  10.365  1.00 95.37     0.048 C 
HETATM   42  C40 8UH 1 316     -38.450 134.297  10.999  1.00 90.13     0.048 C 
HETATM   43  O23 8UH 1 316     -33.389 126.324   3.244  1.00 32.96    -0.395 OA
ATOM     44  H23 8UH 1 316     -34.189 125.860   3.028  1.00  0.00     0.210 HD
ENDROOT
TORSDOF 12
