REMARK VINA RESULT:   -11.685      0.000      0.000
REMARK INTER + INTRA:         -11.956
REMARK INTER:                 -11.685
REMARK INTRA:                  -0.271
REMARK UNBOUND:                -0.271
REMARK  0 active torsions:
REMARK  status: ('A' for Active; 'I' for Inactive)
REMARK       I    between atoms: C3_3  and  O3_21 
REMARK       I    between atoms: C6_6  and  C7_7 
REMARK       I    between atoms: C8_8  and  C9_9 
REMARK       I    between atoms: C10_10  and  C11_11 
REMARK       I    between atoms: C12_12  and  C13_13 
REMARK       I    between atoms: C14_14  and  C15_15 
REMARK       I    between atoms: C23_25  and  O23_43 
REMARK       I    between atoms: C26_28  and  C27_29 
REMARK       I    between atoms: C28_30  and  C29_31 
REMARK       I    between atoms: C30_32  and  C31_33 
REMARK       I    between atoms: C32_34  and  C33_35 
REMARK       I    between atoms: C34_36  and  C35_37 
ROOT
HETATM    1  C1  8UH S1621     -49.474 145.152  12.354  1.00 98.50    -0.018 C 
HETATM    2  C2  8UH S1621     -50.443 145.835  13.298  1.00 95.05     0.045 C 
HETATM    3  C3  8UH S1621     -49.770 146.262  14.583  1.00 91.19     0.123 C 
HETATM    4  C4  8UH S1621     -48.639 147.228  14.300  1.00 95.39     0.066 C 
HETATM    5  C5  8UH S1621     -47.887 146.959  13.023  1.00 94.24    -0.074 C 
HETATM    6  C6  8UH S1621     -48.178 145.937  12.187  1.00 98.17    -0.048 C 
HETATM    7  C7  8UH S1621     -47.284 145.563  11.051  1.00 96.30     0.009 C 
HETATM    8  C8  8UH S1621     -46.232 144.748  11.185  1.00 99.74     0.007 C 
HETATM    9  C9  8UH S1621     -45.347 144.331  10.097  1.00 91.17    -0.062 C 
HETATM   10  C10 8UH S1621     -44.530 143.324  10.403  1.00 97.68     0.007 C 
HETATM   11  C11 8UH S1621     -43.593 142.730   9.471  1.00 98.02     0.001 C 
HETATM   12  C12 8UH S1621     -43.133 141.560   9.871  1.00 91.18     0.007 C 
HETATM   13  C13 8UH S1621     -42.202 140.752   9.085  1.00 90.92    -0.062 C 
HETATM   14  C14 8UH S1621     -41.830 139.594   9.625  1.00 96.50     0.007 C 
HETATM   15  C15 8UH S1621     -40.932 138.657   8.985  1.00 99.38     0.001 C 
HETATM   16  C16 8UH S1621     -50.261 144.921  11.073  1.00 90.00     0.020 C 
HETATM   17  C17 8UH S1621     -49.088 143.791  12.897  1.00 93.85     0.020 C 
HETATM   18  C18 8UH S1621     -46.533 147.585  13.126  1.00 91.76     0.044 C 
HETATM   19  C19 8UH S1621     -45.366 144.975   8.744  1.00 90.99     0.048 C 
HETATM   20  C20 8UH S1621     -41.719 141.205   7.741  1.00 93.33     0.048 C 
HETATM   21  O3  8UH S1621     -50.725 146.933  15.404  1.00 92.07    -0.395 OA
ATOM     22  H3  8UH S1621     -50.302 147.201  16.211  1.00  0.00     0.210 HD
HETATM   23  C21 8UH S1621     -33.895 128.086   7.427  1.00 98.00    -0.022 C 
HETATM   24  C22 8UH S1621     -32.591 127.451   6.957  1.00 98.00     0.045 C 
HETATM   25  C23 8UH S1621     -31.883 128.223   5.846  1.00 98.00     0.119 C 
HETATM   26  C24 8UH S1621     -31.710 129.685   6.224  1.00 98.00     0.040 C 
HETATM   27  C25 8UH S1621     -33.064 130.226   6.590  1.00 98.00     0.013 C 
HETATM   28  C26 8UH S1621     -33.780 129.586   7.500  1.00 98.00    -0.068 C 
HETATM   29  C27 8UH S1621     -34.430 130.327   8.590  1.00 98.00     0.004 C 
HETATM   30  C28 8UH S1621     -35.387 131.195   8.288  1.00 98.00     0.007 C 
HETATM   31  C29 8UH S1621     -36.086 131.938   9.340  1.00 98.43    -0.062 C 
HETATM   32  C30 8UH S1621     -36.978 132.821   8.918  1.00 92.06     0.007 C 
HETATM   33  C31 8UH S1621     -37.782 133.649   9.792  1.00 98.99     0.001 C 
HETATM   34  C32 8UH S1621     -38.276 134.710   9.182  1.00 98.35     0.007 C 
HETATM   35  C33 8UH S1621     -39.143 135.673   9.855  1.00 93.74    -0.062 C 
HETATM   36  C34 8UH S1621     -39.498 136.759   9.174  1.00 95.45     0.007 C 
HETATM   37  C35 8UH S1621     -40.383 137.741   9.766  1.00 96.56     0.001 C 
HETATM   38  C36 8UH S1621     -34.263 127.511   8.789  1.00 98.00     0.019 C 
HETATM   39  C37 8UH S1621     -35.020 127.768   6.453  1.00 98.00     0.019 C 
HETATM   40  C38 8UH S1621     -32.058 131.267   6.991  1.00 98.00     0.015 C 
HETATM   41  C39 8UH S1621     -35.808 131.711  10.795  1.00 93.10     0.048 C 
HETATM   42  C40 8UH S1621     -39.625 135.408  11.245  1.00 95.49     0.048 C 
HETATM   43  O23 8UH S1621     -30.601 127.643   5.590  1.00 98.00    -0.396 OA
ATOM     44  H23 8UH S1621     -30.709 126.729   5.354  1.00  0.00     0.210 HD
ENDROOT
TORSDOF 12
