REMARK VINA RESULT:   -11.769      0.000      0.000
REMARK INTER + INTRA:         -11.915
REMARK INTER:                 -11.769
REMARK INTRA:                  -0.146
REMARK UNBOUND:                -0.146
REMARK  0 active torsions:
REMARK  status: ('A' for Active; 'I' for Inactive)
REMARK       I    between atoms: C3_3  and  O3_21 
REMARK       I    between atoms: C6_6  and  C7_7 
REMARK       I    between atoms: C8_8  and  C9_9 
REMARK       I    between atoms: C10_10  and  C11_11 
REMARK       I    between atoms: C12_12  and  C13_13 
REMARK       I    between atoms: C14_14  and  C15_15 
REMARK       I    between atoms: C23_25  and  O23_43 
REMARK       I    between atoms: C26_28  and  C27_29 
REMARK       I    between atoms: C28_30  and  C29_31 
REMARK       I    between atoms: C30_32  and  C31_33 
REMARK       I    between atoms: C32_34  and  C33_35 
REMARK       I    between atoms: C34_36  and  C35_37 
ROOT
HETATM    1  C1  8UH X1621     -34.182 127.894   6.827  1.00 31.86    -0.018 C 
HETATM    2  C2  8UH X1621     -33.652 127.695   5.404  1.00 31.86     0.045 C 
HETATM    3  C3  8UH X1621     -32.359 128.418   5.042  1.00 31.86     0.123 C 
HETATM    4  C4  8UH X1621     -31.583 128.842   6.281  1.00 31.86     0.066 C 
HETATM    5  C5  8UH X1621     -32.518 129.668   7.112  1.00 31.86    -0.074 C 
HETATM    6  C6  8UH X1621     -33.649 129.114   7.546  1.00 31.86    -0.048 C 
HETATM    7  C7  8UH X1621     -34.504 129.748   8.572  1.00 31.86     0.009 C 
HETATM    8  C8  8UH X1621     -34.561 131.082   8.638  1.00 31.86     0.007 C 
HETATM    9  C9  8UH X1621     -35.592 131.701   9.501  1.00 31.86    -0.062 C 
HETATM   10  C10 8UH X1621     -35.990 132.947   9.174  1.00 31.86     0.007 C 
HETATM   11  C11 8UH X1621     -37.111 133.628   9.820  1.00 31.86     0.001 C 
HETATM   12  C12 8UH X1621     -37.611 134.729   9.263  1.00 31.86     0.007 C 
HETATM   13  C13 8UH X1621     -38.801 135.406   9.825  1.00 31.86    -0.062 C 
HETATM   14  C14 8UH X1621     -39.324 136.427   9.114  1.00 31.86     0.007 C 
HETATM   15  C15 8UH X1621     -40.511 137.184   9.516  1.00 31.86     0.001 C 
HETATM   16  C16 8UH X1621     -33.755 126.707   7.688  1.00 31.86     0.020 C 
HETATM   17  C17 8UH X1621     -35.702 127.911   6.764  1.00 31.86     0.020 C 
HETATM   18  C18 8UH X1621     -31.610 130.448   8.021  1.00 31.86     0.044 C 
HETATM   19  C19 8UH X1621     -36.215 130.903  10.624  1.00 31.86     0.048 C 
HETATM   20  C20 8UH X1621     -39.379 134.906  11.126  1.00 31.86     0.048 C 
HETATM   21  O3  8UH X1621     -31.587 127.497   4.275  1.00 31.86    -0.395 OA
ATOM     22  H3  8UH X1621     -32.071 127.233   3.502  1.00  0.00     0.210 HD
HETATM   23  C21 8UH X1621     -49.819 146.434   9.566  1.00 27.99    -0.018 C 
HETATM   24  C22 8UH X1621     -51.238 146.267  10.124  1.00 27.99     0.045 C 
HETATM   25  C23 8UH X1621     -51.341 145.465  11.414  1.00 27.99     0.123 C 
HETATM   26  C24 8UH X1621     -50.198 145.865  12.326  1.00 27.99     0.066 C 
HETATM   27  C25 8UH X1621     -48.952 145.389  11.639  1.00 27.99    -0.074 C 
HETATM   28  C26 8UH X1621     -48.713 145.779  10.382  1.00 27.99    -0.048 C 
HETATM   29  C27 8UH X1621     -47.477 145.397   9.661  1.00 27.99     0.009 C 
HETATM   30  C28 8UH X1621     -46.982 144.172   9.875  1.00 27.99     0.007 C 
HETATM   31  C29 8UH X1621     -45.899 143.654   8.995  1.00 31.86    -0.062 C 
HETATM   32  C30 8UH X1621     -45.408 142.440   9.321  1.00 31.86     0.007 C 
HETATM   33  C31 8UH X1621     -44.309 141.782   8.615  1.00 31.86     0.001 C 
HETATM   34  C32 8UH X1621     -43.813 140.649   9.108  1.00 31.86     0.007 C 
HETATM   35  C33 8UH X1621     -42.652 139.974   8.490  1.00 31.86    -0.062 C 
HETATM   36  C34 8UH X1621     -42.136 138.923   9.161  1.00 31.86     0.007 C 
HETATM   37  C35 8UH X1621     -40.957 138.164   8.737  1.00 31.86     0.001 C 
HETATM   38  C36 8UH X1621     -49.470 147.923   9.627  1.00 27.99     0.020 C 
HETATM   39  C37 8UH X1621     -49.813 145.957   8.115  1.00 27.99     0.020 C 
HETATM   40  C38 8UH X1621     -47.855 145.139  12.639  1.00 27.99     0.044 C 
HETATM   41  C39 8UH X1621     -45.426 144.477   7.823  1.00 31.86     0.048 C 
HETATM   42  C40 8UH X1621     -42.084 140.512   7.203  1.00 31.86     0.048 C 
HETATM   43  O23 8UH X1621     -52.600 145.713  12.054  1.00 27.99    -0.395 OA
ATOM     44  H23 8UH X1621     -53.316 145.462  11.482  1.00  0.00     0.210 HD
ENDROOT
TORSDOF 12
