REMARK VINA RESULT:    -6.212      1.852     16.220
REMARK INTER + INTRA:          -9.552
REMARK INTER:                  -5.383
REMARK INTRA:                  -4.169
REMARK UNBOUND:                -3.340
REMARK  0 active torsions:
REMARK  status: ('A' for Active; 'I' for Inactive)
REMARK       I    between atoms: C3_3  and  O3_21 
REMARK       I    between atoms: C6_6  and  C7_7 
REMARK       I    between atoms: C8_8  and  C9_9 
REMARK       I    between atoms: C10_10  and  C11_11 
REMARK       I    between atoms: C12_12  and  C13_13 
REMARK       I    between atoms: C14_14  and  C15_15 
REMARK       I    between atoms: C23_25  and  O23_43 
REMARK       I    between atoms: C26_28  and  C27_29 
REMARK       I    between atoms: C28_30  and  C29_31 
REMARK       I    between atoms: C30_32  and  C31_33 
REMARK       I    between atoms: C32_34  and  C33_35 
REMARK       I    between atoms: C34_36  and  C35_37 
ROOT
HETATM    1  C1  8UH X1620     -47.004 147.957   9.549  1.00 33.88    -0.022 C 
HETATM    2  C2  8UH X1620     -48.322 147.196   9.539  1.00 33.88     0.045 C 
HETATM    3  C3  8UH X1620     -48.632 146.460  10.825  1.00 33.88     0.119 C 
HETATM    4  C4  8UH X1620     -48.586 147.478  11.944  1.00 33.88     0.040 C 
HETATM    5  C5  8UH X1620     -47.204 148.073  12.024  1.00 33.88     0.013 C 
HETATM    6  C6  8UH X1620     -46.404 148.026  10.953  1.00 33.88    -0.068 C 
HETATM    7  C7  8UH X1620     -44.976 147.715  11.101  1.00 33.88     0.004 C 
HETATM    8  C8  8UH X1620     -44.826 146.395  10.928  1.00 33.88     0.007 C 
HETATM    9  C9  8UH X1620     -43.523 145.694  11.067  1.00 33.88    -0.062 C 
HETATM   10  C10 8UH X1620     -43.539 144.355  10.865  1.00 33.88     0.007 C 
HETATM   11  C11 8UH X1620     -42.352 143.510  10.925  1.00 33.88     0.001 C 
HETATM   12  C12 8UH X1620     -42.436 142.214  10.662  1.00 33.88     0.007 C 
HETATM   13  C13 8UH X1620     -41.230 141.366  10.646  1.00 33.88    -0.062 C 
HETATM   14  C14 8UH X1620     -41.409 140.108  10.213  1.00 33.88     0.007 C 
HETATM   15  C15 8UH X1620     -40.346 139.115  10.049  1.00 33.88     0.001 C 
HETATM   16  C16 8UH X1620     -47.311 149.292   8.875  1.00 33.88     0.019 C 
HETATM   17  C17 8UH X1620     -46.039 147.168   8.666  1.00 33.88     0.019 C 
HETATM   18  C18 8UH X1620     -46.800 147.552  13.379  1.00 33.88     0.015 C 
HETATM   19  C19 8UH X1620     -42.263 146.465  11.399  1.00 33.88     0.048 C 
HETATM   20  C20 8UH X1620     -39.894 141.957  11.011  1.00 33.88     0.048 C 
HETATM   21  O3  8UH X1620     -49.953 145.925  10.693  1.00 33.88    -0.396 OA
ATOM     22  H3  8UH X1620     -50.147 145.463  11.500  1.00  0.00     0.210 HD
HETATM   23  C21 8UH X1620     -34.335 128.303   5.900  1.00 31.86    -0.018 C 
HETATM   24  C22 8UH X1620     -32.954 128.440   5.250  1.00 31.86     0.045 C 
HETATM   25  C23 8UH X1620     -31.839 129.018   6.113  1.00 31.86     0.123 C 
HETATM   26  C24 8UH X1620     -32.172 128.937   7.597  1.00 31.86     0.066 C 
HETATM   27  C25 8UH X1620     -33.491 129.628   7.779  1.00 31.86    -0.074 C 
HETATM   28  C26 8UH X1620     -34.555 129.162   7.126  1.00 31.86    -0.048 C 
HETATM   29  C27 8UH X1620     -35.932 129.604   7.431  1.00 31.86     0.009 C 
HETATM   30  C28 8UH X1620     -36.136 130.852   7.860  1.00 31.86     0.007 C 
HETATM   31  C29 8UH X1620     -37.533 131.389   7.945  1.00 33.88    -0.062 C 
HETATM   32  C30 8UH X1620     -37.598 132.693   8.291  1.00 33.88     0.007 C 
HETATM   33  C31 8UH X1620     -38.825 133.484   8.415  1.00 33.88     0.001 C 
HETATM   34  C32 8UH X1620     -38.714 134.769   8.769  1.00 33.88     0.007 C 
HETATM   35  C33 8UH X1620     -39.888 135.658   8.917  1.00 33.88    -0.062 C 
HETATM   36  C34 8UH X1620     -39.654 136.910   9.361  1.00 33.88     0.007 C 
HETATM   37  C35 8UH X1620     -40.689 137.925   9.563  1.00 33.88     0.001 C 
HETATM   38  C36 8UH X1620     -34.517 126.866   6.384  1.00 31.86     0.020 C 
HETATM   39  C37 8UH X1620     -35.385 128.582   4.836  1.00 31.86     0.020 C 
HETATM   40  C38 8UH X1620     -33.533 129.958   9.245  1.00 31.86     0.044 C 
HETATM   41  C39 8UH X1620     -38.739 130.544   7.608  1.00 33.88     0.048 C 
HETATM   42  C40 8UH X1620     -41.250 135.145   8.529  1.00 33.88     0.048 C 
HETATM   43  O23 8UH X1620     -30.674 128.245   5.833  1.00 31.86    -0.395 OA
ATOM     44  H23 8UH X1620     -29.979 128.605   6.372  1.00  0.00     0.210 HD
ENDROOT
TORSDOF 12
