REMARK VINA RESULT:   -10.554      1.356     16.200
REMARK INTER + INTRA:         -13.162
REMARK INTER:                 -10.870
REMARK INTRA:                  -2.292
REMARK UNBOUND:                -2.607
REMARK  0 active torsions:
REMARK  status: ('A' for Active; 'I' for Inactive)
REMARK       I    between atoms: C3_3  and  O3_21 
REMARK       I    between atoms: C6_6  and  C7_7 
REMARK       I    between atoms: C8_8  and  C9_9 
REMARK       I    between atoms: C10_10  and  C11_11 
REMARK       I    between atoms: C12_12  and  C13_13 
REMARK       I    between atoms: C14_14  and  C15_15 
REMARK       I    between atoms: C23_25  and  O23_43 
REMARK       I    between atoms: C26_28  and  C27_29 
REMARK       I    between atoms: C28_30  and  C29_31 
REMARK       I    between atoms: C30_32  and  C31_33 
REMARK       I    between atoms: C32_34  and  C33_35 
REMARK       I    between atoms: C34_36  and  C35_37 
ROOT
HETATM    1  C1  8UH W1620     -49.618 144.524  10.095  1.00 24.23    -0.018 C 
HETATM    2  C2  8UH W1620     -49.612 144.516  11.608  1.00 24.23     0.045 C 
HETATM    3  C3  8UH W1620     -48.356 145.081  12.217  1.00 24.23     0.123 C 
HETATM    4  C4  8UH W1620     -48.239 146.482  11.691  1.00 24.23     0.066 C 
HETATM    5  C5  8UH W1620     -48.079 146.452  10.207  1.00 24.23    -0.074 C 
HETATM    6  C6  8UH W1620     -48.536 145.413   9.518  1.00 24.23    -0.048 C 
HETATM    7  C7  8UH W1620     -47.764 144.885   8.400  1.00 24.23     0.009 C 
HETATM    8  C8  8UH W1620     -46.841 144.061   8.908  1.00 24.23     0.007 C 
HETATM    9  C9  8UH W1620     -45.862 143.327   8.086  1.00 24.23    -0.062 C 
HETATM   10  C10 8UH W1620     -45.022 142.491   8.724  1.00 24.23     0.007 C 
HETATM   11  C11 8UH W1620     -44.033 141.677   8.032  1.00 24.23     0.001 C 
HETATM   12  C12 8UH W1620     -43.272 140.829   8.714  1.00 24.23     0.007 C 
HETATM   13  C13 8UH W1620     -42.327 139.964   7.998  1.00 24.23    -0.062 C 
HETATM   14  C14 8UH W1620     -41.710 139.018   8.712  1.00 24.23     0.007 C 
HETATM   15  C15 8UH W1620     -40.800 138.015   8.177  1.00 24.23     0.001 C 
HETATM   16  C16 8UH W1620     -51.024 144.932   9.701  1.00 24.23     0.020 C 
HETATM   17  C17 8UH W1620     -49.362 143.110   9.606  1.00 24.23     0.020 C 
HETATM   18  C18 8UH W1620     -46.756 147.099   9.958  1.00 24.23     0.044 C 
HETATM   19  C19 8UH W1620     -45.841 143.518   6.601  1.00 24.23     0.048 C 
HETATM   20  C20 8UH W1620     -42.177 140.131   6.522  1.00 24.23     0.048 C 
HETATM   21  O3  8UH W1620     -48.517 145.150  13.628  1.00 24.23    -0.395 OA
ATOM     22  H3  8UH W1620     -48.591 144.264  13.960  1.00  0.00     0.210 HD
HETATM   23  C21 8UH W1620     -34.294 127.520   6.823  1.00 79.00    -0.018 C 
HETATM   24  C22 8UH W1620     -33.762 127.239   5.417  1.00 79.55     0.045 C 
HETATM   25  C23 8UH W1620     -32.526 128.016   4.978  1.00 80.08     0.123 C 
HETATM   26  C24 8UH W1620     -31.564 128.234   6.137  1.00 79.64     0.066 C 
HETATM   27  C25 8UH W1620     -32.276 128.903   7.282  1.00 79.19    -0.074 C 
HETATM   28  C26 8UH W1620     -33.551 128.617   7.550  1.00 79.31    -0.048 C 
HETATM   29  C27 8UH W1620     -34.289 129.397   8.567  1.00 78.64     0.009 C 
HETATM   30  C28 8UH W1620     -34.979 130.474   8.199  1.00 77.62     0.007 C 
HETATM   31  C29 8UH W1620     -35.746 131.291   9.168  1.00 24.23    -0.062 C 
HETATM   32  C30 8UH W1620     -36.481 132.284   8.636  1.00 24.23     0.007 C 
HETATM   33  C31 8UH W1620     -37.343 133.202   9.377  1.00 24.23     0.001 C 
HETATM   34  C32 8UH W1620     -38.003 134.139   8.696  1.00 24.23     0.007 C 
HETATM   35  C33 8UH W1620     -38.896 135.116   9.343  1.00 24.23    -0.062 C 
HETATM   36  C34 8UH W1620     -39.455 136.048   8.554  1.00 24.23     0.007 C 
HETATM   37  C35 8UH W1620     -40.352 137.098   9.021  1.00 24.23     0.001 C 
HETATM   38  C36 8UH W1620     -34.202 126.243   7.652  1.00 78.31     0.020 C 
HETATM   39  C37 8UH W1620     -35.751 127.949   6.702  1.00 77.27     0.020 C 
HETATM   40  C38 8UH W1620     -31.606 130.087   7.918  1.00 78.52     0.044 C 
HETATM   41  C39 8UH W1620     -35.719 130.954  10.632  1.00 24.23     0.048 C 
HETATM   42  C40 8UH W1620     -39.153 135.011  10.817  1.00 24.23     0.048 C 
HETATM   43  O23 8UH W1620     -31.857 127.259   3.962  1.00 80.30    -0.395 OA
ATOM     44  H23 8UH W1620     -32.457 127.124   3.239  1.00  0.00     0.210 HD
ENDROOT
TORSDOF 12
