REMARK VINA RESULT:   -12.871      0.000      0.000
REMARK INTER + INTRA:         -12.862
REMARK INTER:                 -12.871
REMARK INTRA:                   0.009
REMARK UNBOUND:                 0.009
REMARK  0 active torsions:
REMARK  status: ('A' for Active; 'I' for Inactive)
REMARK       I    between atoms: C3_3  and  O3_21 
REMARK       I    between atoms: C6_6  and  C7_7 
REMARK       I    between atoms: C8_8  and  C9_9 
REMARK       I    between atoms: C10_10  and  C11_11 
REMARK       I    between atoms: C12_12  and  C13_13 
REMARK       I    between atoms: C14_14  and  C15_15 
REMARK       I    between atoms: C23_25  and  O23_43 
REMARK       I    between atoms: C26_28  and  C27_29 
REMARK       I    between atoms: C28_30  and  C29_31 
REMARK       I    between atoms: C30_32  and  C31_33 
REMARK       I    between atoms: C32_34  and  C33_35 
REMARK       I    between atoms: C34_36  and  C35_37 
ROOT
HETATM    1  C1  8UH 61620     -49.627 144.293  12.327  1.00 97.95    -0.018 C 
HETATM    2  C2  8UH 61620     -50.032 144.705  13.738  1.00 97.95     0.045 C 
HETATM    3  C3  8UH 61620     -49.300 145.881  14.359  1.00 97.95     0.123 C 
HETATM    4  C4  8UH 61620     -48.981 146.945  13.333  1.00 97.95     0.066 C 
HETATM    5  C5  8UH 61620     -48.184 146.325  12.224  1.00 97.95    -0.074 C 
HETATM    6  C6  8UH 61620     -48.500 145.120  11.736  1.00 97.95    -0.048 C 
HETATM    7  C7  8UH 61620     -47.751 144.551  10.590  1.00 97.95     0.009 C 
HETATM    8  C8  8UH 61620     -46.657 143.815  10.774  1.00 97.95     0.007 C 
HETATM    9  C9  8UH 61620     -45.907 143.228   9.662  1.00 97.95    -0.062 C 
HETATM   10  C10 8UH 61620     -44.885 142.440   9.985  1.00 97.95     0.007 C 
HETATM   11  C11 8UH 61620     -44.050 141.768   9.006  1.00 97.95     0.001 C 
HETATM   12  C12 8UH 61620     -43.084 141.037   9.535  1.00 97.95     0.007 C 
HETATM   13  C13 8UH 61620     -42.137 140.246   8.741  1.00 97.95    -0.062 C 
HETATM   14  C14 8UH 61620     -41.455 139.325   9.419  1.00 97.95     0.007 C 
HETATM   15  C15 8UH 61620     -40.507 138.421   8.798  1.00 97.95     0.001 C 
HETATM   16  C16 8UH 61620     -50.885 144.369  11.466  1.00 97.95     0.020 C 
HETATM   17  C17 8UH 61620     -49.154 142.846  12.374  1.00 97.95     0.020 C 
HETATM   18  C18 8UH 61620     -47.117 147.193  11.626  1.00 97.95     0.044 C 
HETATM   19  C19 8UH 61620     -46.281 143.502   8.238  1.00 97.95     0.048 C 
HETATM   20  C20 8UH 61620     -41.963 140.447   7.267  1.00 97.95     0.048 C 
HETATM   21  O3  8UH 61620     -50.134 146.472  15.363  1.00 97.95    -0.395 OA
ATOM     22  H3  8UH 61620     -49.676 147.208  15.751  1.00  0.00     0.210 HD
HETATM   23  C21 8UH 61620     -34.144 127.898   6.992  1.00 73.24    -0.018 C 
HETATM   24  C22 8UH 61620     -33.479 127.417   5.699  1.00 72.84     0.045 C 
HETATM   25  C23 8UH 61620     -32.383 128.304   5.123  1.00 72.53     0.123 C 
HETATM   26  C24 8UH 61620     -31.490 128.820   6.234  1.00 72.61     0.066 C 
HETATM   27  C25 8UH 61620     -32.324 129.589   7.224  1.00 72.68    -0.074 C 
HETATM   28  C26 8UH 61620     -33.507 129.122   7.626  1.00 72.79    -0.048 C 
HETATM   29  C27 8UH 61620     -34.234 129.816   8.717  1.00 71.90     0.009 C 
HETATM   30  C28 8UH 61620     -34.996 130.881   8.452  1.00 71.51     0.007 C 
HETATM   31  C29 8UH 61620     -35.741 131.603   9.490  1.00 97.95    -0.062 C 
HETATM   32  C30 8UH 61620     -36.465 132.628   9.054  1.00 97.95     0.007 C 
HETATM   33  C31 8UH 61620     -37.293 133.479   9.886  1.00 97.95     0.001 C 
HETATM   34  C32 8UH 61620     -37.890 134.431   9.190  1.00 97.95     0.007 C 
HETATM   35  C33 8UH 61620     -38.788 135.413   9.791  1.00 97.95    -0.062 C 
HETATM   36  C34 8UH 61620     -39.309 136.336   8.982  1.00 97.95     0.007 C 
HETATM   37  C35 8UH 61620     -40.222 137.336   9.502  1.00 97.95     0.001 C 
HETATM   38  C36 8UH 61620     -34.097 126.754   7.999  1.00 72.68     0.020 C 
HETATM   39  C37 8UH 61620     -35.596 128.238   6.684  1.00 73.05     0.020 C 
HETATM   40  C38 8UH 61620     -31.637 130.689   7.983  1.00 72.13     0.044 C 
HETATM   41  C39 8UH 61620     -35.699 131.204  10.934  1.00 97.95     0.048 C 
HETATM   42  C40 8UH 61620     -39.100 135.373  11.254  1.00 97.95     0.048 C 
HETATM   43  O23 8UH 61620     -31.593 127.543   4.198  1.00 71.04    -0.395 OA
ATOM     44  H23 8UH 61620     -30.909 128.096   3.838  1.00  0.00     0.210 HD
ENDROOT
TORSDOF 12
