REMARK VINA RESULT:    -8.593      1.843     16.872
REMARK INTER + INTRA:          -8.952
REMARK INTER:                  -6.479
REMARK INTRA:                  -2.473
REMARK UNBOUND:                -0.359
REMARK  0 active torsions:
REMARK  status: ('A' for Active; 'I' for Inactive)
REMARK       I    between atoms: C3_3  and  O3_21 
REMARK       I    between atoms: C6_6  and  C7_7 
REMARK       I    between atoms: C8_8  and  C9_9 
REMARK       I    between atoms: C10_10  and  C11_11 
REMARK       I    between atoms: C12_12  and  C13_13 
REMARK       I    between atoms: C14_14  and  C15_15 
REMARK       I    between atoms: C23_25  and  O23_43 
REMARK       I    between atoms: C26_28  and  C27_29 
REMARK       I    between atoms: C28_30  and  C29_31 
REMARK       I    between atoms: C30_32  and  C31_33 
REMARK       I    between atoms: C32_34  and  C33_35 
REMARK       I    between atoms: C34_36  and  C35_37 
ROOT
HETATM    1  C1  8UH 4 616     -48.369 145.534  12.804  1.00 72.69    -0.018 C 
HETATM    2  C2  8UH 4 616     -48.855 145.895  14.208  1.00 72.50     0.045 C 
HETATM    3  C3  8UH 4 616     -48.021 146.883  15.020  1.00 72.53     0.123 C 
HETATM    4  C4  8UH 4 616     -47.258 147.856  14.139  1.00 73.67     0.066 C 
HETATM    5  C5  8UH 4 616     -46.455 147.094  13.121  1.00 74.71    -0.074 C 
HETATM    6  C6  8UH 4 616     -47.008 146.090  12.443  1.00 74.26    -0.048 C 
HETATM    7  C7  8UH 4 616     -46.284 145.460  11.315  1.00 75.37     0.009 C 
HETATM    8  C8  8UH 4 616     -45.372 144.521  11.562  1.00 77.10     0.007 C 
HETATM    9  C9  8UH 4 616     -44.627 143.843  10.482  1.00 78.39    -0.062 C 
HETATM   10  C10 8UH 4 616     -43.760 142.874  10.814  1.00 81.08     0.007 C 
HETATM   11  C11 8UH 4 616     -42.985 142.125   9.826  1.00 84.31     0.001 C 
HETATM   12  C12 8UH 4 616     -42.335 141.048  10.262  1.00 87.06     0.007 C 
HETATM   13  C13 8UH 4 616     -41.529 140.167   9.396  1.00 89.04    -0.062 C 
HETATM   14  C14 8UH 4 616     -41.018 139.053   9.947  1.00 90.91     0.007 C 
HETATM   15  C15 8UH 4 616     -40.228 138.078   9.200  1.00 91.21     0.001 C 
HETATM   16  C16 8UH 4 616     -49.392 146.049  11.800  1.00 72.40     0.020 C 
HETATM   17  C17 8UH 4 616     -48.282 144.018  12.694  1.00 73.92     0.020 C 
HETATM   18  C18 8UH 4 616     -45.211 147.768  12.623  1.00 74.98     0.044 C 
HETATM   19  C19 8UH 4 616     -44.848 144.228   9.050  1.00 77.08     0.048 C 
HETATM   20  C20 8UH 4 616     -41.297 140.497   7.951  1.00 88.60     0.048 C 
HETATM   21  O3  8UH 4 616     -48.904 147.630  15.864  1.00 71.08    -0.395 OA
ATOM     22  H3  8UH 4 616     -49.381 147.020  16.415  1.00  0.00     0.210 HD
HETATM   23  C21 8UH 4 616     -34.699 127.068   6.095  1.00 16.69    -0.018 C 
HETATM   24  C22 8UH 4 616     -34.026 126.303   4.944  1.00 15.88     0.045 C 
HETATM   25  C23 8UH 4 616     -32.756 126.881   4.333  1.00 15.19     0.123 C 
HETATM   26  C24 8UH 4 616     -31.883 127.674   5.310  1.00 16.30     0.066 C 
HETATM   27  C25 8UH 4 616     -32.563 128.467   6.380  1.00 15.97    -0.074 C 
HETATM   28  C26 8UH 4 616     -33.859 128.207   6.756  1.00 16.56    -0.048 C 
HETATM   29  C27 8UH 4 616     -34.510 129.007   7.795  1.00 18.44     0.009 C 
HETATM   30  C28 8UH 4 616     -35.024 130.240   7.645  1.00 18.42     0.007 C 
HETATM   31  C29 8UH 4 616     -35.550 131.058   8.715  1.00 94.55    -0.062 C 
HETATM   32  C30 8UH 4 616     -36.357 132.084   8.415  1.00 95.44     0.007 C 
HETATM   33  C31 8UH 4 616     -36.965 132.962   9.414  1.00 95.37     0.001 C 
HETATM   34  C32 8UH 4 616     -37.681 133.976   8.938  1.00 94.20     0.007 C 
HETATM   35  C33 8UH 4 616     -38.398 134.966   9.762  1.00 92.43    -0.062 C 
HETATM   36  C34 8UH 4 616     -38.974 136.005   9.136  1.00 91.40     0.007 C 
HETATM   37  C35 8UH 4 616     -39.736 137.023   9.851  1.00 91.41     0.001 C 
HETATM   38  C36 8UH 4 616     -35.014 125.972   7.128  1.00 15.77     0.020 C 
HETATM   39  C37 8UH 4 616     -36.043 127.605   5.565  1.00 17.40     0.020 C 
HETATM   40  C38 8UH 4 616     -31.608 129.495   6.876  1.00 16.04     0.044 C 
HETATM   41  C39 8UH 4 616     -35.192 130.746  10.139  1.00 93.92     0.048 C 
HETATM   42  C40 8UH 4 616     -38.495 134.804  11.249  1.00 91.99     0.048 C 
HETATM   43  O23 8UH 4 616     -31.996 125.851   3.734  1.00 16.64    -0.395 OA
ATOM     44  H23 8UH 4 616     -32.538 125.358   3.128  1.00  0.00     0.210 HD
ENDROOT
TORSDOF 12
