REMARK VINA RESULT:    -8.662      0.000      0.000
REMARK INTER + INTRA:         -11.702
REMARK INTER:                  -8.662
REMARK INTRA:                  -3.040
REMARK UNBOUND:                -3.040
REMARK  0 active torsions:
REMARK  status: ('A' for Active; 'I' for Inactive)
REMARK       I    between atoms: C3_3  and  O3_21 
REMARK       I    between atoms: C6_6  and  C7_7 
REMARK       I    between atoms: C8_8  and  C9_9 
REMARK       I    between atoms: C10_10  and  C11_11 
REMARK       I    between atoms: C12_12  and  C13_13 
REMARK       I    between atoms: C14_14  and  C15_15 
REMARK       I    between atoms: C23_25  and  O23_43 
REMARK       I    between atoms: C26_28  and  C27_29 
REMARK       I    between atoms: C28_30  and  C29_31 
REMARK       I    between atoms: C30_32  and  C31_33 
REMARK       I    between atoms: C32_34  and  C33_35 
REMARK       I    between atoms: C34_36  and  C35_37 
ROOT
HETATM    1  C1  8UH A 620     -50.401 142.168  12.900  1.00 22.96    -0.018 C 
HETATM    2  C2  8UH A 620     -50.908 143.155  13.976  1.00 23.40     0.045 C 
HETATM    3  C3  8UH A 620     -50.301 144.556  14.036  1.00 22.69     0.123 C 
HETATM    4  C4  8UH A 620     -49.810 145.082  12.689  1.00 22.06     0.066 C 
HETATM    5  C5  8UH A 620     -49.257 144.115  11.696  1.00 21.38    -0.074 C 
HETATM    6  C6  8UH A 620     -49.511 142.761  11.762  1.00 22.58    -0.048 C 
HETATM    7  C7  8UH A 620     -48.960 141.830  10.757  1.00 22.00     0.009 C 
HETATM    8  C8  8UH A 620     -47.704 141.348  10.680  1.00 20.93     0.007 C 
HETATM    9  C9  8UH A 620     -47.153 140.537   9.592  1.00 21.87    -0.062 C 
HETATM   10  C10 8UH A 620     -45.901 140.047   9.735  1.00 20.24     0.007 C 
HETATM   11  C11 8UH A 620     -45.188 139.221   8.792  1.00 21.04     0.001 C 
HETATM   12  C12 8UH A 620     -44.032 138.640   9.145  1.00 22.18     0.007 C 
HETATM   13  C13 8UH A 620     -43.159 137.733   8.386  1.00 24.17    -0.062 C 
HETATM   14  C14 8UH A 620     -42.105 137.204   9.046  1.00 25.88     0.007 C 
HETATM   15  C15 8UH A 620     -41.146 136.240   8.587  1.00 26.51     0.001 C 
HETATM   16  C16 8UH A 620     -51.695 141.579  12.308  1.00 20.65     0.020 C 
HETATM   17  C17 8UH A 620     -49.659 141.033  13.630  1.00 21.73     0.020 C 
HETATM   18  C18 8UH A 620     -48.464 144.894  10.706  1.00 21.05     0.044 C 
HETATM   19  C19 8UH A 620     -48.043 140.260   8.411  1.00 19.19     0.048 C 
HETATM   20  C20 8UH A 620     -43.532 137.397   6.972  1.00 21.80     0.048 C 
HETATM   21  O3  8UH A 620     -51.221 145.471  14.612  1.00 22.00    -0.395 OA
ATOM     22  H3  8UH A 620     -50.844 146.342  14.650  1.00  0.00     0.210 HD
HETATM   23  C21 8UH A 620     -33.735 127.078   6.974  1.00 42.32    -0.018 C 
HETATM   24  C22 8UH A 620     -34.735 127.159   5.825  1.00 42.32     0.045 C 
HETATM   25  C23 8UH A 620     -34.443 128.250   4.800  1.00 42.32     0.123 C 
HETATM   26  C24 8UH A 620     -32.946 128.430   4.633  1.00 42.32     0.066 C 
HETATM   27  C25 8UH A 620     -32.366 128.843   5.958  1.00 42.32    -0.074 C 
HETATM   28  C26 8UH A 620     -32.880 128.319   7.070  1.00 42.32    -0.048 C 
HETATM   29  C27 8UH A 620     -32.992 129.115   8.296  1.00 42.32     0.009 C 
HETATM   30  C28 8UH A 620     -34.063 129.906   8.128  1.00 42.32     0.007 C 
HETATM   31  C29 8UH A 620     -34.586 130.859   9.159  1.00 37.91    -0.062 C 
HETATM   32  C30 8UH A 620     -35.672 131.591   8.828  1.00 37.54     0.007 C 
HETATM   33  C31 8UH A 620     -36.354 132.563   9.644  1.00 35.36     0.001 C 
HETATM   34  C32 8UH A 620     -37.414 133.240   9.158  1.00 32.59     0.007 C 
HETATM   35  C33 8UH A 620     -38.243 134.278   9.789  1.00 30.48    -0.062 C 
HETATM   36  C34 8UH A 620     -39.248 134.801   9.054  1.00 28.06     0.007 C 
HETATM   37  C35 8UH A 620     -40.197 135.808   9.433  1.00 27.79     0.001 C 
HETATM   38  C36 8UH A 620     -32.859 125.850   6.765  1.00 42.32     0.020 C 
HETATM   39  C37 8UH A 620     -34.493 126.945   8.287  1.00 42.32     0.020 C 
HETATM   40  C38 8UH A 620     -31.790 130.226   5.875  1.00 42.32     0.044 C 
HETATM   41  C39 8UH A 620     -33.882 130.956  10.480  1.00 38.40     0.048 C 
HETATM   42  C40 8UH A 620     -37.914 134.686  11.200  1.00 28.72     0.048 C 
HETATM   43  O23 8UH A 620     -35.003 127.878   3.537  1.00 42.32    -0.395 OA
ATOM     44  H23 8UH A 620     -34.822 128.558   2.899  1.00  0.00     0.210 HD
ENDROOT
TORSDOF 12
