REMARK VINA RESULT:    -9.032      0.920      1.102
REMARK INTER + INTRA:         -10.923
REMARK INTER:                 -10.524
REMARK INTRA:                  -0.399
REMARK UNBOUND:                -1.891
REMARK  0 active torsions:
REMARK  status: ('A' for Active; 'I' for Inactive)
REMARK       I    between atoms: C3_3  and  O3_21 
REMARK       I    between atoms: C6_6  and  C7_7 
REMARK       I    between atoms: C8_8  and  C9_9 
REMARK       I    between atoms: C10_10  and  C11_11 
REMARK       I    between atoms: C12_12  and  C13_13 
REMARK       I    between atoms: C14_14  and  C15_15 
REMARK       I    between atoms: C23_25  and  O23_43 
REMARK       I    between atoms: C26_28  and  C27_29 
REMARK       I    between atoms: C28_30  and  C29_31 
REMARK       I    between atoms: C30_32  and  C31_33 
REMARK       I    between atoms: C32_34  and  C33_35 
REMARK       I    between atoms: C34_36  and  C35_37 
ROOT
HETATM    1  C1  8UH Y1621     -49.114 145.656  12.077  1.00 37.60    -0.018 C 
HETATM    2  C2  8UH Y1621     -50.201 146.177  13.001  1.00 37.60     0.045 C 
HETATM    3  C3  8UH Y1621     -49.734 146.820  14.286  1.00 37.60     0.123 C 
HETATM    4  C4  8UH Y1621     -48.670 147.840  13.977  1.00 37.60     0.066 C 
HETATM    5  C5  8UH Y1621     -47.556 147.274  13.151  1.00 37.60    -0.074 C 
HETATM    6  C6  8UH Y1621     -47.763 146.327  12.224  1.00 37.60    -0.048 C 
HETATM    7  C7  8UH Y1621     -46.689 145.933  11.271  1.00 37.60     0.009 C 
HETATM    8  C8  8UH Y1621     -45.720 145.061  11.571  1.00 37.60     0.007 C 
HETATM    9  C9  8UH Y1621     -44.683 144.680  10.611  1.00 37.60    -0.062 C 
HETATM   10  C10 8UH Y1621     -44.124 143.484  10.785  1.00 37.60     0.007 C 
HETATM   11  C11 8UH Y1621     -43.095 142.909   9.936  1.00 37.60     0.001 C 
HETATM   12  C12 8UH Y1621     -42.805 141.659  10.258  1.00 37.60     0.007 C 
HETATM   13  C13 8UH Y1621     -41.840 140.790   9.582  1.00 37.60    -0.062 C 
HETATM   14  C14 8UH Y1621     -41.569 139.608  10.138  1.00 37.60     0.007 C 
HETATM   15  C15 8UH Y1621     -40.651 138.682   9.497  1.00 37.60     0.001 C 
HETATM   16  C16 8UH Y1621     -49.677 145.758  10.668  1.00 37.60     0.020 C 
HETATM   17  C17 8UH Y1621     -48.884 144.195  12.384  1.00 37.60     0.020 C 
HETATM   18  C18 8UH Y1621     -46.299 148.086  13.225  1.00 37.60     0.044 C 
HETATM   19  C19 8UH Y1621     -44.276 145.591   9.501  1.00 37.60     0.048 C 
HETATM   20  C20 8UH Y1621     -41.196 141.204   8.297  1.00 37.60     0.048 C 
HETATM   21  O3  8UH Y1621     -50.834 147.524  14.859  1.00 37.60    -0.395 OA
ATOM     22  H3  8UH Y1621     -51.505 146.881  15.054  1.00  0.00     0.210 HD
HETATM   23  C21 8UH Y1621     -34.111 128.070   6.944  1.00 21.58    -0.018 C 
HETATM   24  C22 8UH Y1621     -33.444 127.364   5.745  1.00 21.20     0.045 C 
HETATM   25  C23 8UH Y1621     -32.261 128.020   5.024  1.00 20.61     0.123 C 
HETATM   26  C24 8UH Y1621     -31.684 129.270   5.707  1.00 19.82     0.066 C 
HETATM   27  C25 8UH Y1621     -32.431 129.988   6.788  1.00 19.81    -0.074 C 
HETATM   28  C26 8UH Y1621     -33.556 129.475   7.402  1.00 19.95    -0.048 C 
HETATM   29  C27 8UH Y1621     -34.303 130.156   8.499  1.00 17.10     0.009 C 
HETATM   30  C28 8UH Y1621     -35.202 131.147   8.310  1.00 17.58     0.007 C 
HETATM   31  C29 8UH Y1621     -35.956 131.859   9.294  1.00 37.60    -0.062 C 
HETATM   32  C30 8UH Y1621     -36.958 132.634   8.888  1.00 37.60     0.007 C 
HETATM   33  C31 8UH Y1621     -37.814 133.410   9.766  1.00 37.60     0.001 C 
HETATM   34  C32 8UH Y1621     -38.178 134.581   9.274  1.00 37.60     0.007 C 
HETATM   35  C33 8UH Y1621     -39.051 135.502  10.003  1.00 37.60    -0.062 C 
HETATM   36  C34 8UH Y1621     -39.357 136.674   9.450  1.00 37.60     0.007 C 
HETATM   37  C35 8UH Y1621     -40.246 137.599  10.136  1.00 37.60     0.001 C 
HETATM   38  C36 8UH Y1621     -33.941 127.023   8.070  1.00 19.38     0.020 C 
HETATM   39  C37 8UH Y1621     -35.618 128.172   6.614  1.00 19.65     0.020 C 
HETATM   40  C38 8UH Y1621     -31.719 131.258   7.083  1.00 20.06     0.044 C 
HETATM   41  C39 8UH Y1621     -35.601 131.705  10.737  1.00 37.60     0.048 C 
HETATM   42  C40 8UH Y1621     -39.598 135.107  11.333  1.00 37.60     0.048 C 
HETATM   43  O23 8UH Y1621     -31.233 127.067   4.801  1.00 18.88    -0.395 OA
ATOM     44  H23 8UH Y1621     -30.500 127.474   4.355  1.00  0.00     0.210 HD
ENDROOT
TORSDOF 12
