REMARK VINA RESULT:    -7.390      0.874     16.830
REMARK INTER + INTRA:         -10.164
REMARK INTER:                  -7.334
REMARK INTRA:                  -2.830
REMARK UNBOUND:                -2.774
REMARK  0 active torsions:
REMARK  status: ('A' for Active; 'I' for Inactive)
REMARK       I    between atoms: C3_3  and  O3_21 
REMARK       I    between atoms: C6_6  and  C7_7 
REMARK       I    between atoms: C8_8  and  C9_9 
REMARK       I    between atoms: C10_10  and  C11_11 
REMARK       I    between atoms: C12_12  and  C13_13 
REMARK       I    between atoms: C14_14  and  C15_15 
REMARK       I    between atoms: C23_25  and  O23_43 
REMARK       I    between atoms: C26_28  and  C27_29 
REMARK       I    between atoms: C28_30  and  C29_31 
REMARK       I    between atoms: C30_32  and  C31_33 
REMARK       I    between atoms: C32_34  and  C33_35 
REMARK       I    between atoms: C34_36  and  C35_37 
ROOT
HETATM    1  C1  8UH 7 615     -34.464 126.780   6.189  1.00 73.60    -0.018 C 
HETATM    2  C2  8UH 7 615     -33.842 125.961   5.061  1.00 75.55     0.045 C 
HETATM    3  C3  8UH 7 615     -32.897 126.744   4.162  1.00 76.70     0.123 C 
HETATM    4  C4  8UH 7 615     -31.835 127.412   5.014  1.00 74.32     0.066 C 
HETATM    5  C5  8UH 7 615     -32.495 128.320   6.017  1.00 72.24    -0.074 C 
HETATM    6  C6  8UH 7 615     -33.644 127.987   6.615  1.00 72.79    -0.048 C 
HETATM    7  C7  8UH 7 615     -34.153 128.800   7.748  1.00 73.20     0.009 C 
HETATM    8  C8  8UH 7 615     -34.773 129.963   7.536  1.00 73.76     0.007 C 
HETATM    9  C9  8UH 7 615     -35.306 130.792   8.636  1.00 74.91    -0.062 C 
HETATM   10  C10 8UH 7 615     -36.032 131.870   8.311  1.00 76.80     0.007 C 
HETATM   11  C11 8UH 7 615     -36.636 132.770   9.290  1.00 78.16     0.001 C 
HETATM   12  C12 8UH 7 615     -37.402 133.738   8.794  1.00 79.81     0.007 C 
HETATM   13  C13 8UH 7 615     -38.122 134.721   9.625  1.00 80.85    -0.062 C 
HETATM   14  C14 8UH 7 615     -39.040 135.487   9.016  1.00 82.27     0.007 C 
HETATM   15  C15 8UH 7 615     -39.853 136.472   9.722  1.00 83.03     0.001 C 
HETATM   16  C16 8UH 7 615     -34.673 125.864   7.389  1.00 74.39     0.020 C 
HETATM   17  C17 8UH 7 615     -35.820 127.293   5.721  1.00 72.12     0.020 C 
HETATM   18  C18 8UH 7 615     -31.611 129.389   6.588  1.00 72.14     0.044 C 
HETATM   19  C19 8UH 7 615     -35.047 130.440  10.072  1.00 74.86     0.048 C 
HETATM   20  C20 8UH 7 615     -37.845 134.846  11.094  1.00 80.14     0.048 C 
HETATM   21  O3  8UH 7 615     -32.268 125.850   3.236  1.00 78.13    -0.395 OA
ATOM     22  H3  8UH 7 615     -31.677 126.339   2.674  1.00  0.00     0.210 HD
HETATM   23  C21 8UH 7 615     -49.658 143.881  12.214  1.00 27.76    -0.018 C 
HETATM   24  C22 8UH 7 615     -50.109 144.520  13.524  1.00 27.76     0.045 C 
HETATM   25  C23 8UH 7 615     -49.504 145.850  13.955  1.00 27.76     0.123 C 
HETATM   26  C24 8UH 7 615     -49.013 146.668  12.780  1.00 27.76     0.066 C 
HETATM   27  C25 8UH 7 615     -48.118 145.813  11.928  1.00 27.76    -0.074 C 
HETATM   28  C26 8UH 7 615     -48.474 144.575  11.576  1.00 27.76    -0.048 C 
HETATM   29  C27 8UH 7 615     -47.705 143.876  10.516  1.00 27.76     0.009 C 
HETATM   30  C28 8UH 7 615     -46.678 143.061  10.783  1.00 27.76     0.007 C 
HETATM   31  C29 8UH 7 615     -45.921 142.386   9.708  1.00 88.65    -0.062 C 
HETATM   32  C30 8UH 7 615     -45.080 141.413  10.085  1.00 87.62     0.007 C 
HETATM   33  C31 8UH 7 615     -44.265 140.611   9.177  1.00 86.36     0.001 C 
HETATM   34  C32 8UH 7 615     -43.407 139.769   9.749  1.00 84.48     0.007 C 
HETATM   35  C33 8UH 7 615     -42.523 138.850   9.006  1.00 83.44    -0.062 C 
HETATM   36  C34 8UH 7 615     -41.633 138.119   9.692  1.00 83.36     0.007 C 
HETATM   37  C35 8UH 7 615     -40.760 137.157   9.029  1.00 83.46     0.001 C 
HETATM   38  C36 8UH 7 615     -50.869 143.852  11.285  1.00 27.76     0.020 C 
HETATM   39  C37 8UH 7 615     -49.238 142.447  12.498  1.00 27.76     0.020 C 
HETATM   40  C38 8UH 7 615     -47.118 146.598  11.129  1.00 27.76     0.044 C 
HETATM   41  C39 8UH 7 615     -46.090 142.767   8.267  1.00 86.98     0.048 C 
HETATM   42  C40 8UH 7 615     -42.635 138.713   7.517  1.00 83.08     0.048 C 
HETATM   43  O23 8UH 7 615     -50.486 146.614  14.661  1.00 27.76    -0.395 OA
ATOM     44  H23 8UH 7 615     -50.109 147.443  14.930  1.00  0.00     0.210 HD
ENDROOT
TORSDOF 12
