REMARK VINA RESULT:    -8.053      1.529     16.773
REMARK INTER + INTRA:         -10.290
REMARK INTER:                  -7.548
REMARK INTRA:                  -2.741
REMARK UNBOUND:                -2.237
REMARK  0 active torsions:
REMARK  status: ('A' for Active; 'I' for Inactive)
REMARK       I    between atoms: C3_3  and  O3_21 
REMARK       I    between atoms: C6_6  and  C7_7 
REMARK       I    between atoms: C8_8  and  C9_9 
REMARK       I    between atoms: C10_10  and  C11_11 
REMARK       I    between atoms: C12_12  and  C13_13 
REMARK       I    between atoms: C14_14  and  C15_15 
REMARK       I    between atoms: C23_25  and  O23_43 
REMARK       I    between atoms: C26_28  and  C27_29 
REMARK       I    between atoms: C28_30  and  C29_31 
REMARK       I    between atoms: C30_32  and  C31_33 
REMARK       I    between atoms: C32_34  and  C33_35 
REMARK       I    between atoms: C34_36  and  C35_37 
ROOT
HETATM    1  C1  8UH 3 316     -49.253 145.392  12.782  1.00 78.71    -0.018 C 
HETATM    2  C2  8UH 3 316     -49.805 145.696  14.177  1.00 77.73     0.045 C 
HETATM    3  C3  8UH 3 316     -48.881 146.473  15.107  1.00 76.79     0.123 C 
HETATM    4  C4  8UH 3 316     -48.216 147.603  14.345  1.00 76.86     0.066 C 
HETATM    5  C5  8UH 3 316     -47.392 146.994  13.244  1.00 77.66    -0.074 C 
HETATM    6  C6  8UH 3 316     -47.896 146.010  12.495  1.00 78.84    -0.048 C 
HETATM    7  C7  8UH 3 316     -47.110 145.480  11.357  1.00 78.35     0.009 C 
HETATM    8  C8  8UH 3 316     -46.129 144.609  11.584  1.00 77.95     0.007 C 
HETATM    9  C9  8UH 3 316     -45.317 144.034  10.496  1.00 78.35    -0.062 C 
HETATM   10  C10 8UH 3 316     -44.429 143.083  10.813  1.00 77.38     0.007 C 
HETATM   11  C11 8UH 3 316     -43.577 142.414   9.837  1.00 77.06     0.001 C 
HETATM   12  C12 8UH 3 316     -42.961 141.318  10.267  1.00 77.59     0.007 C 
HETATM   13  C13 8UH 3 316     -42.077 140.482   9.433  1.00 77.36    -0.062 C 
HETATM   14  C14 8UH 3 316     -41.588 139.361   9.983  1.00 75.86     0.007 C 
HETATM   15  C15 8UH 3 316     -40.725 138.434   9.263  1.00 74.54     0.001 C 
HETATM   16  C16 8UH 3 316     -50.244 145.905  11.743  1.00 78.56     0.020 C 
HETATM   17  C17 8UH 3 316     -49.119 143.879  12.639  1.00 78.60     0.020 C 
HETATM   18  C18 8UH 3 316     -46.106 147.677  12.878  1.00 77.80     0.044 C 
HETATM   19  C19 8UH 3 316     -45.492 144.497   9.079  1.00 79.41     0.048 C 
HETATM   20  C20 8UH 3 316     -41.748 140.866   8.020  1.00 77.68     0.048 C 
HETATM   21  O3  8UH 3 316     -49.633 147.022  16.195  1.00 76.23    -0.395 OA
ATOM     22  H3  8UH 3 316     -49.057 147.506  16.774  1.00  0.00     0.210 HD
HETATM   23  C21 8UH 3 316     -34.451 127.882   6.505  1.00 34.54    -0.018 C 
HETATM   24  C22 8UH 3 316     -33.769 127.491   5.194  1.00 34.54     0.045 C 
HETATM   25  C23 8UH 3 316     -32.329 127.944   4.951  1.00 34.54     0.123 C 
HETATM   26  C24 8UH 3 316     -31.583 128.304   6.226  1.00 34.54     0.066 C 
HETATM   27  C25 8UH 3 316     -32.434 129.252   7.021  1.00 34.54    -0.074 C 
HETATM   28  C26 8UH 3 316     -33.713 128.960   7.280  1.00 34.54    -0.048 C 
HETATM   29  C27 8UH 3 316     -34.410 129.695   8.362  1.00 34.54     0.009 C 
HETATM   30  C28 8UH 3 316     -35.036 130.837   8.094  1.00 34.54     0.007 C 
HETATM   31  C29 8UH 3 316     -35.736 131.634   9.104  1.00 87.05    -0.062 C 
HETATM   32  C30 8UH 3 316     -36.466 132.683   8.703  1.00 83.33     0.007 C 
HETATM   33  C31 8UH 3 316     -37.209 133.527   9.631  1.00 80.71     0.001 C 
HETATM   34  C32 8UH 3 316     -37.868 134.552   9.102  1.00 78.86     0.007 C 
HETATM   35  C33 8UH 3 316     -38.676 135.498   9.892  1.00 77.40    -0.062 C 
HETATM   36  C34 8UH 3 316     -39.363 136.443   9.234  1.00 76.14     0.007 C 
HETATM   37  C35 8UH 3 316     -40.205 137.408   9.929  1.00 74.61     0.001 C 
HETATM   38  C36 8UH 3 316     -34.629 126.609   7.329  1.00 34.54     0.020 C 
HETATM   39  C37 8UH 3 316     -35.842 128.416   6.187  1.00 34.54     0.020 C 
HETATM   40  C38 8UH 3 316     -31.581 130.007   8.000  1.00 34.54     0.044 C 
HETATM   41  C39 8UH 3 316     -35.640 131.272  10.556  1.00 86.53     0.048 C 
HETATM   42  C40 8UH 3 316     -38.724 135.407  11.388  1.00 77.09     0.048 C 
HETATM   43  O23 8UH 3 316     -31.625 126.890   4.286  1.00 34.54    -0.395 OA
ATOM     44  H23 8UH 3 316     -32.091 126.665   3.489  1.00  0.00     0.210 HD
ENDROOT
TORSDOF 12
