REMARK VINA RESULT:    -9.126      1.537     16.112
REMARK INTER + INTRA:          -9.372
REMARK INTER:                  -6.499
REMARK INTRA:                  -2.873
REMARK UNBOUND:                -0.246
REMARK  0 active torsions:
REMARK  status: ('A' for Active; 'I' for Inactive)
REMARK       I    between atoms: C3_3  and  O3_21 
REMARK       I    between atoms: C6_6  and  C7_7 
REMARK       I    between atoms: C8_8  and  C9_9 
REMARK       I    between atoms: C10_10  and  C11_11 
REMARK       I    between atoms: C12_12  and  C13_13 
REMARK       I    between atoms: C14_14  and  C15_15 
REMARK       I    between atoms: C23_25  and  O23_43 
REMARK       I    between atoms: C26_28  and  C27_29 
REMARK       I    between atoms: C28_30  and  C29_31 
REMARK       I    between atoms: C30_32  and  C31_33 
REMARK       I    between atoms: C32_34  and  C33_35 
REMARK       I    between atoms: C34_36  and  C35_37 
ROOT
HETATM    1  C1  8UH 5 620     -33.498 129.265   6.882  1.00 42.32    -0.018 C 
HETATM    2  C2  8UH 5 620     -33.220 130.333   5.829  1.00 42.32     0.045 C 
HETATM    3  C3  8UH 5 620     -32.210 131.395   6.248  1.00 42.32     0.123 C 
HETATM    4  C4  8UH 5 620     -31.142 130.787   7.137  1.00 42.32     0.066 C 
HETATM    5  C5  8UH 5 620     -31.806 130.238   8.370  1.00 42.32    -0.074 C 
HETATM    6  C6  8UH 5 620     -33.009 129.677   8.250  1.00 42.32    -0.048 C 
HETATM    7  C7  8UH 5 620     -34.018 129.825   9.304  1.00 42.32     0.009 C 
HETATM    8  C8  8UH 5 620     -34.534 131.055   9.154  1.00 42.32     0.007 C 
HETATM    9  C9  8UH 5 620     -35.633 131.594   9.994  1.00 42.32    -0.062 C 
HETATM   10  C10 8UH 5 620     -36.129 132.804   9.660  1.00 42.32     0.007 C 
HETATM   11  C11 8UH 5 620     -37.254 133.448  10.340  1.00 42.32     0.001 C 
HETATM   12  C12 8UH 5 620     -37.753 134.574   9.847  1.00 42.32     0.007 C 
HETATM   13  C13 8UH 5 620     -38.938 135.216  10.440  1.00 42.32    -0.062 C 
HETATM   14  C14 8UH 5 620     -39.456 136.234   9.739  1.00 42.32     0.007 C 
HETATM   15  C15 8UH 5 620     -40.652 136.996  10.073  1.00 42.32     0.001 C 
HETATM   16  C16 8UH 5 620     -32.820 127.972   6.449  1.00 42.32     0.020 C 
HETATM   17  C17 8UH 5 620     -35.000 129.042   6.984  1.00 42.32     0.020 C 
HETATM   18  C18 8UH 5 620     -31.348 130.980   9.592  1.00 42.32     0.044 C 
HETATM   19  C19 8UH 5 620     -36.169 130.801  11.155  1.00 42.32     0.048 C 
HETATM   20  C20 8UH 5 620     -39.534 134.695  11.715  1.00 42.32     0.048 C 
HETATM   21  O3  8UH 5 620     -31.580 131.938   5.083  1.00 42.32    -0.395 OA
ATOM     22  H3  8UH 5 620     -32.249 132.319   4.527  1.00  0.00     0.210 HD
HETATM   23  C21 8UH 5 620     -50.180 144.936   8.220  1.00 16.14    -0.018 C 
HETATM   24  C22 8UH 5 620     -51.416 145.335   9.023  1.00 16.14     0.045 C 
HETATM   25  C23 8UH 5 620     -51.170 146.024  10.354  1.00 16.14     0.123 C 
HETATM   26  C24 8UH 5 620     -50.058 147.037  10.228  1.00 16.14     0.066 C 
HETATM   27  C25 8UH 5 620     -48.819 146.314   9.795  1.00 16.14    -0.074 C 
HETATM   28  C26 8UH 5 620     -48.862 145.440   8.783  1.00 16.14    -0.048 C 
HETATM   29  C27 8UH 5 620     -47.596 144.975   8.170  1.00 16.14     0.009 C 
HETATM   30  C28 8UH 5 620     -46.875 143.957   8.649  1.00 16.14     0.007 C 
HETATM   31  C29 8UH 5 620     -45.617 143.542   8.006  1.00 42.32    -0.062 C 
HETATM   32  C30 8UH 5 620     -45.122 142.416   8.529  1.00 42.32     0.007 C 
HETATM   33  C31 8UH 5 620     -43.919 141.724   8.100  1.00 42.32     0.001 C 
HETATM   34  C32 8UH 5 620     -43.618 140.624   8.780  1.00 42.32     0.007 C 
HETATM   35  C33 8UH 5 620     -42.434 139.806   8.500  1.00 42.32    -0.062 C 
HETATM   36  C34 8UH 5 620     -42.147 138.803   9.357  1.00 42.32     0.007 C 
HETATM   37  C35 8UH 5 620     -40.982 137.939   9.199  1.00 42.32     0.001 C 
HETATM   38  C36 8UH 5 620     -50.398 145.423   6.791  1.00 16.14     0.020 C 
HETATM   39  C37 8UH 5 620     -50.092 143.418   8.204  1.00 16.14     0.020 C 
HETATM   40  C38 8UH 5 620     -47.573 147.060  10.172  1.00 16.14     0.044 C 
HETATM   41  C39 8UH 5 620     -45.038 144.278   6.834  1.00 42.32     0.048 C 
HETATM   42  C40 8UH 5 620     -41.627 140.152   7.286  1.00 42.32     0.048 C 
HETATM   43  O23 8UH 5 620     -52.359 146.701  10.764  1.00 16.14    -0.395 OA
ATOM     44  H23 8UH 5 620     -52.205 147.131  11.597  1.00  0.00     0.210 HD
ENDROOT
TORSDOF 12
