REMARK VINA RESULT:   -10.994      1.518     16.497
REMARK INTER + INTRA:         -11.741
REMARK INTER:                  -8.960
REMARK INTRA:                  -2.781
REMARK UNBOUND:                -0.747
REMARK  0 active torsions:
REMARK  status: ('A' for Active; 'I' for Inactive)
REMARK       I    between atoms: C3_3  and  O3_21 
REMARK       I    between atoms: C6_6  and  C7_7 
REMARK       I    between atoms: C8_8  and  C9_9 
REMARK       I    between atoms: C10_10  and  C11_11 
REMARK       I    between atoms: C12_12  and  C13_13 
REMARK       I    between atoms: C14_14  and  C15_15 
REMARK       I    between atoms: C23_25  and  O23_43 
REMARK       I    between atoms: C26_28  and  C27_29 
REMARK       I    between atoms: C28_30  and  C29_31 
REMARK       I    between atoms: C30_32  and  C31_33 
REMARK       I    between atoms: C32_34  and  C33_35 
REMARK       I    between atoms: C34_36  and  C35_37 
ROOT
HETATM    1  C1  8UH 21620     -34.450 127.907   6.490  1.00 97.95    -0.018 C 
HETATM    2  C2  8UH 21620     -33.714 127.603   5.190  1.00 97.95     0.045 C 
HETATM    3  C3  8UH 21620     -32.338 128.222   5.006  1.00 97.95     0.123 C 
HETATM    4  C4  8UH 21620     -31.571 128.271   6.307  1.00 97.95     0.066 C 
HETATM    5  C5  8UH 21620     -32.380 129.023   7.321  1.00 97.95    -0.074 C 
HETATM    6  C6  8UH 21620     -33.700 128.833   7.429  1.00 97.95    -0.048 C 
HETATM    7  C7  8UH 21620     -34.477 129.527   8.484  1.00 97.95     0.009 C 
HETATM    8  C8  8UH 21620     -35.009 130.730   8.274  1.00 97.95     0.007 C 
HETATM    9  C9  8UH 21620     -35.794 131.432   9.291  1.00 97.95    -0.062 C 
HETATM   10  C10 8UH 21620     -36.345 132.585   8.925  1.00 97.95     0.007 C 
HETATM   11  C11 8UH 21620     -37.165 133.397   9.806  1.00 97.95     0.001 C 
HETATM   12  C12 8UH 21620     -37.611 134.510   9.249  1.00 97.95     0.007 C 
HETATM   13  C13 8UH 21620     -38.481 135.469   9.938  1.00 97.95    -0.062 C 
HETATM   14  C14 8UH 21620     -39.100 136.347   9.150  1.00 97.95     0.007 C 
HETATM   15  C15 8UH 21620     -40.031 137.343   9.645  1.00 97.95     0.001 C 
HETATM   16  C16 8UH 21620     -34.753 126.566   7.150  1.00 97.95     0.020 C 
HETATM   17  C17 8UH 21620     -35.768 128.587   6.139  1.00 97.95     0.020 C 
HETATM   18  C18 8UH 21620     -31.599 129.882   8.270  1.00 97.95     0.044 C 
HETATM   19  C19 8UH 21620     -35.964 130.870  10.669  1.00 97.95     0.048 C 
HETATM   20  C20 8UH 21620     -38.677 135.453  11.424  1.00 97.95     0.048 C 
HETATM   21  O3  8UH 21620     -31.591 127.426   4.080  1.00 97.95    -0.395 OA
ATOM     22  H3  8UH 21620     -32.072 127.396   3.262  1.00  0.00     0.210 HD
HETATM   23  C21 8UH 21620     -49.902 144.963   9.444  1.00 87.69    -0.018 C 
HETATM   24  C22 8UH 21620     -50.574 145.493  10.696  1.00 87.69     0.045 C 
HETATM   25  C23 8UH 21620     -50.331 146.960  11.034  1.00 87.69     0.123 C 
HETATM   26  C24 8UH 21620     -48.995 147.521  10.566  1.00 87.69     0.066 C 
HETATM   27  C25 8UH 21620     -48.046 146.467  10.057  1.00 87.69    -0.074 C 
HETATM   28  C26 8UH 21620     -48.476 145.433   9.338  1.00 87.69    -0.048 C 
HETATM   29  C27 8UH 21620     -47.577 144.738   8.388  1.00 87.69     0.009 C 
HETATM   30  C28 8UH 21620     -46.721 143.814   8.810  1.00 87.69     0.007 C 
HETATM   31  C29 8UH 21620     -45.829 143.089   7.898  1.00 97.95    -0.062 C 
HETATM   32  C30 8UH 21620     -45.049 142.183   8.477  1.00 97.95     0.007 C 
HETATM   33  C31 8UH 21620     -44.097 141.334   7.785  1.00 97.95     0.001 C 
HETATM   34  C32 8UH 21620     -43.445 140.534   8.610  1.00 97.95     0.007 C 
HETATM   35  C33 8UH 21620     -42.440 139.574   8.162  1.00 97.95    -0.062 C 
HETATM   36  C34 8UH 21620     -41.839 138.842   9.099  1.00 97.95     0.007 C 
HETATM   37  C35 8UH 21620     -40.841 137.856   8.731  1.00 97.95     0.001 C 
HETATM   38  C36 8UH 21620     -50.702 145.333   8.199  1.00 87.69     0.020 C 
HETATM   39  C37 8UH 21620     -49.874 143.455   9.557  1.00 87.69     0.020 C 
HETATM   40  C38 8UH 21620     -46.874 147.286   9.615  1.00 87.69     0.044 C 
HETATM   41  C39 8UH 21620     -45.805 143.344   6.422  1.00 97.95     0.048 C 
HETATM   42  C40 8UH 21620     -42.110 139.432   6.710  1.00 97.95     0.048 C 
HETATM   43  O23 8UH 21620     -51.369 147.714  10.414  1.00 87.69    -0.395 OA
ATOM     44  H23 8UH 21620     -51.218 148.628  10.625  1.00  0.00     0.210 HD
ENDROOT
TORSDOF 12
