REMARK VINA RESULT:   -11.265      0.000      0.000
REMARK INTER + INTRA:         -13.973
REMARK INTER:                 -11.265
REMARK INTRA:                  -2.709
REMARK UNBOUND:                -2.709
REMARK  0 active torsions:
REMARK  status: ('A' for Active; 'I' for Inactive)
REMARK       I    between atoms: C3_3  and  O3_21 
REMARK       I    between atoms: C6_6  and  C7_7 
REMARK       I    between atoms: C8_8  and  C9_9 
REMARK       I    between atoms: C10_10  and  C11_11 
REMARK       I    between atoms: C12_12  and  C13_13 
REMARK       I    between atoms: C14_14  and  C15_15 
REMARK       I    between atoms: C23_25  and  O23_43 
REMARK       I    between atoms: C26_28  and  C27_29 
REMARK       I    between atoms: C28_30  and  C29_31 
REMARK       I    between atoms: C30_32  and  C31_33 
REMARK       I    between atoms: C32_34  and  C33_35 
REMARK       I    between atoms: C34_36  and  C35_37 
ROOT
HETATM    1  C1  8UH 31621     -34.420 127.015   6.394  1.00 71.39    -0.018 C 
HETATM    2  C2  8UH 31621     -34.117 126.530   4.981  1.00 71.39     0.045 C 
HETATM    3  C3  8UH 31621     -32.957 127.177   4.235  1.00 71.39     0.123 C 
HETATM    4  C4  8UH 31621     -31.885 127.659   5.187  1.00 71.39     0.066 C 
HETATM    5  C5  8UH 31621     -32.546 128.595   6.152  1.00 71.39    -0.074 C 
HETATM    6  C6  8UH 31621     -33.649 128.247   6.811  1.00 71.39    -0.048 C 
HETATM    7  C7  8UH 31621     -34.165 129.034   7.965  1.00 71.39     0.009 C 
HETATM    8  C8  8UH 31621     -34.916 130.121   7.788  1.00 71.39     0.007 C 
HETATM    9  C9  8UH 31621     -35.488 130.936   8.875  1.00 71.39    -0.062 C 
HETATM   10  C10 8UH 31621     -36.376 131.866   8.513  1.00 71.39     0.007 C 
HETATM   11  C11 8UH 31621     -37.102 132.777   9.389  1.00 71.39     0.001 C 
HETATM   12  C12 8UH 31621     -37.965 133.571   8.756  1.00 71.39     0.007 C 
HETATM   13  C13 8UH 31621     -38.844 134.557   9.404  1.00 71.39    -0.062 C 
HETATM   14  C14 8UH 31621     -39.681 135.256   8.629  1.00 71.39     0.007 C 
HETATM   15  C15 8UH 31621     -40.618 136.221   9.187  1.00 71.39     0.001 C 
HETATM   16  C16 8UH 31621     -34.171 125.859   7.357  1.00 71.39     0.020 C 
HETATM   17  C17 8UH 31621     -35.892 127.365   6.461  1.00 71.39     0.020 C 
HETATM   18  C18 8UH 31621     -31.582 129.600   6.682  1.00 71.39     0.044 C 
HETATM   19  C19 8UH 31621     -35.116 130.731  10.310  1.00 71.39     0.048 C 
HETATM   20  C20 8UH 31621     -38.821 134.754  10.886  1.00 71.39     0.048 C 
HETATM   21  O3  8UH 31621     -32.365 126.208   3.364  1.00 71.39    -0.395 OA
ATOM     22  H3  8UH 31621     -31.641 126.611   2.899  1.00  0.00     0.210 HD
HETATM   23  C21 8UH 31621     -50.189 144.210  10.863  1.00 70.34    -0.018 C 
HETATM   24  C22 8UH 31621     -50.917 144.542  12.151  1.00 70.34     0.045 C 
HETATM   25  C23 8UH 31621     -50.651 145.916  12.740  1.00 70.34     0.123 C 
HETATM   26  C24 8UH 31621     -49.182 146.292  12.725  1.00 70.34     0.066 C 
HETATM   27  C25 8UH 31621     -48.341 145.696  11.634  1.00 70.34    -0.074 C 
HETATM   28  C26 8UH 31621     -48.760 144.703  10.843  1.00 70.34    -0.048 C 
HETATM   29  C27 8UH 31621     -47.836 144.070   9.872  1.00 70.34     0.009 C 
HETATM   30  C28 8UH 31621     -47.148 142.968  10.151  1.00 70.34     0.007 C 
HETATM   31  C29 8UH 31621     -46.257 142.338   9.174  1.00 71.39    -0.062 C 
HETATM   32  C30 8UH 31621     -45.833 141.099   9.443  1.00 71.39     0.007 C 
HETATM   33  C31 8UH 31621     -44.950 140.336   8.571  1.00 71.39     0.001 C 
HETATM   34  C32 8UH 31621     -44.105 139.503   9.159  1.00 71.39     0.007 C 
HETATM   35  C33 8UH 31621     -43.165 138.668   8.403  1.00 71.39    -0.062 C 
HETATM   36  C34 8UH 31621     -42.321 137.877   9.067  1.00 71.39     0.007 C 
HETATM   37  C35 8UH 31621     -41.375 136.988   8.406  1.00 71.39     0.001 C 
HETATM   38  C36 8UH 31621     -50.986 144.770   9.693  1.00 70.34     0.020 C 
HETATM   39  C37 8UH 31621     -50.156 142.690  10.768  1.00 70.34     0.020 C 
HETATM   40  C38 8UH 31621     -46.894 146.083  11.729  1.00 70.34     0.044 C 
HETATM   41  C39 8UH 31621     -45.846 143.062   7.931  1.00 71.39     0.048 C 
HETATM   42  C40 8UH 31621     -43.183 138.732   6.918  1.00 71.39     0.048 C 
HETATM   43  O23 8UH 31621     -51.425 146.924  12.086  1.00 70.34    -0.395 OA
ATOM     44  H23 8UH 31621     -51.258 147.784  12.455  1.00  0.00     0.210 HD
ENDROOT
TORSDOF 12
