REMARK VINA RESULT:    -8.082      1.417     16.920
REMARK INTER + INTRA:         -10.891
REMARK INTER:                 -10.523
REMARK INTRA:                  -0.368
REMARK UNBOUND:                -2.809
REMARK  0 active torsions:
REMARK  status: ('A' for Active; 'I' for Inactive)
REMARK       I    between atoms: C3_3  and  O3_21 
REMARK       I    between atoms: C6_6  and  C7_7 
REMARK       I    between atoms: C8_8  and  C9_9 
REMARK       I    between atoms: C10_10  and  C11_11 
REMARK       I    between atoms: C12_12  and  C13_13 
REMARK       I    between atoms: C14_14  and  C15_15 
REMARK       I    between atoms: C23_25  and  O23_43 
REMARK       I    between atoms: C26_28  and  C27_29 
REMARK       I    between atoms: C28_30  and  C29_31 
REMARK       I    between atoms: C30_32  and  C31_33 
REMARK       I    between atoms: C32_34  and  C33_35 
REMARK       I    between atoms: C34_36  and  C35_37 
ROOT
HETATM    1  C1  8UH F5620     -34.201 128.154   6.775  1.00 19.30    -0.018 C 
HETATM    2  C2  8UH F5620     -33.366 127.653   5.582  1.00 17.68     0.045 C 
HETATM    3  C3  8UH F5620     -32.012 128.300   5.310  1.00 17.79     0.123 C 
HETATM    4  C4  8UH F5620     -31.383 129.033   6.496  1.00 18.50     0.066 C 
HETATM    5  C5  8UH F5620     -32.279 129.685   7.499  1.00 19.40    -0.074 C 
HETATM    6  C6  8UH F5620     -33.595 129.299   7.649  1.00 19.02    -0.048 C 
HETATM    7  C7  8UH F5620     -34.483 129.952   8.624  1.00 18.60     0.009 C 
HETATM    8  C8  8UH F5620     -35.084 131.153   8.490  1.00 18.09     0.007 C 
HETATM    9  C9  8UH F5620     -35.873 131.864   9.501  1.00 18.23    -0.062 C 
HETATM   10  C10 8UH F5620     -36.478 133.013   9.131  1.00 15.81     0.007 C 
HETATM   11  C11 8UH F5620     -37.307 133.852   9.953  1.00 18.00     0.001 C 
HETATM   12  C12 8UH F5620     -37.986 134.866   9.393  1.00 18.12     0.007 C 
HETATM   13  C13 8UH F5620     -38.916 135.806  10.007  1.00 18.88    -0.062 C 
HETATM   14  C14 8UH F5620     -39.552 136.668   9.186  1.00 21.10     0.007 C 
HETATM   15  C15 8UH F5620     -40.570 137.626   9.528  1.00 24.06     0.001 C 
HETATM   16  C16 8UH F5620     -34.388 126.891   7.633  1.00 17.17     0.020 C 
HETATM   17  C17 8UH F5620     -35.584 128.562   6.220  1.00 16.95     0.020 C 
HETATM   18  C18 8UH F5620     -31.507 130.745   8.218  1.00 19.80     0.044 C 
HETATM   19  C19 8UH F5620     -35.995 131.236  10.871  1.00 17.09     0.048 C 
HETATM   20  C20 8UH F5620     -39.156 135.702  11.481  1.00 16.35     0.048 C 
HETATM   21  O3  8UH F5620     -31.106 127.341   4.798  1.00 17.38    -0.395 OA
ATOM     22  H3  8UH F5620     -30.262 127.744   4.628  1.00  0.00     0.210 HD
HETATM   23  C21 8UH F5620     -50.667 145.363   9.901  1.00 19.63    -0.018 C 
HETATM   24  C22 8UH F5620     -51.610 145.841  11.002  1.00 19.63     0.045 C 
HETATM   25  C23 8UH F5620     -51.000 146.642  12.142  1.00 19.63     0.123 C 
HETATM   26  C24 8UH F5620     -49.918 147.559  11.619  1.00 19.63     0.066 C 
HETATM   27  C25 8UH F5620     -48.876 146.676  11.004  1.00 19.63    -0.074 C 
HETATM   28  C26 8UH F5620     -49.222 145.805  10.052  1.00 19.63    -0.048 C 
HETATM   29  C27 8UH F5620     -48.229 145.265   9.089  1.00 19.63     0.009 C 
HETATM   30  C28 8UH F5620     -47.391 144.275   9.402  1.00 19.63     0.007 C 
HETATM   31  C29 8UH F5620     -46.402 143.698   8.445  1.00 26.61    -0.062 C 
HETATM   32  C30 8UH F5620     -45.622 142.698   8.906  1.00 25.24     0.007 C 
HETATM   33  C31 8UH F5620     -44.643 141.961   8.161  1.00 26.40     0.001 C 
HETATM   34  C32 8UH F5620     -43.889 141.009   8.743  1.00 26.29     0.007 C 
HETATM   35  C33 8UH F5620     -42.842 140.177   8.140  1.00 26.99    -0.062 C 
HETATM   36  C34 8UH F5620     -42.192 139.310   8.946  1.00 26.65     0.007 C 
HETATM   37  C35 8UH F5620     -41.136 138.402   8.597  1.00 25.43     0.001 C 
HETATM   38  C36 8UH F5620     -51.246 145.834   8.571  1.00 19.63     0.020 C 
HETATM   39  C37 8UH F5620     -50.669 143.846   9.917  1.00 19.63     0.020 C 
HETATM   40  C38 8UH F5620     -47.642 147.518  10.920  1.00 19.63     0.044 C 
HETATM   41  C39 8UH F5620     -46.322 144.253   7.044  1.00 26.87     0.048 C 
HETATM   42  C40 8UH F5620     -42.551 140.364   6.680  1.00 24.17     0.048 C 
HETATM   43  O23 8UH F5620     -52.027 147.427  12.751  1.00 19.63    -0.395 OA
ATOM     44  H23 8UH F5620     -52.707 146.850  13.080  1.00  0.00     0.210 HD
ENDROOT
TORSDOF 12
