REMARK VINA RESULT:   -10.765      0.000      0.000
REMARK INTER + INTRA:         -14.076
REMARK INTER:                 -10.765
REMARK INTRA:                  -3.310
REMARK UNBOUND:                -3.310
REMARK  0 active torsions:
REMARK  status: ('A' for Active; 'I' for Inactive)
REMARK       I    between atoms: C3_3  and  O3_21 
REMARK       I    between atoms: C6_6  and  C7_7 
REMARK       I    between atoms: C8_8  and  C9_9 
REMARK       I    between atoms: C10_10  and  C11_11 
REMARK       I    between atoms: C12_12  and  C13_13 
REMARK       I    between atoms: C14_14  and  C15_15 
REMARK       I    between atoms: C23_25  and  O23_43 
REMARK       I    between atoms: C26_28  and  C27_29 
REMARK       I    between atoms: C28_30  and  C29_31 
REMARK       I    between atoms: C30_32  and  C31_33 
REMARK       I    between atoms: C32_34  and  C33_35 
REMARK       I    between atoms: C34_36  and  C35_37 
ROOT
HETATM    1  C1  8UH R 620     -49.181 143.240  11.327  1.00 48.79    -0.018 C 
HETATM    2  C2  8UH R 620     -49.620 143.479  12.765  1.00 49.38     0.045 C 
HETATM    3  C3  8UH R 620     -49.577 144.918  13.277  1.00 51.85     0.123 C 
HETATM    4  C4  8UH R 620     -48.310 145.659  12.886  1.00 54.16     0.066 C 
HETATM    5  C5  8UH R 620     -47.662 145.207  11.606  1.00 52.93    -0.074 C 
HETATM    6  C6  8UH R 620     -47.948 144.055  10.976  1.00 53.44    -0.048 C 
HETATM    7  C7  8UH R 620     -47.061 143.564   9.886  1.00 56.18     0.009 C 
HETATM    8  C8  8UH R 620     -46.132 142.629  10.093  1.00 54.04     0.007 C 
HETATM    9  C9  8UH R 620     -45.256 142.110   9.035  1.00 57.87    -0.062 C 
HETATM   10  C10 8UH R 620     -44.303 141.268   9.423  1.00 59.37     0.007 C 
HETATM   11  C11 8UH R 620     -43.356 140.627   8.527  1.00 54.77     0.001 C 
HETATM   12  C12 8UH R 620     -42.634 139.691   9.116  1.00 53.15     0.007 C 
HETATM   13  C13 8UH R 620     -41.639 138.876   8.421  1.00 52.91    -0.062 C 
HETATM   14  C14 8UH R 620     -41.125 137.875   9.127  1.00 56.79     0.007 C 
HETATM   15  C15 8UH R 620     -40.158 136.946   8.578  1.00 60.51     0.001 C 
HETATM   16  C16 8UH R 620     -50.327 143.568  10.382  1.00 50.92     0.020 C 
HETATM   17  C17 8UH R 620     -48.875 141.753  11.173  1.00 48.05     0.020 C 
HETATM   18  C18 8UH R 620     -46.334 145.878  11.472  1.00 55.82     0.044 C 
HETATM   19  C19 8UH R 620     -45.429 142.492   7.599  1.00 58.46     0.048 C 
HETATM   20  C20 8UH R 620     -41.245 139.136   6.999  1.00 55.54     0.048 C 
HETATM   21  O3  8UH R 620     -50.732 145.666  12.875  1.00 50.70    -0.395 OA
ATOM     22  H3  8UH R 620     -51.524 145.203  13.119  1.00  0.00     0.210 HD
HETATM   23  C21 8UH R 620     -33.706 126.849   6.706  1.00 15.23    -0.018 C 
HETATM   24  C22 8UH R 620     -34.115 126.622   5.264  1.00 15.23     0.045 C 
HETATM   25  C23 8UH R 620     -33.939 127.817   4.364  1.00 15.23     0.123 C 
HETATM   26  C24 8UH R 620     -32.573 128.381   4.617  1.00 15.23     0.066 C 
HETATM   27  C25 8UH R 620     -32.460 128.858   6.032  1.00 15.23    -0.074 C 
HETATM   28  C26 8UH R 620     -33.092 128.193   7.003  1.00 15.23    -0.048 C 
HETATM   29  C27 8UH R 620     -33.475 128.841   8.261  1.00 15.23     0.009 C 
HETATM   30  C28 8UH R 620     -34.202 129.943   8.052  1.00 15.23     0.007 C 
HETATM   31  C29 8UH R 620     -34.871 130.647   9.152  1.00 46.41    -0.062 C 
HETATM   32  C30 8UH R 620     -35.885 131.405   8.766  1.00 51.67     0.007 C 
HETATM   33  C31 8UH R 620     -36.705 132.206   9.644  1.00 48.57     0.001 C 
HETATM   34  C32 8UH R 620     -37.370 133.125   8.976  1.00 50.80     0.007 C 
HETATM   35  C33 8UH R 620     -38.274 134.064   9.625  1.00 54.69    -0.062 C 
HETATM   36  C34 8UH R 620     -38.884 134.949   8.839  1.00 55.71     0.007 C 
HETATM   37  C35 8UH R 620     -39.821 135.925   9.352  1.00 57.66     0.001 C 
HETATM   38  C36 8UH R 620     -32.602 125.850   6.997  1.00 15.23     0.020 C 
HETATM   39  C37 8UH R 620     -34.915 126.598   7.587  1.00 15.23     0.020 C 
HETATM   40  C38 8UH R 620     -31.908 130.246   6.176  1.00 15.23     0.044 C 
HETATM   41  C39 8UH R 620     -34.451 130.526  10.583  1.00 47.78     0.048 C 
HETATM   42  C40 8UH R 620     -38.468 134.022  11.107  1.00 56.30     0.048 C 
HETATM   43  O23 8UH R 620     -33.965 127.390   3.007  1.00 15.23    -0.395 OA
ATOM     44  H23 8UH R 620     -33.853 128.143   2.439  1.00  0.00     0.210 HD
ENDROOT
TORSDOF 12
