REMARK VINA RESULT:    -9.687      1.354     16.523
REMARK INTER + INTRA:         -12.397
REMARK INTER:                 -12.208
REMARK INTRA:                  -0.190
REMARK UNBOUND:                -2.710
REMARK  0 active torsions:
REMARK  status: ('A' for Active; 'I' for Inactive)
REMARK       I    between atoms: C3_3  and  O3_21 
REMARK       I    between atoms: C6_6  and  C7_7 
REMARK       I    between atoms: C8_8  and  C9_9 
REMARK       I    between atoms: C10_10  and  C11_11 
REMARK       I    between atoms: C12_12  and  C13_13 
REMARK       I    between atoms: C14_14  and  C15_15 
REMARK       I    between atoms: C23_25  and  O23_43 
REMARK       I    between atoms: C26_28  and  C27_29 
REMARK       I    between atoms: C28_30  and  C29_31 
REMARK       I    between atoms: C30_32  and  C31_33 
REMARK       I    between atoms: C32_34  and  C33_35 
REMARK       I    between atoms: C34_36  and  C35_37 
ROOT
HETATM    1  C1  8UH 1 617     -49.495 144.765  12.162  1.00 21.49    -0.018 C 
HETATM    2  C2  8UH 1 617     -49.910 145.020  13.607  1.00 21.49     0.045 C 
HETATM    3  C3  8UH 1 617     -49.154 146.090  14.380  1.00 21.49     0.123 C 
HETATM    4  C4  8UH 1 617     -48.746 147.247  13.497  1.00 21.49     0.066 C 
HETATM    5  C5  8UH 1 617     -47.977 146.742  12.309  1.00 21.49    -0.074 C 
HETATM    6  C6  8UH 1 617     -48.322 145.607  11.686  1.00 21.49    -0.048 C 
HETATM    7  C7  8UH 1 617     -47.556 145.157  10.493  1.00 21.49     0.009 C 
HETATM    8  C8  8UH 1 617     -46.546 144.292  10.597  1.00 21.49     0.007 C 
HETATM    9  C9  8UH 1 617     -45.756 143.819   9.449  1.00 21.49    -0.062 C 
HETATM   10  C10 8UH 1 617     -44.852 142.869   9.711  1.00 21.49     0.007 C 
HETATM   11  C11 8UH 1 617     -43.958 142.232   8.755  1.00 21.49     0.001 C 
HETATM   12  C12 8UH 1 617     -43.184 141.319   9.322  1.00 21.49     0.007 C 
HETATM   13  C13 8UH 1 617     -42.200 140.476   8.631  1.00 21.49    -0.062 C 
HETATM   14  C14 8UH 1 617     -41.679 139.474   9.344  1.00 21.49     0.007 C 
HETATM   15  C15 8UH 1 617     -40.723 138.527   8.794  1.00 21.49     0.001 C 
HETATM   16  C16 8UH 1 617     -50.740 144.991  11.305  1.00 21.49     0.020 C 
HETATM   17  C17 8UH 1 617     -49.088 143.303  12.055  1.00 21.49     0.020 C 
HETATM   18  C18 8UH 1 617     -46.837 147.598  11.836  1.00 21.49     0.044 C 
HETATM   19  C19 8UH 1 617     -45.949 144.391   8.079  1.00 21.49     0.048 C 
HETATM   20  C20 8UH 1 617     -41.811 140.708   7.204  1.00 21.49     0.048 C 
HETATM   21  O3  8UH 1 617     -50.021 146.598  15.399  1.00 21.49    -0.395 OA
ATOM     22  H3  8UH 1 617     -49.549 147.266  15.881  1.00  0.00     0.210 HD
HETATM   23  C21 8UH 1 617     -34.153 128.043   6.950  1.00 73.56    -0.018 C 
HETATM   24  C22 8UH 1 617     -33.476 127.457   5.709  1.00 73.56     0.045 C 
HETATM   25  C23 8UH 1 617     -32.236 128.158   5.158  1.00 73.56     0.123 C 
HETATM   26  C24 8UH 1 617     -31.442 128.835   6.265  1.00 73.56     0.066 C 
HETATM   27  C25 8UH 1 617     -32.372 129.785   6.971  1.00 73.56    -0.074 C 
HETATM   28  C26 8UH 1 617     -33.544 129.348   7.444  1.00 73.56    -0.048 C 
HETATM   29  C27 8UH 1 617     -34.257 130.120   8.491  1.00 73.56     0.009 C 
HETATM   30  C28 8UH 1 617     -35.064 131.147   8.209  1.00 73.56     0.007 C 
HETATM   31  C29 8UH 1 617     -35.756 131.889   9.270  1.00 21.49    -0.062 C 
HETATM   32  C30 8UH 1 617     -36.733 132.694   8.868  1.00 21.49     0.007 C 
HETATM   33  C31 8UH 1 617     -37.553 133.496   9.759  1.00 21.49     0.001 C 
HETATM   34  C32 8UH 1 617     -38.145 134.510   9.150  1.00 21.49     0.007 C 
HETATM   35  C33 8UH 1 617     -39.038 135.473   9.797  1.00 21.49    -0.062 C 
HETATM   36  C34 8UH 1 617     -39.499 136.473   9.036  1.00 21.49     0.007 C 
HETATM   37  C35 8UH 1 617     -40.417 137.474   9.544  1.00 21.49     0.001 C 
HETATM   38  C36 8UH 1 617     -34.113 126.976   8.042  1.00 73.56     0.020 C 
HETATM   39  C37 8UH 1 617     -35.608 128.336   6.607  1.00 73.56     0.020 C 
HETATM   40  C38 8UH 1 617     -31.549 130.794   7.721  1.00 73.56     0.044 C 
HETATM   41  C39 8UH 1 617     -35.395 131.736  10.716  1.00 21.49     0.048 C 
HETATM   42  C40 8UH 1 617     -39.417 135.324  11.235  1.00 21.49     0.048 C 
HETATM   43  O23 8UH 1 617     -31.405 127.190   4.506  1.00 73.56    -0.395 OA
ATOM     44  H23 8UH 1 617     -30.634 127.627   4.163  1.00  0.00     0.210 HD
ENDROOT
TORSDOF 12
