REMARK VINA RESULT:   -10.133      0.000      0.000
REMARK INTER + INTRA:         -13.150
REMARK INTER:                 -10.133
REMARK INTRA:                  -3.017
REMARK UNBOUND:                -3.017
REMARK  0 active torsions:
REMARK  status: ('A' for Active; 'I' for Inactive)
REMARK       I    between atoms: C3_3  and  O3_21 
REMARK       I    between atoms: C6_6  and  C7_7 
REMARK       I    between atoms: C8_8  and  C9_9 
REMARK       I    between atoms: C10_10  and  C11_11 
REMARK       I    between atoms: C12_12  and  C13_13 
REMARK       I    between atoms: C14_14  and  C15_15 
REMARK       I    between atoms: C23_25  and  O23_43 
REMARK       I    between atoms: C26_28  and  C27_29 
REMARK       I    between atoms: C28_30  and  C29_31 
REMARK       I    between atoms: C30_32  and  C31_33 
REMARK       I    between atoms: C32_34  and  C33_35 
REMARK       I    between atoms: C34_36  and  C35_37 
ROOT
HETATM    1  C1  8UH Y1621     -48.416 144.864  11.441  1.00 30.42    -0.018 C 
HETATM    2  C2  8UH Y1621     -49.155 144.806  12.782  1.00 30.42     0.045 C 
HETATM    3  C3  8UH Y1621     -48.505 145.516  13.963  1.00 30.42     0.123 C 
HETATM    4  C4  8UH Y1621     -47.468 146.534  13.509  1.00 30.42     0.066 C 
HETATM    5  C5  8UH Y1621     -46.494 145.798  12.639  1.00 30.42    -0.074 C 
HETATM    6  C6  8UH Y1621     -46.941 145.199  11.538  1.00 30.42    -0.048 C 
HETATM    7  C7  8UH Y1621     -46.038 144.673  10.493  1.00 30.42     0.009 C 
HETATM    8  C8  8UH Y1621     -44.838 144.204  10.847  1.00 30.42     0.007 C 
HETATM    9  C9  8UH Y1621     -44.043 143.466   9.838  1.00 30.42    -0.062 C 
HETATM   10  C10 8UH Y1621     -43.144 142.577  10.304  1.00 30.42     0.007 C 
HETATM   11  C11 8UH Y1621     -42.405 141.655   9.442  1.00 30.42     0.001 C 
HETATM   12  C12 8UH Y1621     -41.748 140.635   9.992  1.00 30.42     0.007 C 
HETATM   13  C13 8UH Y1621     -41.061 139.622   9.161  1.00 30.42    -0.062 C 
HETATM   14  C14 8UH Y1621     -40.549 138.548   9.795  1.00 30.42     0.007 C 
HETATM   15  C15 8UH Y1621     -39.861 137.444   9.119  1.00 30.42     0.001 C 
HETATM   16  C16 8UH Y1621     -49.020 145.976  10.586  1.00 30.42     0.020 C 
HETATM   17  C17 8UH Y1621     -48.634 143.542  10.725  1.00 30.42     0.020 C 
HETATM   18  C18 8UH Y1621     -45.274 146.677  12.631  1.00 30.42     0.044 C 
HETATM   19  C19 8UH Y1621     -44.329 143.658   8.365  1.00 30.42     0.048 C 
HETATM   20  C20 8UH Y1621     -40.997 139.825   7.668  1.00 30.42     0.048 C 
HETATM   21  O3  8UH Y1621     -49.557 146.173  14.665  1.00 30.42    -0.395 OA
ATOM     22  H3  8UH Y1621     -49.152 146.615  15.401  1.00  0.00     0.210 HD
HETATM   23  C21 8UH Y1621     -33.465 126.601   6.890  1.00 15.23    -0.018 C 
HETATM   24  C22 8UH Y1621     -33.929 126.099   5.536  1.00 15.23     0.045 C 
HETATM   25  C23 8UH Y1621     -34.028 127.160   4.472  1.00 15.23     0.123 C 
HETATM   26  C24 8UH Y1621     -32.768 127.973   4.519  1.00 15.23     0.066 C 
HETATM   27  C25 8UH Y1621     -32.643 128.665   5.840  1.00 15.23    -0.074 C 
HETATM   28  C26 8UH Y1621     -33.078 128.056   6.945  1.00 15.23    -0.048 C 
HETATM   29  C27 8UH Y1621     -33.481 128.811   8.136  1.00 15.23     0.009 C 
HETATM   30  C28 8UH Y1621     -34.404 129.734   7.851  1.00 15.23     0.007 C 
HETATM   31  C29 8UH Y1621     -35.110 130.477   8.913  1.00 30.42    -0.062 C 
HETATM   32  C30 8UH Y1621     -35.971 131.435   8.505  1.00 30.42     0.007 C 
HETATM   33  C31 8UH Y1621     -36.718 132.306   9.411  1.00 30.42     0.001 C 
HETATM   34  C32 8UH Y1621     -37.431 133.308   8.899  1.00 30.42     0.007 C 
HETATM   35  C33 8UH Y1621     -38.148 134.271   9.762  1.00 30.42    -0.062 C 
HETATM   36  C34 8UH Y1621     -38.705 135.336   9.145  1.00 30.42     0.007 C 
HETATM   37  C35 8UH Y1621     -39.406 136.421   9.835  1.00 30.42     0.001 C 
HETATM   38  C36 8UH Y1621     -32.186 125.851   7.207  1.00 15.23     0.020 C 
HETATM   39  C37 8UH Y1621     -34.548 126.287   7.906  1.00 15.23     0.020 C 
HETATM   40  C38 8UH Y1621     -32.335 130.130   5.743  1.00 15.23     0.044 C 
HETATM   41  C39 8UH Y1621     -34.844 130.130  10.356  1.00 30.42     0.048 C 
HETATM   42  C40 8UH Y1621     -38.173 134.055  11.253  1.00 30.42     0.048 C 
HETATM   43  O23 8UH Y1621     -34.073 126.538   3.192  1.00 15.23    -0.395 OA
ATOM     44  H23 8UH Y1621     -34.872 126.023   3.163  1.00  0.00     0.210 HD
ENDROOT
TORSDOF 12
