REMARK VINA RESULT:   -10.395      0.000      0.000
REMARK INTER + INTRA:         -13.556
REMARK INTER:                 -10.395
REMARK INTRA:                  -3.161
REMARK UNBOUND:                -3.161
REMARK  0 active torsions:
REMARK  status: ('A' for Active; 'I' for Inactive)
REMARK       I    between atoms: C3_3  and  O3_21 
REMARK       I    between atoms: C6_6  and  C7_7 
REMARK       I    between atoms: C8_8  and  C9_9 
REMARK       I    between atoms: C10_10  and  C11_11 
REMARK       I    between atoms: C12_12  and  C13_13 
REMARK       I    between atoms: C14_14  and  C15_15 
REMARK       I    between atoms: C23_25  and  O23_43 
REMARK       I    between atoms: C26_28  and  C27_29 
REMARK       I    between atoms: C28_30  and  C29_31 
REMARK       I    between atoms: C30_32  and  C31_33 
REMARK       I    between atoms: C32_34  and  C33_35 
REMARK       I    between atoms: C34_36  and  C35_37 
ROOT
HETATM    1  C1  8UH 5 624     -34.436 126.945   6.178  1.00 23.68    -0.018 C 
HETATM    2  C2  8UH 5 624     -34.063 126.311   4.841  1.00 23.68     0.045 C 
HETATM    3  C3  8UH 5 624     -32.905 126.906   4.049  1.00 23.68     0.123 C 
HETATM    4  C4  8UH 5 624     -31.895 127.589   4.952  1.00 23.68     0.066 C 
HETATM    5  C5  8UH 5 624     -32.619 128.591   5.805  1.00 23.68    -0.074 C 
HETATM    6  C6  8UH 5 624     -33.695 128.230   6.508  1.00 23.68    -0.048 C 
HETATM    7  C7  8UH 5 624     -34.168 129.055   7.653  1.00 23.68     0.009 C 
HETATM    8  C8  8UH 5 624     -34.967 130.117   7.508  1.00 23.68     0.007 C 
HETATM    9  C9  8UH 5 624     -35.443 130.932   8.652  1.00 23.68    -0.062 C 
HETATM   10  C10 8UH 5 624     -36.336 131.902   8.399  1.00 23.68     0.007 C 
HETATM   11  C11 8UH 5 624     -36.954 132.806   9.369  1.00 23.68     0.001 C 
HETATM   12  C12 8UH 5 624     -37.937 133.549   8.853  1.00 23.68     0.007 C 
HETATM   13  C13 8UH 5 624     -38.803 134.541   9.522  1.00 23.68    -0.062 C 
HETATM   14  C14 8UH 5 624     -39.607 135.282   8.741  1.00 23.68     0.007 C 
HETATM   15  C15 8UH 5 624     -40.546 136.267   9.270  1.00 23.68     0.001 C 
HETATM   16  C16 8UH 5 624     -34.193 125.882   7.235  1.00 23.68     0.020 C 
HETATM   17  C17 8UH 5 624     -35.920 127.275   6.149  1.00 23.68     0.020 C 
HETATM   18  C18 8UH 5 624     -31.636 129.588   6.338  1.00 23.68     0.044 C 
HETATM   19  C19 8UH 5 624     -34.948 130.685  10.043  1.00 23.68     0.048 C 
HETATM   20  C20 8UH 5 624     -38.810 134.703  11.010  1.00 23.68     0.048 C 
HETATM   21  O3  8UH 5 624     -32.255 125.850   3.338  1.00 23.68    -0.395 OA
ATOM     22  H3  8UH 5 624     -31.533 126.221   2.844  1.00  0.00     0.210 HD
HETATM   23  C21 8UH 5 624     -50.009 144.711  11.064  1.00 20.77    -0.018 C 
HETATM   24  C22 8UH 5 624     -50.997 144.956  12.217  1.00 19.21     0.045 C 
HETATM   25  C23 8UH 5 624     -50.501 145.492  13.558  1.00 20.68     0.123 C 
HETATM   26  C24 8UH 5 624     -48.991 145.728  13.663  1.00 17.77     0.066 C 
HETATM   27  C25 8UH 5 624     -48.054 145.260  12.596  1.00 19.05    -0.074 C 
HETATM   28  C26 8UH 5 624     -48.478 144.778  11.373  1.00 19.48    -0.048 C 
HETATM   29  C27 8UH 5 624     -47.581 144.292  10.290  1.00 16.56     0.009 C 
HETATM   30  C28 8UH 5 624     -46.998 143.064  10.248  1.00 15.55     0.007 C 
HETATM   31  C29 8UH 5 624     -46.089 142.544   9.252  1.00 23.68    -0.062 C 
HETATM   32  C30 8UH 5 624     -45.555 141.340   9.484  1.00 23.68     0.007 C 
HETATM   33  C31 8UH 5 624     -44.637 140.640   8.595  1.00 23.68     0.001 C 
HETATM   34  C32 8UH 5 624     -43.785 139.796   9.160  1.00 23.68     0.007 C 
HETATM   35  C33 8UH 5 624     -42.819 138.992   8.400  1.00 23.68    -0.062 C 
HETATM   36  C34 8UH 5 624     -42.133 138.052   9.070  1.00 23.68     0.007 C 
HETATM   37  C35 8UH 5 624     -41.169 137.133   8.469  1.00 23.68     0.001 C 
HETATM   38  C36 8UH 5 624     -50.385 145.795  10.024  1.00 20.67     0.020 C 
HETATM   39  C37 8UH 5 624     -50.384 143.337  10.470  1.00 19.98     0.020 C 
HETATM   40  C38 8UH 5 624     -46.657 145.414  13.089  1.00 17.40     0.044 C 
HETATM   41  C39 8UH 5 624     -45.781 143.328   8.013  1.00 23.68     0.048 C 
HETATM   42  C40 8UH 5 624     -42.635 139.229   6.932  1.00 23.68     0.048 C 
HETATM   43  O23 8UH 5 624     -51.217 146.671  13.918  1.00 20.33    -0.395 OA
ATOM     44  H23 8UH 5 624     -52.153 146.525  13.853  1.00  0.00     0.210 HD
ENDROOT
TORSDOF 12
