REMARK VINA RESULT:   -11.427      0.000      0.000
REMARK INTER + INTRA:         -13.826
REMARK INTER:                 -11.427
REMARK INTRA:                  -2.399
REMARK UNBOUND:                -2.399
REMARK  0 active torsions:
REMARK  status: ('A' for Active; 'I' for Inactive)
REMARK       I    between atoms: C3_3  and  O3_21 
REMARK       I    between atoms: C6_6  and  C7_7 
REMARK       I    between atoms: C8_8  and  C9_9 
REMARK       I    between atoms: C10_10  and  C11_11 
REMARK       I    between atoms: C12_12  and  C13_13 
REMARK       I    between atoms: C14_14  and  C15_15 
REMARK       I    between atoms: C23_25  and  O23_43 
REMARK       I    between atoms: C26_28  and  C27_29 
REMARK       I    between atoms: C28_30  and  C29_31 
REMARK       I    between atoms: C30_32  and  C31_33 
REMARK       I    between atoms: C32_34  and  C33_35 
REMARK       I    between atoms: C34_36  and  C35_37 
ROOT
HETATM    1  C1  8UH S1621     -48.945 144.226  11.955  1.00 98.50    -0.018 C 
HETATM    2  C2  8UH S1621     -49.779 145.019  12.941  1.00 95.05     0.045 C 
HETATM    3  C3  8UH S1621     -48.931 145.615  14.042  1.00 91.19     0.123 C 
HETATM    4  C4  8UH S1621     -47.882 146.545  13.468  1.00 95.39     0.066 C 
HETATM    5  C5  8UH S1621     -47.325 146.117  12.136  1.00 94.24    -0.074 C 
HETATM    6  C6  8UH S1621     -47.710 144.992  11.493  1.00 98.17    -0.048 C 
HETATM    7  C7  8UH S1621     -46.988 144.479  10.290  1.00 96.30     0.009 C 
HETATM    8  C8  8UH S1621     -45.906 143.696  10.365  1.00 99.74     0.007 C 
HETATM    9  C9  8UH S1621     -45.184 143.147   9.217  1.00 91.17    -0.062 C 
HETATM   10  C10 8UH S1621     -44.304 142.194   9.520  1.00 97.68     0.007 C 
HETATM   11  C11 8UH S1621     -43.502 141.491   8.540  1.00 98.02     0.001 C 
HETATM   12  C12 8UH S1621     -42.955 140.387   9.012  1.00 91.18     0.007 C 
HETATM   13  C13 8UH S1621     -42.131 139.490   8.203  1.00 90.92    -0.062 C 
HETATM   14  C14 8UH S1621     -41.651 138.415   8.823  1.00 96.50     0.007 C 
HETATM   15  C15 8UH S1621     -40.834 137.409   8.179  1.00 99.38     0.001 C 
HETATM   16  C16 8UH S1621     -49.909 143.823  10.850  1.00 90.00     0.020 C 
HETATM   17  C17 8UH S1621     -48.444 142.950  12.602  1.00 93.85     0.020 C 
HETATM   18  C18 8UH S1621     -45.988 146.760  11.949  1.00 91.76     0.044 C 
HETATM   19  C19 8UH S1621     -45.425 143.608   7.811  1.00 90.99     0.048 C 
HETATM   20  C20 8UH S1621     -41.869 139.766   6.754  1.00 93.33     0.048 C 
HETATM   21  O3  8UH S1621     -49.769 146.381  14.907  1.00 92.07    -0.395 OA
ATOM     22  H3  8UH S1621     -49.237 146.756  15.598  1.00  0.00     0.210 HD
HETATM   23  C21 8UH S1621     -34.318 126.898   6.524  1.00 56.99    -0.018 C 
HETATM   24  C22 8UH S1621     -34.056 126.324   5.133  1.00 56.99     0.045 C 
HETATM   25  C23 8UH S1621     -33.070 127.060   4.235  1.00 56.99     0.123 C 
HETATM   26  C24 8UH S1621     -31.996 127.765   5.037  1.00 56.99     0.066 C 
HETATM   27  C25 8UH S1621     -32.654 128.669   6.040  1.00 56.99    -0.074 C 
HETATM   28  C26 8UH S1621     -33.690 128.256   6.768  1.00 56.99    -0.048 C 
HETATM   29  C27 8UH S1621     -34.228 129.129   7.846  1.00 56.99     0.009 C 
HETATM   30  C28 8UH S1621     -35.248 129.961   7.626  1.00 56.99     0.007 C 
HETATM   31  C29 8UH S1621     -35.808 130.830   8.647  1.00 98.43    -0.062 C 
HETATM   32  C30 8UH S1621     -36.778 131.644   8.257  1.00 92.06     0.007 C 
HETATM   33  C31 8UH S1621     -37.463 132.574   9.130  1.00 98.99     0.001 C 
HETATM   34  C32 8UH S1621     -38.072 133.541   8.472  1.00 98.35     0.007 C 
HETATM   35  C33 8UH S1621     -38.853 134.578   9.140  1.00 93.74    -0.062 C 
HETATM   36  C34 8UH S1621     -39.336 135.563   8.388  1.00 95.45     0.007 C 
HETATM   37  C35 8UH S1621     -40.149 136.607   8.977  1.00 96.56     0.001 C 
HETATM   38  C36 8UH S1621     -33.862 125.868   7.555  1.00 56.99     0.020 C 
HETATM   39  C37 8UH S1621     -35.816 127.072   6.666  1.00 56.99     0.020 C 
HETATM   40  C38 8UH S1621     -31.928 129.938   6.352  1.00 56.99     0.044 C 
HETATM   41  C39 8UH S1621     -35.308 130.798  10.059  1.00 93.10     0.048 C 
HETATM   42  C40 8UH S1621     -39.113 134.494  10.611  1.00 95.49     0.048 C 
HETATM   43  O23 8UH S1621     -32.436 126.112   3.373  1.00 56.99    -0.395 OA
ATOM     44  H23 8UH S1621     -31.822 126.570   2.813  1.00  0.00     0.210 HD
ENDROOT
TORSDOF 12
