REMARK VINA RESULT:    -9.676      1.544      1.973
REMARK INTER + INTRA:         -12.076
REMARK INTER:                 -11.695
REMARK INTRA:                  -0.382
REMARK UNBOUND:                -2.400
REMARK  0 active torsions:
REMARK  status: ('A' for Active; 'I' for Inactive)
REMARK       I    between atoms: C3_3  and  O3_21 
REMARK       I    between atoms: C6_6  and  C7_7 
REMARK       I    between atoms: C8_8  and  C9_9 
REMARK       I    between atoms: C10_10  and  C11_11 
REMARK       I    between atoms: C12_12  and  C13_13 
REMARK       I    between atoms: C14_14  and  C15_15 
REMARK       I    between atoms: C23_25  and  O23_43 
REMARK       I    between atoms: C26_28  and  C27_29 
REMARK       I    between atoms: C28_30  and  C29_31 
REMARK       I    between atoms: C30_32  and  C31_33 
REMARK       I    between atoms: C32_34  and  C33_35 
REMARK       I    between atoms: C34_36  and  C35_37 
ROOT
HETATM    1  C1  8UH y1621     -50.125 145.449  10.806  1.00 26.19    -0.018 C 
HETATM    2  C2  8UH y1621     -51.175 145.894  11.817  1.00 26.65     0.045 C 
HETATM    3  C3  8UH y1621     -50.688 146.673  13.025  1.00 28.07     0.123 C 
HETATM    4  C4  8UH y1621     -49.592 147.639  12.657  1.00 30.07     0.066 C 
HETATM    5  C5  8UH y1621     -48.478 146.887  12.005  1.00 28.83    -0.074 C 
HETATM    6  C6  8UH y1621     -48.734 146.029  11.012  1.00 27.49    -0.048 C 
HETATM    7  C7  8UH y1621     -47.681 145.603  10.058  1.00 29.45     0.009 C 
HETATM    8  C8  8UH y1621     -46.710 144.751  10.393  1.00 27.83     0.007 C 
HETATM    9  C9  8UH y1621     -45.692 144.296   9.441  1.00 26.06    -0.062 C 
HETATM   10  C10 8UH y1621     -45.001 143.221   9.810  1.00 25.01     0.007 C 
HETATM   11  C11 8UH y1621     -43.991 142.573   9.002  1.00 25.09     0.001 C 
HETATM   12  C12 8UH y1621     -43.460 141.499   9.554  1.00 26.01     0.007 C 
HETATM   13  C13 8UH y1621     -42.475 140.656   8.874  1.00 26.36    -0.062 C 
HETATM   14  C14 8UH y1621     -42.081 139.543   9.498  1.00 27.67     0.007 C 
HETATM   15  C15 8UH y1621     -41.136 138.628   8.877  1.00 28.38     0.001 C 
HETATM   16  C16 8UH y1621     -50.683 145.859   9.455  1.00 26.46     0.020 C 
HETATM   17  C17 8UH y1621     -49.995 143.934  10.866  1.00 26.61     0.020 C 
HETATM   18  C18 8UH y1621     -47.302 147.807  12.008  1.00 29.43     0.044 C 
HETATM   19  C19 8UH y1621     -45.463 144.989   8.135  1.00 26.07     0.048 C 
HETATM   20  C20 8UH y1621     -41.984 141.010   7.505  1.00 25.83     0.048 C 
HETATM   21  O3  8UH y1621     -51.782 147.403  13.572  1.00 27.44    -0.395 OA
ATOM     22  H3  8UH y1621     -51.478 147.891  14.328  1.00  0.00     0.210 HD
HETATM   23  C21 8UH y1621     -33.973 128.165   7.332  1.00 13.75    -0.018 C 
HETATM   24  C22 8UH y1621     -33.090 127.337   6.409  1.00 13.75     0.045 C 
HETATM   25  C23 8UH y1621     -32.408 128.153   5.336  1.00 13.75     0.123 C 
HETATM   26  C24 8UH y1621     -31.600 129.235   6.002  1.00 13.75     0.066 C 
HETATM   27  C25 8UH y1621     -32.509 130.115   6.807  1.00 13.75    -0.074 C 
HETATM   28  C26 8UH y1621     -33.566 129.624   7.476  1.00 13.75    -0.048 C 
HETATM   29  C27 8UH y1621     -34.366 130.441   8.433  1.00 13.75     0.009 C 
HETATM   30  C28 8UH y1621     -35.311 131.326   8.086  1.00 13.75     0.007 C 
HETATM   31  C29 8UH y1621     -36.079 132.068   9.087  1.00 29.73    -0.062 C 
HETATM   32  C30 8UH y1621     -37.135 132.732   8.629  1.00 28.64     0.007 C 
HETATM   33  C31 8UH y1621     -38.011 133.531   9.457  1.00 27.79     0.001 C 
HETATM   34  C32 8UH y1621     -38.524 134.591   8.857  1.00 27.11     0.007 C 
HETATM   35  C33 8UH y1621     -39.436 135.511   9.532  1.00 25.78    -0.062 C 
HETATM   36  C34 8UH y1621     -39.877 136.591   8.887  1.00 26.10     0.007 C 
HETATM   37  C35 8UH y1621     -40.802 137.520   9.516  1.00 27.22     0.001 C 
HETATM   38  C36 8UH y1621     -33.964 127.457   8.678  1.00 13.75     0.020 C 
HETATM   39  C37 8UH y1621     -35.383 128.154   6.764  1.00 13.75     0.020 C 
HETATM   40  C38 8UH y1621     -31.960 131.485   7.027  1.00 13.75     0.044 C 
HETATM   41  C39 8UH y1621     -35.686 132.060  10.526  1.00 32.37     0.048 C 
HETATM   42  C40 8UH y1621     -39.862 135.210  10.925  1.00 25.14     0.048 C 
HETATM   43  O23 8UH y1621     -31.534 127.318   4.575  1.00 13.75    -0.395 OA
ATOM     44  H23 8UH y1621     -31.106 127.831   3.900  1.00  0.00     0.210 HD
ENDROOT
TORSDOF 12
