REMARK VINA RESULT:    -9.599      0.000      0.000
REMARK INTER + INTRA:         -12.884
REMARK INTER:                  -9.599
REMARK INTRA:                  -3.285
REMARK UNBOUND:                -3.285
REMARK  0 active torsions:
REMARK  status: ('A' for Active; 'I' for Inactive)
REMARK       I    between atoms: C3_3  and  O3_21 
REMARK       I    between atoms: C6_6  and  C7_7 
REMARK       I    between atoms: C8_8  and  C9_9 
REMARK       I    between atoms: C10_10  and  C11_11 
REMARK       I    between atoms: C12_12  and  C13_13 
REMARK       I    between atoms: C14_14  and  C15_15 
REMARK       I    between atoms: C23_25  and  O23_43 
REMARK       I    between atoms: C26_28  and  C27_29 
REMARK       I    between atoms: C28_30  and  C29_31 
REMARK       I    between atoms: C30_32  and  C31_33 
REMARK       I    between atoms: C32_34  and  C33_35 
REMARK       I    between atoms: C34_36  and  C35_37 
ROOT
HETATM    1  C1  8UH N1621     -34.356 127.010   6.301  1.00 51.88    -0.018 C 
HETATM    2  C2  8UH N1621     -33.956 126.443   4.945  1.00 51.88     0.045 C 
HETATM    3  C3  8UH N1621     -32.785 127.101   4.250  1.00 51.88     0.123 C 
HETATM    4  C4  8UH N1621     -31.709 127.425   5.258  1.00 51.88     0.066 C 
HETATM    5  C5  8UH N1621     -32.269 128.351   6.295  1.00 51.88    -0.074 C 
HETATM    6  C6  8UH N1621     -33.469 128.121   6.831  1.00 51.88    -0.048 C 
HETATM    7  C7  8UH N1621     -34.000 128.924   7.965  1.00 51.88     0.009 C 
HETATM    8  C8  8UH N1621     -34.608 130.098   7.785  1.00 51.88     0.007 C 
HETATM    9  C9  8UH N1621     -35.189 130.901   8.869  1.00 51.88    -0.062 C 
HETATM   10  C10 8UH N1621     -36.086 131.805   8.476  1.00 51.88     0.007 C 
HETATM   11  C11 8UH N1621     -36.847 132.703   9.330  1.00 51.88     0.001 C 
HETATM   12  C12 8UH N1621     -37.697 133.485   8.677  1.00 51.88     0.007 C 
HETATM   13  C13 8UH N1621     -38.597 134.423   9.359  1.00 51.88    -0.062 C 
HETATM   14  C14 8UH N1621     -39.403 135.191   8.615  1.00 51.88     0.007 C 
HETATM   15  C15 8UH N1621     -40.348 136.115   9.228  1.00 51.88     0.001 C 
HETATM   16  C16 8UH N1621     -34.436 125.850   7.280  1.00 51.88     0.020 C 
HETATM   17  C17 8UH N1621     -35.748 127.579   6.153  1.00 51.88     0.020 C 
HETATM   18  C18 8UH N1621     -31.294 129.330   6.873  1.00 51.88     0.044 C 
HETATM   19  C19 8UH N1621     -34.810 130.710  10.304  1.00 51.88     0.048 C 
HETATM   20  C20 8UH N1621     -38.630 134.471  10.855  1.00 51.88     0.048 C 
HETATM   21  O3  8UH N1621     -32.240 126.182   3.299  1.00 51.88    -0.395 OA
ATOM     22  H3  8UH N1621     -31.504 126.596   2.862  1.00  0.00     0.210 HD
HETATM   23  C21 8UH N1621     -49.827 144.935  10.324  1.00 23.07    -0.018 C 
HETATM   24  C22 8UH N1621     -50.709 145.545  11.430  1.00 21.39     0.045 C 
HETATM   25  C23 8UH N1621     -50.027 145.994  12.718  1.00 23.10     0.123 C 
HETATM   26  C24 8UH N1621     -48.573 146.442  12.545  1.00 23.25     0.066 C 
HETATM   27  C25 8UH N1621     -47.723 145.692  11.568  1.00 22.57    -0.074 C 
HETATM   28  C26 8UH N1621     -48.279 144.986  10.526  1.00 22.63    -0.048 C 
HETATM   29  C27 8UH N1621     -47.444 144.252   9.565  1.00 23.01     0.009 C 
HETATM   30  C28 8UH N1621     -46.861 143.056   9.777  1.00 21.85     0.007 C 
HETATM   31  C29 8UH N1621     -45.944 142.376   8.896  1.00 51.88    -0.062 C 
HETATM   32  C30 8UH N1621     -45.541 141.145   9.230  1.00 51.88     0.007 C 
HETATM   33  C31 8UH N1621     -44.622 140.330   8.445  1.00 51.88     0.001 C 
HETATM   34  C32 8UH N1621     -43.801 139.523   9.114  1.00 51.88     0.007 C 
HETATM   35  C33 8UH N1621     -42.837 138.653   8.426  1.00 51.88    -0.062 C 
HETATM   36  C34 8UH N1621     -42.026 137.844   9.125  1.00 51.88     0.007 C 
HETATM   37  C35 8UH N1621     -41.066 136.951   8.481  1.00 51.88     0.001 C 
HETATM   38  C36 8UH N1621     -50.218 145.755   9.081  1.00 21.40     0.020 C 
HETATM   39  C37 8UH N1621     -50.295 143.479  10.108  1.00 21.74     0.020 C 
HETATM   40  C38 8UH N1621     -46.295 145.886  11.938  1.00 21.99     0.044 C 
HETATM   41  C39 8UH N1621     -45.475 143.058   7.648  1.00 51.88     0.048 C 
HETATM   42  C40 8UH N1621     -42.786 138.691   6.940  1.00 51.88     0.048 C 
HETATM   43  O23 8UH N1621     -50.781 147.017  13.341  1.00 24.94    -0.395 OA
ATOM     44  H23 8UH N1621     -50.356 147.296  14.144  1.00  0.00     0.210 HD
ENDROOT
TORSDOF 12
