REMARK VINA RESULT:    -9.419      1.747     16.614
REMARK INTER + INTRA:         -12.729
REMARK INTER:                  -8.615
REMARK INTRA:                  -4.114
REMARK UNBOUND:                -3.310
REMARK  0 active torsions:
REMARK  status: ('A' for Active; 'I' for Inactive)
REMARK       I    between atoms: C3_3  and  O3_21 
REMARK       I    between atoms: C6_6  and  C7_7 
REMARK       I    between atoms: C8_8  and  C9_9 
REMARK       I    between atoms: C10_10  and  C11_11 
REMARK       I    between atoms: C12_12  and  C13_13 
REMARK       I    between atoms: C14_14  and  C15_15 
REMARK       I    between atoms: C23_25  and  O23_43 
REMARK       I    between atoms: C26_28  and  C27_29 
REMARK       I    between atoms: C28_30  and  C29_31 
REMARK       I    between atoms: C30_32  and  C31_33 
REMARK       I    between atoms: C32_34  and  C33_35 
REMARK       I    between atoms: C34_36  and  C35_37 
ROOT
HETATM    1  C1  8UH 5 624     -47.968 145.038  11.927  1.00 23.68    -0.018 C 
HETATM    2  C2  8UH 5 624     -48.950 145.198  13.085  1.00 23.68     0.045 C 
HETATM    3  C3  8UH 5 624     -48.453 145.829  14.380  1.00 23.68     0.123 C 
HETATM    4  C4  8UH 5 624     -47.296 146.780  14.139  1.00 23.68     0.066 C 
HETATM    5  C5  8UH 5 624     -46.227 146.046  13.378  1.00 23.68    -0.074 C 
HETATM    6  C6  8UH 5 624     -46.526 145.389  12.254  1.00 23.68    -0.048 C 
HETATM    7  C7  8UH 5 624     -45.461 145.023  11.282  1.00 23.68     0.009 C 
HETATM    8  C8  8UH 5 624     -44.715 143.920  11.395  1.00 23.68     0.007 C 
HETATM    9  C9  8UH 5 624     -43.660 143.553  10.420  1.00 23.68    -0.062 C 
HETATM   10  C10 8UH 5 624     -43.056 142.364  10.568  1.00 23.68     0.007 C 
HETATM   11  C11 8UH 5 624     -42.012 141.791   9.719  1.00 23.68     0.001 C 
HETATM   12  C12 8UH 5 624     -41.730 140.518  10.009  1.00 23.68     0.007 C 
HETATM   13  C13 8UH 5 624     -40.766 139.609   9.355  1.00 23.68    -0.062 C 
HETATM   14  C14 8UH 5 624     -40.543 138.423   9.947  1.00 23.68     0.007 C 
HETATM   15  C15 8UH 5 624     -39.652 137.409   9.389  1.00 23.68     0.001 C 
HETATM   16  C16 8UH 5 624     -48.501 145.898  10.795  1.00 23.68     0.020 C 
HETATM   17  C17 8UH 5 624     -47.988 143.582  11.486  1.00 23.68     0.020 C 
HETATM   18  C18 8UH 5 624     -44.924 146.767  13.539  1.00 23.68     0.044 C 
HETATM   19  C19 8UH 5 624     -43.279 144.474   9.304  1.00 23.68     0.048 C 
HETATM   20  C20 8UH 5 624     -40.083 139.973   8.075  1.00 23.68     0.048 C 
HETATM   21  O3  8UH 5 624     -49.534 146.552  14.972  1.00 23.68    -0.395 OA
ATOM     22  H3  8UH 5 624     -49.224 146.945  15.779  1.00  0.00     0.210 HD
HETATM   23  C21 8UH 5 624     -33.305 126.565   6.854  1.00 32.96    -0.018 C 
HETATM   24  C22 8UH 5 624     -33.989 125.978   5.619  1.00 32.96     0.045 C 
HETATM   25  C23 8UH 5 624     -33.993 126.865   4.380  1.00 32.96     0.123 C 
HETATM   26  C24 8UH 5 624     -32.830 127.833   4.419  1.00 32.96     0.066 C 
HETATM   27  C25 8UH 5 624     -32.983 128.681   5.648  1.00 32.96    -0.074 C 
HETATM   28  C26 8UH 5 624     -33.163 128.064   6.820  1.00 32.96    -0.048 C 
HETATM   29  C27 8UH 5 624     -33.489 128.805   8.047  1.00 32.96     0.009 C 
HETATM   30  C28 8UH 5 624     -34.478 129.683   7.872  1.00 32.96     0.007 C 
HETATM   31  C29 8UH 5 624     -35.110 130.384   9.011  1.00 23.68    -0.062 C 
HETATM   32  C30 8UH 5 624     -36.009 131.318   8.683  1.00 23.68     0.007 C 
HETATM   33  C31 8UH 5 624     -36.775 132.118   9.628  1.00 23.68     0.001 C 
HETATM   34  C32 8UH 5 624     -37.161 133.320   9.219  1.00 23.68     0.007 C 
HETATM   35  C33 8UH 5 624     -37.965 134.235  10.041  1.00 23.68    -0.062 C 
HETATM   36  C34 8UH 5 624     -38.433 135.346   9.450  1.00 23.68     0.007 C 
HETATM   37  C35 8UH 5 624     -39.285 136.340  10.099  1.00 23.68     0.001 C 
HETATM   38  C36 8UH 5 624     -31.881 126.027   6.932  1.00 32.96     0.020 C 
HETATM   39  C37 8UH 5 624     -34.067 126.170   8.110  1.00 32.96     0.020 C 
HETATM   40  C38 8UH 5 624     -32.625 130.139   5.509  1.00 32.96     0.044 C 
HETATM   41  C39 8UH 5 624     -34.780 130.060  10.436  1.00 23.68     0.048 C 
HETATM   42  C40 8UH 5 624     -38.241 133.908  11.476  1.00 23.68     0.048 C 
HETATM   43  O23 8UH 5 624     -33.864 126.055   3.209  1.00 32.96    -0.395 OA
ATOM     44  H23 8UH 5 624     -34.595 125.447   3.184  1.00  0.00     0.210 HD
ENDROOT
TORSDOF 12
