REMARK VINA RESULT:    -6.839      1.629     16.571
REMARK INTER + INTRA:          -9.638
REMARK INTER:                  -7.020
REMARK INTRA:                  -2.618
REMARK UNBOUND:                -2.799
REMARK  0 active torsions:
REMARK  status: ('A' for Active; 'I' for Inactive)
REMARK       I    between atoms: C3_3  and  O3_21 
REMARK       I    between atoms: C6_6  and  C7_7 
REMARK       I    between atoms: C8_8  and  C9_9 
REMARK       I    between atoms: C10_10  and  C11_11 
REMARK       I    between atoms: C12_12  and  C13_13 
REMARK       I    between atoms: C14_14  and  C15_15 
REMARK       I    between atoms: C23_25  and  O23_43 
REMARK       I    between atoms: C26_28  and  C27_29 
REMARK       I    between atoms: C28_30  and  C29_31 
REMARK       I    between atoms: C30_32  and  C31_33 
REMARK       I    between atoms: C32_34  and  C33_35 
REMARK       I    between atoms: C34_36  and  C35_37 
ROOT
HETATM    1  C1  8UH g1620     -48.982 145.595   8.656  1.00 59.27    -0.018 C 
HETATM    2  C2  8UH g1620     -50.441 145.908   8.953  1.00 64.60     0.045 C 
HETATM    3  C3  8UH g1620     -50.870 145.650  10.381  1.00 63.28     0.123 C 
HETATM    4  C4  8UH g1620     -49.964 146.390  11.330  1.00 61.00     0.066 C 
HETATM    5  C5  8UH g1620     -48.534 145.998  11.095  1.00 64.87    -0.074 C 
HETATM    6  C6  8UH g1620     -48.070 145.668   9.872  1.00 63.96    -0.048 C 
HETATM    7  C7  8UH g1620     -46.622 145.407   9.655  1.00 64.82     0.009 C 
HETATM    8  C8  8UH g1620     -46.061 144.213   9.873  1.00 58.91     0.007 C 
HETATM    9  C9  8UH g1620     -44.639 143.954   9.648  1.00 59.76    -0.062 C 
HETATM   10  C10 8UH g1620     -44.247 142.689   9.829  1.00 59.44     0.007 C 
HETATM   11  C11 8UH g1620     -42.899 142.183   9.655  1.00 53.66     0.001 C 
HETATM   12  C12 8UH g1620     -42.833 140.863   9.718  1.00 59.47     0.007 C 
HETATM   13  C13 8UH g1620     -41.589 140.107   9.546  1.00 64.69    -0.062 C 
HETATM   14  C14 8UH g1620     -41.688 138.778   9.464  1.00 66.67     0.007 C 
HETATM   15  C15 8UH g1620     -40.528 137.923   9.256  1.00 73.65     0.001 C 
HETATM   16  C16 8UH g1620     -48.577 146.565   7.550  1.00 56.55     0.020 C 
HETATM   17  C17 8UH g1620     -48.891 144.174   8.125  1.00 59.14     0.020 C 
HETATM   18  C18 8UH g1620     -47.649 146.161  12.298  1.00 61.00     0.044 C 
HETATM   19  C19 8UH g1620     -43.706 145.061   9.260  1.00 55.95     0.048 C 
HETATM   20  C20 8UH g1620     -40.271 140.812   9.451  1.00 67.83     0.048 C 
HETATM   21  O3  8UH g1620     -52.210 146.115  10.555  1.00 73.40    -0.395 OA
ATOM     22  H3  8UH g1620     -52.480 145.953  11.452  1.00  0.00     0.210 HD
HETATM   23  C21 8UH g1620     -34.363 126.997   6.064  1.00 27.99    -0.018 C 
HETATM   24  C22 8UH g1620     -33.377 126.951   4.889  1.00 27.99     0.045 C 
HETATM   25  C23 8UH g1620     -32.445 128.149   4.772  1.00 27.99     0.123 C 
HETATM   26  C24 8UH g1620     -31.968 128.528   6.161  1.00 27.99     0.066 C 
HETATM   27  C25 8UH g1620     -33.189 129.021   6.882  1.00 27.99    -0.074 C 
HETATM   28  C26 8UH g1620     -34.267 128.230   6.951  1.00 27.99    -0.048 C 
HETATM   29  C27 8UH g1620     -35.485 128.623   7.695  1.00 27.99     0.009 C 
HETATM   30  C28 8UH g1620     -35.848 129.912   7.662  1.00 27.99     0.007 C 
HETATM   31  C29 8UH g1620     -37.184 130.319   8.174  1.00 93.82    -0.062 C 
HETATM   32  C30 8UH g1620     -37.430 131.621   8.052  1.00 83.29     0.007 C 
HETATM   33  C31 8UH g1620     -38.667 132.267   8.442  1.00 75.18     0.001 C 
HETATM   34  C32 8UH g1620     -38.631 133.587   8.387  1.00 71.38     0.007 C 
HETATM   35  C33 8UH g1620     -39.799 134.413   8.704  1.00 70.67    -0.062 C 
HETATM   36  C34 8UH g1620     -39.642 135.741   8.721  1.00 74.09     0.007 C 
HETATM   37  C35 8UH g1620     -40.752 136.645   8.982  1.00 74.87     0.001 C 
HETATM   38  C36 8UH g1620     -34.005 125.850   7.013  1.00 27.99     0.020 C 
HETATM   39  C37 8UH g1620     -35.774 126.798   5.516  1.00 27.99     0.020 C 
HETATM   40  C38 8UH g1620     -32.810 129.981   7.977  1.00 27.99     0.044 C 
HETATM   41  C39 8UH g1620     -38.175 129.362   8.763  1.00 99.93     0.048 C 
HETATM   42  C40 8UH g1620     -41.123 133.770   8.968  1.00 65.73     0.048 C 
HETATM   43  O23 8UH g1620     -31.328 127.829   3.932  1.00 27.99    -0.395 OA
ATOM     44  H23 8UH g1620     -31.626 127.592   3.062  1.00  0.00     0.210 HD
ENDROOT
TORSDOF 12
