REMARK VINA RESULT:    -8.699      0.000      0.000
REMARK INTER + INTRA:         -12.129
REMARK INTER:                  -8.699
REMARK INTRA:                  -3.430
REMARK UNBOUND:                -3.430
REMARK  0 active torsions:
REMARK  status: ('A' for Active; 'I' for Inactive)
REMARK       I    between atoms: C3_3  and  O3_21 
REMARK       I    between atoms: C6_6  and  C7_7 
REMARK       I    between atoms: C8_8  and  C9_9 
REMARK       I    between atoms: C10_10  and  C11_11 
REMARK       I    between atoms: C12_12  and  C13_13 
REMARK       I    between atoms: C14_14  and  C15_15 
REMARK       I    between atoms: C23_25  and  O23_43 
REMARK       I    between atoms: C26_28  and  C27_29 
REMARK       I    between atoms: C28_30  and  C29_31 
REMARK       I    between atoms: C30_32  and  C31_33 
REMARK       I    between atoms: C32_34  and  C33_35 
REMARK       I    between atoms: C34_36  and  C35_37 
ROOT
HETATM    1  C1  8UH S1620     -48.992 144.226  11.933  1.00 51.40    -0.018 C 
HETATM    2  C2  8UH S1620     -49.495 144.688  13.293  1.00 51.40     0.045 C 
HETATM    3  C3  8UH S1620     -48.883 145.927  13.934  1.00 51.40     0.123 C 
HETATM    4  C4  8UH S1620     -48.095 146.773  12.959  1.00 51.40     0.066 C 
HETATM    5  C5  8UH S1620     -47.178 145.899  12.167  1.00 51.40    -0.074 C 
HETATM    6  C6  8UH S1620     -47.673 144.846  11.528  1.00 51.40    -0.048 C 
HETATM    7  C7  8UH S1620     -46.957 144.259  10.381  1.00 51.40     0.009 C 
HETATM    8  C8  8UH S1620     -45.942 143.431  10.583  1.00 51.40     0.007 C 
HETATM    9  C9  8UH S1620     -45.234 142.812   9.466  1.00 51.40    -0.062 C 
HETATM   10  C10 8UH S1620     -44.213 142.026   9.796  1.00 51.40     0.007 C 
HETATM   11  C11 8UH S1620     -43.385 141.279   8.870  1.00 51.40     0.001 C 
HETATM   12  C12 8UH S1620     -42.683 140.346   9.488  1.00 51.40     0.007 C 
HETATM   13  C13 8UH S1620     -41.785 139.412   8.812  1.00 51.40    -0.062 C 
HETATM   14  C14 8UH S1620     -41.240 138.452   9.560  1.00 51.40     0.007 C 
HETATM   15  C15 8UH S1620     -40.372 137.436   8.994  1.00 51.40     0.001 C 
HETATM   16  C16 8UH S1620     -50.093 144.489  10.914  1.00 51.40     0.020 C 
HETATM   17  C17 8UH S1620     -48.774 142.726  12.004  1.00 51.40     0.020 C 
HETATM   18  C18 8UH S1620     -46.182 146.827  11.544  1.00 51.40     0.044 C 
HETATM   19  C19 8UH S1620     -45.670 143.057   8.054  1.00 51.40     0.048 C 
HETATM   20  C20 8UH S1620     -41.515 139.531   7.349  1.00 51.40     0.048 C 
HETATM   21  O3  8UH S1620     -49.940 146.742  14.442  1.00 51.40    -0.395 OA
ATOM     22  H3  8UH S1620     -50.435 146.211  15.055  1.00  0.00     0.210 HD
HETATM   23  C21 8UH S1620     -34.454 127.020   6.164  1.00 26.49    -0.018 C 
HETATM   24  C22 8UH S1620     -34.007 126.458   4.818  1.00 26.49     0.045 C 
HETATM   25  C23 8UH S1620     -32.767 127.071   4.186  1.00 26.49     0.123 C 
HETATM   26  C24 8UH S1620     -31.724 127.348   5.248  1.00 26.49     0.066 C 
HETATM   27  C25 8UH S1620     -32.329 128.314   6.224  1.00 26.49    -0.074 C 
HETATM   28  C26 8UH S1620     -33.559 128.117   6.720  1.00 26.49    -0.048 C 
HETATM   29  C27 8UH S1620     -34.033 128.970   7.847  1.00 26.49     0.009 C 
HETATM   30  C28 8UH S1620     -34.691 130.115   7.643  1.00 26.49     0.007 C 
HETATM   31  C29 8UH S1620     -35.161 130.988   8.706  1.00 51.40    -0.062 C 
HETATM   32  C30 8UH S1620     -36.239 131.738   8.472  1.00 51.40     0.007 C 
HETATM   33  C31 8UH S1620     -36.838 132.629   9.453  1.00 51.40     0.001 C 
HETATM   34  C32 8UH S1620     -37.682 133.528   8.972  1.00 51.40     0.007 C 
HETATM   35  C33 8UH S1620     -38.408 134.493   9.807  1.00 51.40    -0.062 C 
HETATM   36  C34 8UH S1620     -39.080 135.446   9.160  1.00 51.40     0.007 C 
HETATM   37  C35 8UH S1620     -39.902 136.472   9.778  1.00 51.40     0.001 C 
HETATM   38  C36 8UH S1620     -34.565 125.850   7.132  1.00 26.49     0.020 C 
HETATM   39  C37 8UH S1620     -35.833 127.617   5.965  1.00 26.49     0.020 C 
HETATM   40  C38 8UH S1620     -31.336 129.224   6.881  1.00 26.49     0.044 C 
HETATM   41  C39 8UH S1620     -34.450 131.026  10.023  1.00 51.40     0.048 C 
HETATM   42  C40 8UH S1620     -38.409 134.382  11.299  1.00 51.40     0.048 C 
HETATM   43  O23 8UH S1620     -32.241 126.167   3.211  1.00 26.49    -0.395 OA
ATOM     44  H23 8UH S1620     -32.895 125.992   2.544  1.00  0.00     0.210 HD
ENDROOT
TORSDOF 12
