REMARK VINA RESULT:    -9.763      0.989     16.793
REMARK INTER + INTRA:         -12.039
REMARK INTER:                  -9.671
REMARK INTRA:                  -2.367
REMARK UNBOUND:                -2.276
REMARK  0 active torsions:
REMARK  status: ('A' for Active; 'I' for Inactive)
REMARK       I    between atoms: C3_3  and  O3_21 
REMARK       I    between atoms: C6_6  and  C7_7 
REMARK       I    between atoms: C8_8  and  C9_9 
REMARK       I    between atoms: C10_10  and  C11_11 
REMARK       I    between atoms: C12_12  and  C13_13 
REMARK       I    between atoms: C14_14  and  C15_15 
REMARK       I    between atoms: C23_25  and  O23_43 
REMARK       I    between atoms: C26_28  and  C27_29 
REMARK       I    between atoms: C28_30  and  C29_31 
REMARK       I    between atoms: C30_32  and  C31_33 
REMARK       I    between atoms: C32_34  and  C33_35 
REMARK       I    between atoms: C34_36  and  C35_37 
ROOT
HETATM    1  C1  8UH 6 317     -34.309 127.115   6.600  1.00 89.78    -0.018 C 
HETATM    2  C2  8UH 6 317     -33.806 126.594   5.250  1.00 90.48     0.045 C 
HETATM    3  C3  8UH 6 317     -32.655 127.352   4.596  1.00 89.65     0.123 C 
HETATM    4  C4  8UH 6 317     -31.683 127.858   5.642  1.00 88.26     0.066 C 
HETATM    5  C5  8UH 6 317     -32.441 128.758   6.574  1.00 86.93    -0.074 C 
HETATM    6  C6  8UH 6 317     -33.596 128.357   7.095  1.00 87.83    -0.048 C 
HETATM    7  C7  8UH 6 317     -34.209 129.154   8.179  1.00 88.05     0.009 C 
HETATM    8  C8  8UH 6 317     -34.905 130.251   7.882  1.00 88.38     0.007 C 
HETATM    9  C9  8UH 6 317     -35.534 131.079   8.928  1.00 88.50    -0.062 C 
HETATM   10  C10 8UH 6 317     -36.220 132.162   8.545  1.00 89.92     0.007 C 
HETATM   11  C11 8UH 6 317     -36.896 133.065   9.473  1.00 90.53     0.001 C 
HETATM   12  C12 8UH 6 317     -37.568 134.080   8.935  1.00 91.02     0.007 C 
HETATM   13  C13 8UH 6 317     -38.311 135.071   9.734  1.00 91.35    -0.062 C 
HETATM   14  C14 8UH 6 317     -39.157 135.886   9.087  1.00 92.63     0.007 C 
HETATM   15  C15 8UH 6 317     -39.968 136.897   9.756  1.00 93.76     0.001 C 
HETATM   16  C16 8UH 6 317     -34.148 126.010   7.638  1.00 89.80     0.020 C 
HETATM   17  C17 8UH 6 317     -35.791 127.445   6.471  1.00 89.92     0.020 C 
HETATM   18  C18 8UH 6 317     -31.625 129.830   7.234  1.00 86.44     0.044 C 
HETATM   19  C19 8UH 6 317     -35.401 130.716  10.378  1.00 87.10     0.048 C 
HETATM   20  C20 8UH 6 317     -38.118 135.163  11.219  1.00 90.38     0.048 C 
HETATM   21  O3  8UH 6 317     -31.947 126.482   3.704  1.00 90.37    -0.395 OA
ATOM     22  H3  8UH 6 317     -32.556 126.166   3.048  1.00  0.00     0.210 HD
HETATM   23  C21 8UH 6 317     -49.440 145.124  11.439  1.00 71.39    -0.018 C 
HETATM   24  C22 8UH 6 317     -49.985 145.521  12.806  1.00 71.39     0.045 C 
HETATM   25  C23 8UH 6 317     -49.142 146.451  13.671  1.00 71.39     0.123 C 
HETATM   26  C24 8UH 6 317     -48.286 147.370  12.827  1.00 71.39     0.066 C 
HETATM   27  C25 8UH 6 317     -47.456 146.496  11.937  1.00 71.39    -0.074 C 
HETATM   28  C26 8UH 6 317     -48.008 145.541  11.192  1.00 71.39    -0.048 C 
HETATM   29  C27 8UH 6 317     -47.260 144.851  10.105  1.00 71.39     0.009 C 
HETATM   30  C28 8UH 6 317     -46.440 143.831  10.360  1.00 71.39     0.007 C 
HETATM   31  C29 8UH 6 317     -45.693 143.087   9.337  1.00 90.37    -0.062 C 
HETATM   32  C30 8UH 6 317     -44.999 142.017   9.743  1.00 97.58     0.007 C 
HETATM   33  C31 8UH 6 317     -44.214 141.154   8.868  1.00 95.39     0.001 C 
HETATM   34  C32 8UH 6 317     -43.440 140.279   9.501  1.00 92.75     0.007 C 
HETATM   35  C33 8UH 6 317     -42.570 139.290   8.845  1.00 90.45    -0.062 C 
HETATM   36  C34 8UH 6 317     -41.688 138.612   9.598  1.00 98.23     0.007 C 
HETATM   37  C35 8UH 6 317     -40.819 137.599   9.008  1.00 96.59     0.001 C 
HETATM   38  C36 8UH 6 317     -50.369 145.693  10.372  1.00 71.39     0.020 C 
HETATM   39  C37 8UH 6 317     -49.489 143.614  11.340  1.00 71.39     0.020 C 
HETATM   40  C38 8UH 6 317     -46.177 147.162  11.562  1.00 71.39     0.044 C 
HETATM   41  C39 8UH 6 317     -45.715 143.507   7.896  1.00 90.75     0.048 C 
HETATM   42  C40 8UH 6 317     -42.689 139.034   7.372  1.00 90.73     0.048 C 
HETATM   43  O23 8UH 6 317     -50.012 147.268  14.461  1.00 71.39    -0.395 OA
ATOM     44  H23 8UH 6 317     -49.486 147.848  15.000  1.00  0.00     0.210 HD
ENDROOT
TORSDOF 12
