REMARK VINA RESULT:    -8.777      0.483     16.914
REMARK INTER + INTRA:          -9.136
REMARK INTER:                  -8.588
REMARK INTRA:                  -0.548
REMARK UNBOUND:                -0.359
REMARK  0 active torsions:
REMARK  status: ('A' for Active; 'I' for Inactive)
REMARK       I    between atoms: C3_3  and  O3_21 
REMARK       I    between atoms: C6_6  and  C7_7 
REMARK       I    between atoms: C8_8  and  C9_9 
REMARK       I    between atoms: C10_10  and  C11_11 
REMARK       I    between atoms: C12_12  and  C13_13 
REMARK       I    between atoms: C14_14  and  C15_15 
REMARK       I    between atoms: C23_25  and  O23_43 
REMARK       I    between atoms: C26_28  and  C27_29 
REMARK       I    between atoms: C28_30  and  C29_31 
REMARK       I    between atoms: C30_32  and  C31_33 
REMARK       I    between atoms: C32_34  and  C33_35 
REMARK       I    between atoms: C34_36  and  C35_37 
ROOT
HETATM    1  C1  8UH 4 616     -50.843 144.885  10.597  1.00 72.69    -0.018 C 
HETATM    2  C2  8UH 4 616     -51.619 145.195  11.877  1.00 72.50     0.045 C 
HETATM    3  C3  8UH 4 616     -51.075 146.286  12.795  1.00 72.53     0.123 C 
HETATM    4  C4  8UH 4 616     -50.286 147.339  12.037  1.00 73.67     0.066 C 
HETATM    5  C5  8UH 4 616     -49.224 146.674  11.207  1.00 74.71    -0.074 C 
HETATM    6  C6  8UH 4 616     -49.516 145.603  10.472  1.00 74.26    -0.048 C 
HETATM    7  C7  8UH 4 616     -48.527 145.058   9.515  1.00 75.37     0.009 C 
HETATM    8  C8  8UH 4 616     -47.568 144.242   9.953  1.00 77.10     0.007 C 
HETATM    9  C9  8UH 4 616     -46.561 143.653   9.049  1.00 78.39    -0.062 C 
HETATM   10  C10 8UH 4 616     -45.659 142.802   9.563  1.00 81.08     0.007 C 
HETATM   11  C11 8UH 4 616     -44.630 142.147   8.757  1.00 84.31     0.001 C 
HETATM   12  C12 8UH 4 616     -43.947 141.163   9.338  1.00 87.06     0.007 C 
HETATM   13  C13 8UH 4 616     -42.894 140.382   8.662  1.00 89.04    -0.062 C 
HETATM   14  C14 8UH 4 616     -42.363 139.345   9.331  1.00 90.91     0.007 C 
HETATM   15  C15 8UH 4 616     -41.337 138.470   8.772  1.00 91.21     0.001 C 
HETATM   16  C16 8UH 4 616     -51.718 145.259   9.408  1.00 72.40     0.020 C 
HETATM   17  C17 8UH 4 616     -50.555 143.390  10.553  1.00 73.92     0.020 C 
HETATM   18  C18 8UH 4 616     -48.000 147.493  10.922  1.00 74.98     0.044 C 
HETATM   19  C19 8UH 4 616     -46.559 143.994   7.589  1.00 77.08     0.048 C 
HETATM   20  C20 8UH 4 616     -42.442 140.726   7.273  1.00 88.60     0.048 C 
HETATM   21  O3  8UH 4 616     -52.182 146.925  13.440  1.00 71.08    -0.395 OA
ATOM     22  H3  8UH 4 616     -52.676 146.266  13.914  1.00  0.00     0.210 HD
HETATM   23  C21 8UH 4 616     -34.040 128.208   7.075  1.00 16.69    -0.018 C 
HETATM   24  C22 8UH 4 616     -33.079 127.522   6.092  1.00 15.88     0.045 C 
HETATM   25  C23 8UH 4 616     -31.798 128.248   5.704  1.00 15.19     0.123 C 
HETATM   26  C24 8UH 4 616     -31.222 129.153   6.797  1.00 16.30     0.066 C 
HETATM   27  C25 8UH 4 616     -32.178 129.865   7.700  1.00 15.97    -0.074 C 
HETATM   28  C26 8UH 4 616     -33.481 129.448   7.842  1.00 16.56    -0.048 C 
HETATM   29  C27 8UH 4 616     -34.404 130.170   8.719  1.00 18.44     0.009 C 
HETATM   30  C28 8UH 4 616     -35.027 131.328   8.439  1.00 18.42     0.007 C 
HETATM   31  C29 8UH 4 616     -35.835 132.084   9.369  1.00 94.55    -0.062 C 
HETATM   32  C30 8UH 4 616     -36.691 132.999   8.895  1.00 95.44     0.007 C 
HETATM   33  C31 8UH 4 616     -37.575 133.802   9.738  1.00 95.37     0.001 C 
HETATM   34  C32 8UH 4 616     -38.308 134.715   9.108  1.00 94.20     0.007 C 
HETATM   35  C33 8UH 4 616     -39.279 135.616   9.756  1.00 92.43    -0.062 C 
HETATM   36  C34 8UH 4 616     -39.851 136.569   9.003  1.00 91.40     0.007 C 
HETATM   37  C35 8UH 4 616     -40.849 137.491   9.535  1.00 91.41     0.001 C 
HETATM   38  C36 8UH 4 616     -34.406 127.090   8.069  1.00 15.77     0.020 C 
HETATM   39  C37 8UH 4 616     -35.318 128.568   6.293  1.00 17.40     0.020 C 
HETATM   40  C38 8UH 4 616     -31.463 131.008   8.328  1.00 16.04     0.044 C 
HETATM   41  C39 8UH 4 616     -35.711 131.831  10.844  1.00 93.92     0.048 C 
HETATM   42  C40 8UH 4 616     -39.628 135.456  11.205  1.00 91.99     0.048 C 
HETATM   43  O23 8UH 4 616     -30.822 127.315   5.286  1.00 16.64    -0.395 OA
ATOM     44  H23 8UH 4 616     -31.178 126.753   4.607  1.00  0.00     0.210 HD
ENDROOT
TORSDOF 12
