REMARK VINA RESULT:   -12.258      0.000      0.000
REMARK INTER + INTRA:         -15.256
REMARK INTER:                 -12.258
REMARK INTRA:                  -2.997
REMARK UNBOUND:                -2.997
REMARK  0 active torsions:
REMARK  status: ('A' for Active; 'I' for Inactive)
REMARK       I    between atoms: C3_3  and  O3_21 
REMARK       I    between atoms: C6_6  and  C7_7 
REMARK       I    between atoms: C8_8  and  C9_9 
REMARK       I    between atoms: C10_10  and  C11_11 
REMARK       I    between atoms: C12_12  and  C13_13 
REMARK       I    between atoms: C14_14  and  C15_15 
REMARK       I    between atoms: C23_25  and  O23_43 
REMARK       I    between atoms: C26_28  and  C27_29 
REMARK       I    between atoms: C28_30  and  C29_31 
REMARK       I    between atoms: C30_32  and  C31_33 
REMARK       I    between atoms: C32_34  and  C33_35 
REMARK       I    between atoms: C34_36  and  C35_37 
ROOT
HETATM    1  C1  8UH 71620     -50.108 144.548   8.944  1.00 70.34    -0.018 C 
HETATM    2  C2  8UH 71620     -50.939 144.917  10.156  1.00 70.34     0.045 C 
HETATM    3  C3  8UH 71620     -51.074 146.399  10.459  1.00 70.34     0.123 C 
HETATM    4  C4  8UH 71620     -49.758 147.146  10.339  1.00 70.34     0.066 C 
HETATM    5  C5  8UH 71620     -48.753 146.596   9.370  1.00 70.34    -0.074 C 
HETATM    6  C6  8UH 71620     -48.863 145.394   8.798  1.00 70.34    -0.048 C 
HETATM    7  C7  8UH 71620     -47.770 144.855   7.954  1.00 70.34     0.009 C 
HETATM    8  C8  8UH 71620     -46.822 144.055   8.430  1.00 70.34     0.007 C 
HETATM    9  C9  8UH 71620     -45.766 143.512   7.578  1.00 70.34    -0.062 C 
HETATM   10  C10 8UH 71620     -44.866 142.750   8.190  1.00 70.34     0.007 C 
HETATM   11  C11 8UH 71620     -43.754 142.088   7.543  1.00 70.34     0.001 C 
HETATM   12  C12 8UH 71620     -43.285 141.085   8.266  1.00 70.34     0.007 C 
HETATM   13  C13 8UH 71620     -42.175 140.224   7.858  1.00 70.34    -0.062 C 
HETATM   14  C14 8UH 71620     -41.861 139.231   8.681  1.00 70.34     0.007 C 
HETATM   15  C15 8UH 71620     -40.797 138.294   8.387  1.00 70.34     0.001 C 
HETATM   16  C16 8UH 71620     -50.985 144.633   7.704  1.00 70.34     0.020 C 
HETATM   17  C17 8UH 71620     -49.666 143.105   9.148  1.00 70.34     0.020 C 
HETATM   18  C18 8UH 71620     -47.466 147.369   9.358  1.00 70.34     0.044 C 
HETATM   19  C19 8UH 71620     -45.738 143.798   6.112  1.00 70.34     0.048 C 
HETATM   20  C20 8UH 71620     -41.437 140.447   6.575  1.00 70.34     0.048 C 
HETATM   21  O3  8UH 71620     -52.065 147.014   9.633  1.00 70.34    -0.395 OA
ATOM     22  H3  8UH 71620     -52.150 147.941   9.822  1.00  0.00     0.210 HD
HETATM   23  C21 8UH 71620     -33.716 129.340   7.029  1.00 32.37    -0.022 C 
HETATM   24  C22 8UH 71620     -32.945 130.139   5.989  1.00 32.37     0.045 C 
HETATM   25  C23 8UH 71620     -32.114 131.270   6.554  1.00 32.37     0.119 C 
HETATM   26  C24 8UH 71620     -31.190 130.670   7.591  1.00 32.37     0.040 C 
HETATM   27  C25 8UH 71620     -32.009 130.047   8.692  1.00 32.37     0.013 C 
HETATM   28  C26 8UH 71620     -33.276 129.693   8.450  1.00 32.37    -0.068 C 
HETATM   29  C27 8UH 71620     -34.325 129.943   9.446  1.00 32.37     0.004 C 
HETATM   30  C28 8UH 71620     -34.890 131.123   9.156  1.00 32.37     0.007 C 
HETATM   31  C29 8UH 71620     -35.937 131.728   9.980  1.00 70.34    -0.062 C 
HETATM   32  C30 8UH 71620     -36.552 132.784   9.459  1.00 70.34     0.007 C 
HETATM   33  C31 8UH 71620     -37.619 133.518  10.112  1.00 70.34     0.001 C 
HETATM   34  C32 8UH 71620     -38.073 134.523   9.381  1.00 70.34     0.007 C 
HETATM   35  C33 8UH 71620     -39.145 135.421   9.804  1.00 70.34    -0.062 C 
HETATM   36  C34 8UH 71620     -39.537 136.346   8.930  1.00 70.34     0.007 C 
HETATM   37  C35 8UH 71620     -40.593 137.292   9.231  1.00 70.34     0.001 C 
HETATM   38  C36 8UH 71620     -33.554 127.879   6.611  1.00 32.37     0.019 C 
HETATM   39  C37 8UH 71620     -35.183 129.736   6.878  1.00 32.37     0.019 C 
HETATM   40  C38 8UH 71620     -31.609 130.952   9.828  1.00 32.37     0.015 C 
HETATM   41  C39 8UH 71620     -36.294 131.179  11.328  1.00 70.34     0.048 C 
HETATM   42  C40 8UH 71620     -39.761 135.302  11.160  1.00 70.34     0.048 C 
HETATM   43  O23 8UH 71620     -31.353 131.816   5.470  1.00 32.37    -0.396 OA
ATOM     44  H23 8UH 71620     -31.934 132.192   4.819  1.00  0.00     0.210 HD
ENDROOT
TORSDOF 12
