REMARK VINA RESULT:    -8.572      0.000      0.000
REMARK INTER + INTRA:         -10.542
REMARK INTER:                  -8.572
REMARK INTRA:                  -1.970
REMARK UNBOUND:                -1.970
REMARK  0 active torsions:
REMARK  status: ('A' for Active; 'I' for Inactive)
REMARK       I    between atoms: C3_3  and  O3_21 
REMARK       I    between atoms: C6_6  and  C7_7 
REMARK       I    between atoms: C8_8  and  C9_9 
REMARK       I    between atoms: C10_10  and  C11_11 
REMARK       I    between atoms: C12_12  and  C13_13 
REMARK       I    between atoms: C14_14  and  C15_15 
REMARK       I    between atoms: C23_25  and  O23_43 
REMARK       I    between atoms: C26_28  and  C27_29 
REMARK       I    between atoms: C28_30  and  C29_31 
REMARK       I    between atoms: C30_32  and  C31_33 
REMARK       I    between atoms: C32_34  and  C33_35 
REMARK       I    between atoms: C34_36  and  C35_37 
ROOT
HETATM    1  C1  8UH Z 617     -49.156 142.847  11.925  1.00 32.73    -0.018 C 
HETATM    2  C2  8UH Z 617     -50.082 143.658  12.811  1.00 32.73     0.045 C 
HETATM    3  C3  8UH Z 617     -49.336 144.758  13.529  1.00 32.73     0.123 C 
HETATM    4  C4  8UH Z 617     -48.769 145.723  12.514  1.00 32.73     0.066 C 
HETATM    5  C5  8UH Z 617     -48.033 145.025  11.399  1.00 32.73    -0.074 C 
HETATM    6  C6  8UH Z 617     -48.208 143.718  11.105  1.00 32.73    -0.048 C 
HETATM    7  C7  8UH Z 617     -47.519 143.118   9.925  1.00 32.73     0.009 C 
HETATM    8  C8  8UH Z 617     -46.276 142.617   9.967  1.00 32.73     0.007 C 
HETATM    9  C9  8UH Z 617     -45.599 142.021   8.807  1.00 32.73    -0.062 C 
HETATM   10  C10 8UH Z 617     -44.588 141.197   9.086  1.00 32.73     0.007 C 
HETATM   11  C11 8UH Z 617     -43.783 140.479   8.111  1.00 32.73     0.001 C 
HETATM   12  C12 8UH Z 617     -42.906 139.667   8.684  1.00 32.73     0.007 C 
HETATM   13  C13 8UH Z 617     -41.978 138.776   7.981  1.00 32.73    -0.062 C 
HETATM   14  C14 8UH Z 617     -41.250 137.968   8.756  1.00 32.73     0.007 C 
HETATM   15  C15 8UH Z 617     -40.317 136.989   8.232  1.00 32.73     0.001 C 
HETATM   16  C16 8UH Z 617     -50.069 141.945  11.100  1.00 32.73     0.020 C 
HETATM   17  C17 8UH Z 617     -48.287 141.957  12.796  1.00 32.73     0.020 C 
HETATM   18  C18 8UH Z 617     -47.146 145.932  10.595  1.00 32.73     0.044 C 
HETATM   19  C19 8UH Z 617     -46.008 142.348   7.402  1.00 32.73     0.048 C 
HETATM   20  C20 8UH Z 617     -41.877 138.748   6.485  1.00 32.73     0.048 C 
HETATM   21  O3  8UH Z 617     -50.232 145.468  14.387  1.00 32.73    -0.395 OA
ATOM     22  H3  8UH Z 617     -49.764 146.160  14.838  1.00  0.00     0.210 HD
HETATM   23  C21 8UH Z 617     -34.008 127.161   6.960  1.00 42.32    -0.018 C 
HETATM   24  C22 8UH Z 617     -34.776 127.423   5.668  1.00 42.32     0.045 C 
HETATM   25  C23 8UH Z 617     -34.192 128.524   4.790  1.00 42.32     0.123 C 
HETATM   26  C24 8UH Z 617     -32.677 128.532   4.890  1.00 42.32     0.066 C 
HETATM   27  C25 8UH Z 617     -32.298 128.801   6.321  1.00 42.32    -0.074 C 
HETATM   28  C26 8UH Z 617     -33.053 128.283   7.289  1.00 42.32    -0.048 C 
HETATM   29  C27 8UH Z 617     -33.290 129.019   8.534  1.00 42.32     0.009 C 
HETATM   30  C28 8UH Z 617     -34.223 129.941   8.248  1.00 42.32     0.007 C 
HETATM   31  C29 8UH Z 617     -34.781 130.861   9.247  1.00 32.73    -0.062 C 
HETATM   32  C30 8UH Z 617     -35.879 131.515   8.876  1.00 32.73     0.007 C 
HETATM   33  C31 8UH Z 617     -36.616 132.462   9.694  1.00 32.73     0.001 C 
HETATM   34  C32 8UH Z 617     -37.371 133.281   8.978  1.00 32.73     0.007 C 
HETATM   35  C33 8UH Z 617     -38.227 134.332   9.535  1.00 32.73    -0.062 C 
HETATM   36  C34 8UH Z 617     -38.952 135.045   8.669  1.00 32.73     0.007 C 
HETATM   37  C35 8UH Z 617     -39.860 136.096   9.100  1.00 32.73     0.001 C 
HETATM   38  C36 8UH Z 617     -33.247 125.850   6.811  1.00 42.32     0.020 C 
HETATM   39  C37 8UH Z 617     -34.994 127.049   8.114  1.00 42.32     0.020 C 
HETATM   40  C38 8UH Z 617     -31.569 130.107   6.437  1.00 42.32     0.044 C 
HETATM   41  C39 8UH Z 617     -34.159 131.044  10.597  1.00 32.73     0.048 C 
HETATM   42  C40 8UH Z 617     -38.272 134.592  11.010  1.00 32.73     0.048 C 
HETATM   43  O23 8UH Z 617     -34.559 128.290   3.427  1.00 42.32    -0.395 OA
ATOM     44  H23 8UH Z 617     -34.195 128.976   2.880  1.00  0.00     0.210 HD
ENDROOT
TORSDOF 12
