REMARK VINA RESULT:    -7.212      1.500      2.275
REMARK INTER + INTRA:          -7.458
REMARK INTER:                  -5.005
REMARK INTRA:                  -2.454
REMARK UNBOUND:                -0.246
REMARK  0 active torsions:
REMARK  status: ('A' for Active; 'I' for Inactive)
REMARK       I    between atoms: C3_3  and  O3_21 
REMARK       I    between atoms: C6_6  and  C7_7 
REMARK       I    between atoms: C8_8  and  C9_9 
REMARK       I    between atoms: C10_10  and  C11_11 
REMARK       I    between atoms: C12_12  and  C13_13 
REMARK       I    between atoms: C14_14  and  C15_15 
REMARK       I    between atoms: C23_25  and  O23_43 
REMARK       I    between atoms: C26_28  and  C27_29 
REMARK       I    between atoms: C28_30  and  C29_31 
REMARK       I    between atoms: C30_32  and  C31_33 
REMARK       I    between atoms: C32_34  and  C33_35 
REMARK       I    between atoms: C34_36  and  C35_37 
ROOT
HETATM    1  C1  8UH 5 620     -49.985 144.336   9.586  1.00 42.32    -0.018 C 
HETATM    2  C2  8UH 5 620     -50.359 143.118  10.424  1.00 42.32     0.045 C 
HETATM    3  C3  8UH 5 620     -49.865 143.159  11.866  1.00 42.32     0.123 C 
HETATM    4  C4  8UH 5 620     -49.883 144.583  12.390  1.00 42.32     0.066 C 
HETATM    5  C5  8UH 5 620     -48.962 145.413  11.539  1.00 42.32    -0.074 C 
HETATM    6  C6  8UH 5 620     -48.895 145.157  10.233  1.00 42.32    -0.048 C 
HETATM    7  C7  8UH 5 620     -47.629 145.279   9.505  1.00 42.32     0.009 C 
HETATM    8  C8  8UH 5 620     -46.925 144.174   9.796  1.00 42.32     0.007 C 
HETATM    9  C9  8UH 5 620     -45.590 143.872   9.220  1.00 42.32    -0.062 C 
HETATM   10  C10 8UH 5 620     -45.046 142.673   9.514  1.00 42.32     0.007 C 
HETATM   11  C11 8UH 5 620     -43.773 142.194   8.976  1.00 42.32     0.001 C 
HETATM   12  C12 8UH 5 620     -43.394 140.946   9.219  1.00 42.32     0.007 C 
HETATM   13  C13 8UH 5 620     -42.166 140.384   8.630  1.00 42.32    -0.062 C 
HETATM   14  C14 8UH 5 620     -41.998 139.065   8.793  1.00 42.32     0.007 C 
HETATM   15  C15 8UH 5 620     -40.905 138.260   8.263  1.00 42.32     0.001 C 
HETATM   16  C16 8UH 5 620     -51.234 145.185   9.386  1.00 42.32     0.020 C 
HETATM   17  C17 8UH 5 620     -49.464 143.872   8.233  1.00 42.32     0.020 C 
HETATM   18  C18 8UH 5 620     -47.805 145.919  12.351  1.00 42.32     0.044 C 
HETATM   19  C19 8UH 5 620     -44.897 144.870   8.331  1.00 42.32     0.048 C 
HETATM   20  C20 8UH 5 620     -41.223 141.255   7.851  1.00 42.32     0.048 C 
HETATM   21  O3  8UH 5 620     -50.724 142.360  12.686  1.00 42.32    -0.395 OA
ATOM     22  H3  8UH 5 620     -50.713 141.468  12.357  1.00  0.00     0.210 HD
HETATM   23  C21 8UH 5 620     -34.748 127.805   5.091  1.00 16.14    -0.018 C 
HETATM   24  C22 8UH 5 620     -33.462 127.508   4.321  1.00 16.14     0.045 C 
HETATM   25  C23 8UH 5 620     -32.169 128.022   4.931  1.00 16.14     0.123 C 
HETATM   26  C24 8UH 5 620     -32.162 127.795   6.423  1.00 16.14     0.066 C 
HETATM   27  C25 8UH 5 620     -33.326 128.534   7.010  1.00 16.14    -0.074 C 
HETATM   28  C26 8UH 5 620     -34.542 128.429   6.461  1.00 16.14    -0.048 C 
HETATM   29  C27 8UH 5 620     -35.724 128.902   7.218  1.00 16.14     0.009 C 
HETATM   30  C28 8UH 5 620     -36.141 130.171   7.219  1.00 16.14     0.007 C 
HETATM   31  C29 8UH 5 620     -37.318 130.588   7.999  1.00 42.32    -0.062 C 
HETATM   32  C30 8UH 5 620     -37.672 131.854   7.753  1.00 42.32     0.007 C 
HETATM   33  C31 8UH 5 620     -38.805 132.558   8.328  1.00 42.32     0.001 C 
HETATM   34  C32 8UH 5 620     -38.952 133.819   7.941  1.00 42.32     0.007 C 
HETATM   35  C33 8UH 5 620     -40.026 134.689   8.430  1.00 42.32    -0.062 C 
HETATM   36  C34 8UH 5 620     -39.982 135.994   8.088  1.00 42.32     0.007 C 
HETATM   37  C35 8UH 5 620     -40.978 136.962   8.534  1.00 42.32     0.001 C 
HETATM   38  C36 8UH 5 620     -35.525 126.497   5.186  1.00 16.14     0.020 C 
HETATM   39  C37 8UH 5 620     -35.569 128.797   4.282  1.00 16.14     0.020 C 
HETATM   40  C38 8UH 5 620     -33.115 128.853   8.461  1.00 16.14     0.044 C 
HETATM   41  C39 8UH 5 620     -38.066 129.640   8.888  1.00 42.32     0.048 C 
HETATM   42  C40 8UH 5 620     -41.090 134.063   9.278  1.00 42.32     0.048 C 
HETATM   43  O23 8UH 5 620     -31.065 127.322   4.357  1.00 16.14    -0.395 OA
ATOM     44  H23 8UH 5 620     -30.256 127.644   4.738  1.00  0.00     0.210 HD
ENDROOT
TORSDOF 12
