REMARK VINA RESULT:   -10.558      0.000      0.000
REMARK INTER + INTRA:         -12.887
REMARK INTER:                 -10.558
REMARK INTRA:                  -2.329
REMARK UNBOUND:                -2.329
REMARK  0 active torsions:
REMARK  status: ('A' for Active; 'I' for Inactive)
REMARK       I    between atoms: C3_3  and  O3_21 
REMARK       I    between atoms: C6_6  and  C7_7 
REMARK       I    between atoms: C8_8  and  C9_9 
REMARK       I    between atoms: C10_10  and  C11_11 
REMARK       I    between atoms: C12_12  and  C13_13 
REMARK       I    between atoms: C14_14  and  C15_15 
REMARK       I    between atoms: C23_25  and  O23_43 
REMARK       I    between atoms: C26_28  and  C27_29 
REMARK       I    between atoms: C28_30  and  C29_31 
REMARK       I    between atoms: C30_32  and  C31_33 
REMARK       I    between atoms: C32_34  and  C33_35 
REMARK       I    between atoms: C34_36  and  C35_37 
ROOT
HETATM    1  C1  8UH 3 316     -34.314 127.385   6.729  1.00 78.71    -0.018 C 
HETATM    2  C2  8UH 3 316     -33.717 126.905   5.404  1.00 77.73     0.045 C 
HETATM    3  C3  8UH 3 316     -32.535 127.708   4.874  1.00 76.79     0.123 C 
HETATM    4  C4  8UH 3 316     -31.580 128.028   6.007  1.00 76.86     0.066 C 
HETATM    5  C5  8UH 3 316     -32.322 128.867   7.010  1.00 77.66    -0.074 C 
HETATM    6  C6  8UH 3 316     -33.562 128.536   7.376  1.00 78.84    -0.048 C 
HETATM    7  C7  8UH 3 316     -34.249 129.316   8.431  1.00 78.35     0.009 C 
HETATM    8  C8  8UH 3 316     -34.808 130.486   8.126  1.00 77.95     0.007 C 
HETATM    9  C9  8UH 3 316     -35.516 131.306   9.126  1.00 78.35    -0.062 C 
HETATM   10  C10 8UH 3 316     -36.140 132.412   8.699  1.00 77.38     0.007 C 
HETATM   11  C11 8UH 3 316     -36.894 133.303   9.572  1.00 77.06     0.001 C 
HETATM   12  C12 8UH 3 316     -37.672 134.187   8.957  1.00 77.59     0.007 C 
HETATM   13  C13 8UH 3 316     -38.535 135.160   9.654  1.00 77.36    -0.062 C 
HETATM   14  C14 8UH 3 316     -39.324 135.937   8.899  1.00 75.86     0.007 C 
HETATM   15  C15 8UH 3 316     -40.241 136.921   9.460  1.00 74.54     0.001 C 
HETATM   16  C16 8UH 3 316     -34.336 126.215   7.706  1.00 78.56     0.020 C 
HETATM   17  C17 8UH 3 316     -35.745 127.846   6.471  1.00 78.60     0.020 C 
HETATM   18  C18 8UH 3 316     -31.548 129.927   7.740  1.00 77.80     0.044 C 
HETATM   19  C19 8UH 3 316     -35.541 130.905  10.571  1.00 79.41     0.048 C 
HETATM   20  C20 8UH 3 316     -38.536 135.265  11.151  1.00 77.68     0.048 C 
HETATM   21  O3  8UH 3 316     -31.840 126.951   3.876  1.00 76.23    -0.395 OA
ATOM     22  H3  8UH 3 316     -31.104 127.451   3.545  1.00  0.00     0.210 HD
HETATM   23  C21 8UH 3 316     -49.909 145.294   9.311  1.00 16.22    -0.018 C 
HETATM   24  C22 8UH 3 316     -50.939 145.074  10.398  1.00 16.22     0.045 C 
HETATM   25  C23 8UH 3 316     -50.383 145.044  11.791  1.00 16.22     0.123 C 
HETATM   26  C24 8UH 3 316     -49.410 146.188  11.895  1.00 16.22     0.066 C 
HETATM   27  C25 8UH 3 316     -48.256 145.803  11.028  1.00 16.22    -0.074 C 
HETATM   28  C26 8UH 3 316     -48.488 145.439   9.770  1.00 16.22    -0.048 C 
HETATM   29  C27 8UH 3 316     -47.452 144.932   8.860  1.00 16.22     0.009 C 
HETATM   30  C28 8UH 3 316     -46.606 144.054   9.387  1.00 16.22     0.007 C 
HETATM   31  C29 8UH 3 316     -45.691 143.288   8.507  1.00 87.05    -0.062 C 
HETATM   32  C30 8UH 3 316     -44.970 142.307   9.064  1.00 83.33     0.007 C 
HETATM   33  C31 8UH 3 316     -44.045 141.477   8.300  1.00 80.71     0.001 C 
HETATM   34  C32 8UH 3 316     -43.372 140.558   8.983  1.00 78.86     0.007 C 
HETATM   35  C33 8UH 3 316     -42.405 139.631   8.370  1.00 77.40    -0.062 C 
HETATM   36  C34 8UH 3 316     -41.851 138.691   9.149  1.00 76.14     0.007 C 
HETATM   37  C35 8UH 3 316     -40.902 137.718   8.626  1.00 74.61     0.001 C 
HETATM   38  C36 8UH 3 316     -50.212 146.616   8.628  1.00 16.22     0.020 C 
HETATM   39  C37 8UH 3 316     -50.043 144.133   8.368  1.00 16.22     0.020 C 
HETATM   40  C38 8UH 3 316     -46.922 146.265  11.512  1.00 16.22     0.044 C 
HETATM   41  C39 8UH 3 316     -45.576 143.594   7.042  1.00 86.53     0.048 C 
HETATM   42  C40 8UH 3 316     -42.051 139.738   6.917  1.00 77.09     0.048 C 
HETATM   43  O23 8UH 3 316     -51.490 145.205  12.670  1.00 16.22    -0.395 OA
ATOM     44  H23 8UH 3 316     -52.104 144.483  12.604  1.00  0.00     0.210 HD
ENDROOT
TORSDOF 12
