REMARK VINA RESULT:    -6.822      1.345     16.660
REMARK INTER + INTRA:          -9.871
REMARK INTER:                  -9.359
REMARK INTRA:                  -0.512
REMARK UNBOUND:                -3.048
REMARK  0 active torsions:
REMARK  status: ('A' for Active; 'I' for Inactive)
REMARK       I    between atoms: C3_3  and  O3_21 
REMARK       I    between atoms: C6_6  and  C7_7 
REMARK       I    between atoms: C8_8  and  C9_9 
REMARK       I    between atoms: C10_10  and  C11_11 
REMARK       I    between atoms: C12_12  and  C13_13 
REMARK       I    between atoms: C14_14  and  C15_15 
REMARK       I    between atoms: C23_25  and  O23_43 
REMARK       I    between atoms: C26_28  and  C27_29 
REMARK       I    between atoms: C28_30  and  C29_31 
REMARK       I    between atoms: C30_32  and  C31_33 
REMARK       I    between atoms: C32_34  and  C33_35 
REMARK       I    between atoms: C34_36  and  C35_37 
ROOT
HETATM    1  C1  8UH n1621     -50.764 144.714   9.417  1.00 48.43    -0.018 C 
HETATM    2  C2  8UH n1621     -51.848 145.003  10.446  1.00 44.61     0.045 C 
HETATM    3  C3  8UH n1621     -51.432 145.838  11.641  1.00 44.41     0.123 C 
HETATM    4  C4  8UH n1621     -50.531 146.972  11.217  1.00 41.53     0.066 C 
HETATM    5  C5  8UH n1621     -49.317 146.379  10.576  1.00 37.72    -0.074 C 
HETATM    6  C6  8UH n1621     -49.446 145.433   9.646  1.00 43.52    -0.048 C 
HETATM    7  C7  8UH n1621     -48.319 145.054   8.763  1.00 44.60     0.009 C 
HETATM    8  C8  8UH n1621     -47.367 144.214   9.151  1.00 43.22     0.007 C 
HETATM    9  C9  8UH n1621     -46.291 143.821   8.243  1.00 45.04    -0.062 C 
HETATM   10  C10 8UH n1621     -45.546 142.807   8.661  1.00 43.71     0.007 C 
HETATM   11  C11 8UH n1621     -44.464 142.206   7.918  1.00 42.87     0.001 C 
HETATM   12  C12 8UH n1621     -43.988 141.137   8.523  1.00 44.70     0.007 C 
HETATM   13  C13 8UH n1621     -42.940 140.294   7.954  1.00 42.63    -0.062 C 
HETATM   14  C14 8UH n1621     -42.599 139.209   8.651  1.00 42.62     0.007 C 
HETATM   15  C15 8UH n1621     -41.602 138.284   8.155  1.00 44.33     0.001 C 
HETATM   16  C16 8UH n1621     -51.379 145.048   8.062  1.00 47.48     0.020 C 
HETATM   17  C17 8UH n1621     -50.409 143.239   9.460  1.00 54.25     0.020 C 
HETATM   18  C18 8UH n1621     -48.146 147.304  10.623  1.00 37.77     0.044 C 
HETATM   19  C19 8UH n1621     -46.078 144.506   6.931  1.00 46.17     0.048 C 
HETATM   20  C20 8UH n1621     -42.335 140.621   6.624  1.00 40.87     0.048 C 
HETATM   21  O3  8UH n1621     -52.600 146.384  12.253  1.00 48.83    -0.395 OA
ATOM     22  H3  8UH n1621     -52.339 146.907  13.002  1.00  0.00     0.210 HD
HETATM   23  C21 8UH n1621     -34.053 128.194   7.080  1.00 57.46    -0.018 C 
HETATM   24  C22 8UH n1621     -33.441 127.631   5.806  1.00 54.62     0.045 C 
HETATM   25  C23 8UH n1621     -32.066 128.145   5.371  1.00 54.91     0.123 C 
HETATM   26  C24 8UH n1621     -31.563 129.389   6.088  1.00 56.99     0.066 C 
HETATM   27  C25 8UH n1621     -32.700 130.221   6.615  1.00 60.65    -0.074 C 
HETATM   28  C26 8UH n1621     -33.723 129.658   7.261  1.00 60.28    -0.048 C 
HETATM   29  C27 8UH n1621     -34.556 130.428   8.210  1.00 57.11     0.009 C 
HETATM   30  C28 8UH n1621     -35.530 131.228   7.798  1.00 53.31     0.007 C 
HETATM   31  C29 8UH n1621     -36.365 131.950   8.756  1.00 54.19    -0.062 C 
HETATM   32  C30 8UH n1621     -37.444 132.545   8.247  1.00 54.84     0.007 C 
HETATM   33  C31 8UH n1621     -38.398 133.306   9.029  1.00 51.40     0.001 C 
HETATM   34  C32 8UH n1621     -38.906 134.355   8.406  1.00 48.08     0.007 C 
HETATM   35  C33 8UH n1621     -39.881 135.238   9.043  1.00 45.58    -0.062 C 
HETATM   36  C34 8UH n1621     -40.303 136.306   8.365  1.00 47.58     0.007 C 
HETATM   37  C35 8UH n1621     -41.282 137.237   8.897  1.00 48.15     0.001 C 
HETATM   38  C36 8UH n1621     -33.622 127.367   8.290  1.00 59.48     0.020 C 
HETATM   39  C37 8UH n1621     -35.561 128.068   6.965  1.00 57.14     0.020 C 
HETATM   40  C38 8UH n1621     -32.057 131.471   7.126  1.00 65.36     0.044 C 
HETATM   41  C39 8UH n1621     -36.018 131.964  10.211  1.00 53.01     0.048 C 
HETATM   42  C40 8UH n1621     -40.369 134.928  10.416  1.00 46.34     0.048 C 
HETATM   43  O23 8UH n1621     -31.131 127.088   5.591  1.00 51.54    -0.395 OA
ATOM     44  H23 8UH n1621     -30.278 127.407   5.321  1.00  0.00     0.210 HD
ENDROOT
TORSDOF 12
