REMARK VINA RESULT:   -11.825      0.000      0.000
REMARK INTER + INTRA:         -14.100
REMARK INTER:                 -11.825
REMARK INTRA:                  -2.276
REMARK UNBOUND:                -2.276
REMARK  0 active torsions:
REMARK  status: ('A' for Active; 'I' for Inactive)
REMARK       I    between atoms: C3_3  and  O3_21 
REMARK       I    between atoms: C6_6  and  C7_7 
REMARK       I    between atoms: C8_8  and  C9_9 
REMARK       I    between atoms: C10_10  and  C11_11 
REMARK       I    between atoms: C12_12  and  C13_13 
REMARK       I    between atoms: C14_14  and  C15_15 
REMARK       I    between atoms: C23_25  and  O23_43 
REMARK       I    between atoms: C26_28  and  C27_29 
REMARK       I    between atoms: C28_30  and  C29_31 
REMARK       I    between atoms: C30_32  and  C31_33 
REMARK       I    between atoms: C32_34  and  C33_35 
REMARK       I    between atoms: C34_36  and  C35_37 
ROOT
HETATM    1  C1  8UH 6 317     -48.192 145.724  12.719  1.00 89.78    -0.018 C 
HETATM    2  C2  8UH 6 317     -48.621 146.207  14.109  1.00 90.48     0.045 C 
HETATM    3  C3  8UH 6 317     -47.624 147.055  14.891  1.00 89.65     0.123 C 
HETATM    4  C4  8UH 6 317     -46.848 147.965  13.962  1.00 88.26     0.066 C 
HETATM    5  C5  8UH 6 317     -46.132 147.099  12.966  1.00 86.93    -0.074 C 
HETATM    6  C6  8UH 6 317     -46.791 146.143  12.320  1.00 87.83    -0.048 C 
HETATM    7  C7  8UH 6 317     -46.132 145.458  11.187  1.00 88.05     0.009 C 
HETATM    8  C8  8UH 6 317     -45.259 144.479  11.422  1.00 88.38     0.007 C 
HETATM    9  C9  8UH 6 317     -44.575 143.768  10.327  1.00 88.50    -0.062 C 
HETATM   10  C10 8UH 6 317     -43.717 142.792  10.648  1.00 89.92     0.007 C 
HETATM   11  C11 8UH 6 317     -42.978 142.005   9.665  1.00 90.53     0.001 C 
HETATM   12  C12 8UH 6 317     -42.187 141.046  10.142  1.00 91.02     0.007 C 
HETATM   13  C13 8UH 6 317     -41.384 140.158   9.281  1.00 91.35    -0.062 C 
HETATM   14  C14 8UH 6 317     -40.836 139.072   9.845  1.00 92.63     0.007 C 
HETATM   15  C15 8UH 6 317     -40.037 138.100   9.107  1.00 93.76     0.001 C 
HETATM   16  C16 8UH 6 317     -49.177 146.265  11.691  1.00 89.80     0.020 C 
HETATM   17  C17 8UH 6 317     -48.251 144.203  12.695  1.00 89.92     0.020 C 
HETATM   18  C18 8UH 6 317     -44.864 147.676  12.411  1.00 86.44     0.044 C 
HETATM   19  C19 8UH 6 317     -44.835 144.133   8.895  1.00 87.10     0.048 C 
HETATM   20  C20 8UH 6 317     -41.188 140.468   7.827  1.00 90.38     0.048 C 
HETATM   21  O3  8UH 6 317     -48.322 147.869  15.842  1.00 90.37    -0.395 OA
ATOM     22  H3  8UH 6 317     -48.808 147.298  16.425  1.00  0.00     0.210 HD
HETATM   23  C21 8UH 6 317     -34.407 127.059   6.531  1.00 71.39    -0.018 C 
HETATM   24  C22 8UH 6 317     -34.106 126.570   5.119  1.00 71.39     0.045 C 
HETATM   25  C23 8UH 6 317     -32.961 127.230   4.361  1.00 71.39     0.123 C 
HETATM   26  C24 8UH 6 317     -31.889 127.735   5.303  1.00 71.39     0.066 C 
HETATM   27  C25 8UH 6 317     -32.560 128.667   6.266  1.00 71.39    -0.074 C 
HETATM   28  C26 8UH 6 317     -33.653 128.306   6.934  1.00 71.39    -0.048 C 
HETATM   29  C27 8UH 6 317     -34.174 129.093   8.087  1.00 71.39     0.009 C 
HETATM   30  C28 8UH 6 317     -34.943 130.167   7.906  1.00 71.39     0.007 C 
HETATM   31  C29 8UH 6 317     -35.515 130.973   8.994  1.00 90.37    -0.062 C 
HETATM   32  C30 8UH 6 317     -36.357 131.954   8.650  1.00 97.58     0.007 C 
HETATM   33  C31 8UH 6 317     -37.028 132.842   9.593  1.00 95.39     0.001 C 
HETATM   34  C32 8UH 6 317     -37.654 133.873   9.034  1.00 92.75     0.007 C 
HETATM   35  C33 8UH 6 317     -38.417 134.896   9.767  1.00 90.45    -0.062 C 
HETATM   36  C34 8UH 6 317     -38.819 135.993   9.103  1.00 98.23     0.007 C 
HETATM   37  C35 8UH 6 317     -39.603 137.029   9.768  1.00 96.59     0.001 C 
HETATM   38  C36 8UH 6 317     -34.134 125.915   7.500  1.00 71.39     0.020 C 
HETATM   39  C37 8UH 6 317     -35.884 127.388   6.605  1.00 71.39     0.020 C 
HETATM   40  C38 8UH 6 317     -31.608 129.690   6.783  1.00 71.39     0.044 C 
HETATM   41  C39 8UH 6 317     -35.171 130.701  10.429  1.00 90.75     0.048 C 
HETATM   42  C40 8UH 6 317     -38.752 134.701  11.215  1.00 90.73     0.048 C 
HETATM   43  O23 8UH 6 317     -32.359 126.263   3.493  1.00 71.39    -0.395 OA
ATOM     44  H23 8UH 6 317     -31.644 126.675   3.021  1.00  0.00     0.210 HD
ENDROOT
TORSDOF 12
