REMARK VINA RESULT:   -10.152      1.481     16.688
REMARK INTER + INTRA:         -12.815
REMARK INTER:                 -10.150
REMARK INTRA:                  -2.664
REMARK UNBOUND:                -2.663
REMARK  0 active torsions:
REMARK  status: ('A' for Active; 'I' for Inactive)
REMARK       I    between atoms: C3_3  and  O3_21 
REMARK       I    between atoms: C6_6  and  C7_7 
REMARK       I    between atoms: C8_8  and  C9_9 
REMARK       I    between atoms: C10_10  and  C11_11 
REMARK       I    between atoms: C12_12  and  C13_13 
REMARK       I    between atoms: C14_14  and  C15_15 
REMARK       I    between atoms: C23_25  and  O23_43 
REMARK       I    between atoms: C26_28  and  C27_29 
REMARK       I    between atoms: C28_30  and  C29_31 
REMARK       I    between atoms: C30_32  and  C31_33 
REMARK       I    between atoms: C32_34  and  C33_35 
REMARK       I    between atoms: C34_36  and  C35_37 
ROOT
HETATM    1  C1  8UH 6 621     -34.456 127.533   6.387  1.00 27.76    -0.018 C 
HETATM    2  C2  8UH 6 621     -33.862 127.096   5.051  1.00 27.76     0.045 C 
HETATM    3  C3  8UH 6 621     -32.495 127.622   4.631  1.00 27.76     0.123 C 
HETATM    4  C4  8UH 6 621     -31.633 127.998   5.816  1.00 27.76     0.066 C 
HETATM    5  C5  8UH 6 621     -32.413 128.915   6.718  1.00 27.76    -0.074 C 
HETATM    6  C6  8UH 6 621     -33.670 128.634   7.069  1.00 27.76    -0.048 C 
HETATM    7  C7  8UH 6 621     -34.302 129.404   8.170  1.00 27.76     0.009 C 
HETATM    8  C8  8UH 6 621     -35.042 130.498   7.959  1.00 27.76     0.007 C 
HETATM    9  C9  8UH 6 621     -35.645 131.245   9.076  1.00 27.76    -0.062 C 
HETATM   10  C10 8UH 6 621     -36.412 132.315   8.793  1.00 27.76     0.007 C 
HETATM   11  C11 8UH 6 621     -37.076 133.193   9.757  1.00 27.76     0.001 C 
HETATM   12  C12 8UH 6 621     -37.640 134.287   9.254  1.00 27.76     0.007 C 
HETATM   13  C13 8UH 6 621     -38.389 135.330   9.979  1.00 27.76    -0.062 C 
HETATM   14  C14 8UH 6 621     -39.140 136.152   9.234  1.00 27.76     0.007 C 
HETATM   15  C15 8UH 6 621     -39.980 137.221   9.762  1.00 27.76     0.001 C 
HETATM   16  C16 8UH 6 621     -34.564 126.287   7.262  1.00 27.76     0.020 C 
HETATM   17  C17 8UH 6 621     -35.857 128.069   6.139  1.00 27.76     0.020 C 
HETATM   18  C18 8UH 6 621     -31.550 129.818   7.550  1.00 27.76     0.044 C 
HETATM   19  C19 8UH 6 621     -35.380 130.793  10.476  1.00 27.76     0.048 C 
HETATM   20  C20 8UH 6 621     -38.326 135.473  11.466  1.00 27.76     0.048 C 
HETATM   21  O3  8UH 6 621     -31.812 126.620   3.873  1.00 27.76    -0.395 OA
ATOM     22  H3  8UH 6 621     -30.960 126.948   3.612  1.00  0.00     0.210 HD
HETATM   23  C21 8UH 6 621     -49.845 145.671   8.505  1.00 20.50    -0.018 C 
HETATM   24  C22 8UH 6 621     -51.057 145.559   9.421  1.00 20.50     0.045 C 
HETATM   25  C23 8UH 6 621     -50.799 145.634  10.911  1.00 20.50     0.123 C 
HETATM   26  C24 8UH 6 621     -49.513 146.379  11.173  1.00 20.50     0.066 C 
HETATM   27  C25 8UH 6 621     -48.441 145.609  10.476  1.00 20.50    -0.074 C 
HETATM   28  C26 8UH 6 621     -48.517 145.445   9.168  1.00 20.50    -0.048 C 
HETATM   29  C27 8UH 6 621     -47.438 144.859   8.364  1.00 20.50     0.009 C 
HETATM   30  C28 8UH 6 621     -46.686 143.899   8.896  1.00 20.50     0.007 C 
HETATM   31  C29 8UH 6 621     -45.757 143.127   8.028  1.00 27.76    -0.062 C 
HETATM   32  C30 8UH 6 621     -45.190 142.072   8.619  1.00 27.76     0.007 C 
HETATM   33  C31 8UH 6 621     -44.261 141.144   7.989  1.00 27.76     0.001 C 
HETATM   34  C32 8UH 6 621     -43.597 140.365   8.834  1.00 27.76     0.007 C 
HETATM   35  C33 8UH 6 621     -42.637 139.338   8.417  1.00 27.76    -0.062 C 
HETATM   36  C34 8UH 6 621     -41.869 138.732   9.338  1.00 27.76     0.007 C 
HETATM   37  C35 8UH 6 621     -40.928 137.684   8.949  1.00 27.76     0.001 C 
HETATM   38  C36 8UH 6 621     -49.763 147.079   7.943  1.00 20.50     0.020 C 
HETATM   39  C37 8UH 6 621     -50.045 144.711   7.358  1.00 20.50     0.020 C 
HETATM   40  C38 8UH 6 621     -47.156 145.936  11.149  1.00 20.50     0.044 C 
HETATM   41  C39 8UH 6 621     -45.478 143.495   6.602  1.00 27.76     0.048 C 
HETATM   42  C40 8UH 6 621     -42.561 138.963   6.974  1.00 27.76     0.048 C 
HETATM   43  O23 8UH 6 621     -51.894 146.338  11.480  1.00 20.50    -0.395 OA
ATOM     44  H23 8UH 6 621     -51.732 146.385  12.415  1.00  0.00     0.210 HD
ENDROOT
TORSDOF 12
