REMARK VINA RESULT:   -10.227      0.771     16.790
REMARK INTER + INTRA:         -12.090
REMARK INTER:                  -9.556
REMARK INTRA:                  -2.534
REMARK UNBOUND:                -1.863
REMARK  0 active torsions:
REMARK  status: ('A' for Active; 'I' for Inactive)
REMARK       I    between atoms: C3_3  and  O3_21 
REMARK       I    between atoms: C6_6  and  C7_7 
REMARK       I    between atoms: C8_8  and  C9_9 
REMARK       I    between atoms: C10_10  and  C11_11 
REMARK       I    between atoms: C12_12  and  C13_13 
REMARK       I    between atoms: C14_14  and  C15_15 
REMARK       I    between atoms: C23_25  and  O23_43 
REMARK       I    between atoms: C26_28  and  C27_29 
REMARK       I    between atoms: C28_30  and  C29_31 
REMARK       I    between atoms: C30_32  and  C31_33 
REMARK       I    between atoms: C32_34  and  C33_35 
REMARK       I    between atoms: C34_36  and  C35_37 
ROOT
HETATM    1  C1  8UH W1621     -34.417 127.010   6.444  1.00 22.20    -0.018 C 
HETATM    2  C2  8UH W1621     -34.276 126.731   4.953  1.00 22.20     0.045 C 
HETATM    3  C3  8UH W1621     -33.140 127.421   4.231  1.00 22.20     0.123 C 
HETATM    4  C4  8UH W1621     -32.043 127.766   5.208  1.00 22.20     0.066 C 
HETATM    5  C5  8UH W1621     -32.667 128.665   6.224  1.00 22.20    -0.074 C 
HETATM    6  C6  8UH W1621     -33.679 128.220   6.941  1.00 22.20    -0.048 C 
HETATM    7  C7  8UH W1621     -34.251 128.955   8.077  1.00 22.20     0.009 C 
HETATM    8  C8  8UH W1621     -34.279 130.283   8.037  1.00 22.20     0.007 C 
HETATM    9  C9  8UH W1621     -35.065 131.002   9.053  1.00 22.20    -0.062 C 
HETATM   10  C10 8UH W1621     -35.502 132.229   8.748  1.00 22.20     0.007 C 
HETATM   11  C11 8UH W1621     -36.415 132.993   9.591  1.00 22.20     0.001 C 
HETATM   12  C12 8UH W1621     -36.971 134.100   9.114  1.00 22.20     0.007 C 
HETATM   13  C13 8UH W1621     -37.958 134.863   9.897  1.00 22.20    -0.062 C 
HETATM   14  C14 8UH W1621     -38.591 135.878   9.290  1.00 22.20     0.007 C 
HETATM   15  C15 8UH W1621     -39.610 136.703   9.930  1.00 22.20     0.001 C 
HETATM   16  C16 8UH W1621     -33.837 125.850   7.232  1.00 22.20     0.020 C 
HETATM   17  C17 8UH W1621     -35.891 127.109   6.757  1.00 22.20     0.020 C 
HETATM   18  C18 8UH W1621     -31.571 129.467   6.832  1.00 22.20     0.044 C 
HETATM   19  C19 8UH W1621     -35.429 130.312  10.331  1.00 22.20     0.048 C 
HETATM   20  C20 8UH W1621     -38.229 134.457  11.311  1.00 22.20     0.048 C 
HETATM   21  O3  8UH W1621     -32.655 126.503   3.260  1.00 22.20    -0.395 OA
ATOM     22  H3  8UH W1621     -31.942 126.936   2.806  1.00  0.00     0.210 HD
HETATM   23  C21 8UH W1621     -48.356 145.907  12.090  1.00 26.19    -0.018 C 
HETATM   24  C22 8UH W1621     -49.206 146.524  13.194  1.00 26.65     0.045 C 
HETATM   25  C23 8UH W1621     -48.527 146.798  14.521  1.00 28.07     0.123 C 
HETATM   26  C24 8UH W1621     -47.122 147.309  14.331  1.00 30.07     0.066 C 
HETATM   27  C25 8UH W1621     -46.352 146.323  13.516  1.00 28.83    -0.074 C 
HETATM   28  C26 8UH W1621     -46.862 145.846  12.377  1.00 27.49    -0.048 C 
HETATM   29  C27 8UH W1621     -46.003 145.237  11.330  1.00 29.45     0.009 C 
HETATM   30  C28 8UH W1621     -45.461 144.025  11.462  1.00 27.83     0.007 C 
HETATM   31  C29 8UH W1621     -44.646 143.408  10.413  1.00 22.20    -0.062 C 
HETATM   32  C30 8UH W1621     -44.176 142.176  10.660  1.00 22.20     0.007 C 
HETATM   33  C31 8UH W1621     -43.317 141.425   9.755  1.00 22.20     0.001 C 
HETATM   34  C32 8UH W1621     -42.776 140.288  10.171  1.00 22.20     0.007 C 
HETATM   35  C33 8UH W1621     -41.831 139.534   9.333  1.00 22.20    -0.062 C 
HETATM   36  C34 8UH W1621     -41.202 138.494   9.901  1.00 22.20     0.007 C 
HETATM   37  C35 8UH W1621     -40.195 137.668   9.241  1.00 22.20     0.001 C 
HETATM   38  C36 8UH W1621     -48.632 146.757  10.862  1.00 26.46     0.020 C 
HETATM   39  C37 8UH W1621     -48.826 144.483  11.840  1.00 26.61     0.020 C 
HETATM   40  C38 8UH W1621     -44.913 146.689  13.678  1.00 29.43     0.044 C 
HETATM   41  C39 8UH W1621     -44.416 144.160   9.140  1.00 22.20     0.048 C 
HETATM   42  C40 8UH W1621     -41.577 139.998   7.933  1.00 22.20     0.048 C 
HETATM   43  O23 8UH W1621     -49.281 147.778  15.228  1.00 27.44    -0.395 OA
ATOM     44  H23 8UH W1621     -48.855 147.950  16.060  1.00  0.00     0.210 HD
ENDROOT
TORSDOF 12
