REMARK VINA RESULT:    -8.995      0.406     16.911
REMARK INTER + INTRA:         -11.497
REMARK INTER:                  -8.919
REMARK INTRA:                  -2.578
REMARK UNBOUND:                -2.503
REMARK  0 active torsions:
REMARK  status: ('A' for Active; 'I' for Inactive)
REMARK       I    between atoms: C3_3  and  O3_21 
REMARK       I    between atoms: C6_6  and  C7_7 
REMARK       I    between atoms: C8_8  and  C9_9 
REMARK       I    between atoms: C10_10  and  C11_11 
REMARK       I    between atoms: C12_12  and  C13_13 
REMARK       I    between atoms: C14_14  and  C15_15 
REMARK       I    between atoms: C23_25  and  O23_43 
REMARK       I    between atoms: C26_28  and  C27_29 
REMARK       I    between atoms: C28_30  and  C29_31 
REMARK       I    between atoms: C30_32  and  C31_33 
REMARK       I    between atoms: C32_34  and  C33_35 
REMARK       I    between atoms: C34_36  and  C35_37 
ROOT
HETATM    1  C1  8UH F5620     -34.552 127.012   6.242  1.00 19.30    -0.018 C 
HETATM    2  C2  8UH F5620     -34.109 126.375   4.911  1.00 17.68     0.045 C 
HETATM    3  C3  8UH F5620     -32.917 126.974   4.173  1.00 17.79     0.123 C 
HETATM    4  C4  8UH F5620     -31.973 127.823   5.026  1.00 18.50     0.066 C 
HETATM    5  C5  8UH F5620     -32.535 128.590   6.178  1.00 19.40    -0.074 C 
HETATM    6  C6  8UH F5620     -33.735 128.237   6.763  1.00 19.02    -0.048 C 
HETATM    7  C7  8UH F5620     -34.298 129.001   7.887  1.00 18.60     0.009 C 
HETATM    8  C8  8UH F5620     -34.938 130.188   7.816  1.00 18.09     0.007 C 
HETATM    9  C9  8UH F5620     -35.397 131.012   8.938  1.00 18.23    -0.062 C 
HETATM   10  C10 8UH F5620     -36.112 132.122   8.651  1.00 15.81     0.007 C 
HETATM   11  C11 8UH F5620     -36.670 133.053   9.592  1.00 18.00     0.001 C 
HETATM   12  C12 8UH F5620     -37.510 134.008   9.161  1.00 18.12     0.007 C 
HETATM   13  C13 8UH F5620     -38.229 135.019   9.925  1.00 18.88    -0.062 C 
HETATM   14  C14 8UH F5620     -39.104 135.796   9.251  1.00 21.10     0.007 C 
HETATM   15  C15 8UH F5620     -39.991 136.796   9.783  1.00 24.06     0.001 C 
HETATM   16  C16 8UH F5620     -34.441 125.850   7.245  1.00 17.17     0.020 C 
HETATM   17  C17 8UH F5620     -36.048 127.372   6.095  1.00 16.95     0.020 C 
HETATM   18  C18 8UH F5620     -31.605 129.712   6.511  1.00 19.80     0.044 C 
HETATM   19  C19 8UH F5620     -35.083 130.537  10.338  1.00 17.09     0.048 C 
HETATM   20  C20 8UH F5620     -38.008 135.078  11.405  1.00 16.35     0.048 C 
HETATM   21  O3  8UH F5620     -32.188 125.955   3.513  1.00 17.38    -0.395 OA
ATOM     22  H3  8UH F5620     -31.445 126.328   3.053  1.00  0.00     0.210 HD
HETATM   23  C21 8UH F5620     -49.626 144.608  12.433  1.00 29.53    -0.018 C 
HETATM   24  C22 8UH F5620     -50.124 145.176  13.760  1.00 29.53     0.045 C 
HETATM   25  C23 8UH F5620     -49.211 146.137  14.507  1.00 29.53     0.123 C 
HETATM   26  C24 8UH F5620     -48.456 147.021  13.538  1.00 29.53     0.066 C 
HETATM   27  C25 8UH F5620     -47.660 146.133  12.628  1.00 29.53    -0.074 C 
HETATM   28  C26 8UH F5620     -48.252 145.101  12.014  1.00 29.53    -0.048 C 
HETATM   29  C27 8UH F5620     -47.584 144.424  10.881  1.00 29.53     0.009 C 
HETATM   30  C28 8UH F5620     -46.670 143.466  11.046  1.00 29.53     0.007 C 
HETATM   31  C29 8UH F5620     -46.009 142.781   9.891  1.00 26.61    -0.062 C 
HETATM   32  C30 8UH F5620     -45.104 141.827  10.195  1.00 25.24     0.007 C 
HETATM   33  C31 8UH F5620     -44.382 141.003   9.271  1.00 26.40     0.001 C 
HETATM   34  C32 8UH F5620     -43.466 140.112   9.692  1.00 26.29     0.007 C 
HETATM   35  C33 8UH F5620     -42.634 139.208   8.891  1.00 26.99    -0.062 C 
HETATM   36  C34 8UH F5620     -41.750 138.426   9.548  1.00 26.65     0.007 C 
HETATM   37  C35 8UH F5620     -40.830 137.474   8.992  1.00 25.43     0.001 C 
HETATM   38  C36 8UH F5620     -50.679 144.939  11.379  1.00 29.53     0.020 C 
HETATM   39  C37 8UH F5620     -49.535 143.092  12.563  1.00 29.53     0.020 C 
HETATM   40  C38 8UH F5620     -46.473 146.850  12.051  1.00 29.53     0.044 C 
HETATM   41  C39 8UH F5620     -46.372 143.180   8.481  1.00 26.87     0.048 C 
HETATM   42  C40 8UH F5620     -42.804 139.233   7.401  1.00 24.17     0.048 C 
HETATM   43  O23 8UH F5620     -50.003 146.976  15.353  1.00 29.53    -0.395 OA
ATOM     44  H23 8UH F5620     -50.477 146.421  15.961  1.00  0.00     0.210 HD
ENDROOT
TORSDOF 12
