REMARK VINA RESULT:    -9.555      1.668     16.473
REMARK INTER + INTRA:         -12.572
REMARK INTER:                 -12.441
REMARK INTRA:                  -0.131
REMARK UNBOUND:                -3.017
REMARK  0 active torsions:
REMARK  status: ('A' for Active; 'I' for Inactive)
REMARK       I    between atoms: C3_3  and  O3_21 
REMARK       I    between atoms: C6_6  and  C7_7 
REMARK       I    between atoms: C8_8  and  C9_9 
REMARK       I    between atoms: C10_10  and  C11_11 
REMARK       I    between atoms: C12_12  and  C13_13 
REMARK       I    between atoms: C14_14  and  C15_15 
REMARK       I    between atoms: C23_25  and  O23_43 
REMARK       I    between atoms: C26_28  and  C27_29 
REMARK       I    between atoms: C28_30  and  C29_31 
REMARK       I    between atoms: C30_32  and  C31_33 
REMARK       I    between atoms: C32_34  and  C33_35 
REMARK       I    between atoms: C34_36  and  C35_37 
ROOT
HETATM    1  C1  8UH Y1621     -34.188 127.968   6.930  1.00 30.42    -0.018 C 
HETATM    2  C2  8UH Y1621     -33.599 127.765   5.530  1.00 30.42     0.045 C 
HETATM    3  C3  8UH Y1621     -32.313 128.513   5.204  1.00 30.42     0.123 C 
HETATM    4  C4  8UH Y1621     -31.594 128.975   6.464  1.00 30.42     0.066 C 
HETATM    5  C5  8UH Y1621     -32.579 129.787   7.250  1.00 30.42    -0.074 C 
HETATM    6  C6  8UH Y1621     -33.710 129.212   7.651  1.00 30.42    -0.048 C 
HETATM    7  C7  8UH Y1621     -34.618 129.839   8.634  1.00 30.42     0.009 C 
HETATM    8  C8  8UH Y1621     -34.709 131.171   8.679  1.00 30.42     0.007 C 
HETATM    9  C9  8UH Y1621     -35.787 131.777   9.494  1.00 30.42    -0.062 C 
HETATM   10  C10 8UH Y1621     -36.202 133.008   9.133  1.00 30.42     0.007 C 
HETATM   11  C11 8UH Y1621     -37.363 133.670   9.727  1.00 30.42     0.001 C 
HETATM   12  C12 8UH Y1621     -37.868 134.751   9.138  1.00 30.42     0.007 C 
HETATM   13  C13 8UH Y1621     -39.094 135.406   9.644  1.00 30.42    -0.062 C 
HETATM   14  C14 8UH Y1621     -39.614 136.403   8.901  1.00 30.42     0.007 C 
HETATM   15  C15 8UH Y1621     -40.836 137.137   9.246  1.00 30.42     0.001 C 
HETATM   16  C16 8UH Y1621     -33.762 126.804   7.823  1.00 30.42     0.020 C 
HETATM   17  C17 8UH Y1621     -35.703 127.946   6.812  1.00 30.42     0.020 C 
HETATM   18  C18 8UH Y1621     -31.723 130.602   8.179  1.00 30.42     0.044 C 
HETATM   19  C19 8UH Y1621     -36.432 130.980  10.605  1.00 30.42     0.048 C 
HETATM   20  C20 8UH Y1621     -39.707 134.910  10.930  1.00 30.42     0.048 C 
HETATM   21  O3  8UH Y1621     -31.491 127.602   4.481  1.00 30.42    -0.395 OA
ATOM     22  H3  8UH Y1621     -30.689 128.068   4.278  1.00  0.00     0.210 HD
HETATM   23  C21 8UH Y1621     -50.530 145.468   9.033  1.00 15.23    -0.018 C 
HETATM   24  C22 8UH Y1621     -51.715 144.766   9.667  1.00 15.23     0.045 C 
HETATM   25  C23 8UH Y1621     -51.393 144.000  10.924  1.00 15.23     0.123 C 
HETATM   26  C24 8UH Y1621     -50.560 144.888  11.800  1.00 15.23     0.066 C 
HETATM   27  C25 8UH Y1621     -49.266 145.219  11.126  1.00 15.23    -0.074 C 
HETATM   28  C26 8UH Y1621     -49.237 145.382   9.800  1.00 15.23    -0.048 C 
HETATM   29  C27 8UH Y1621     -48.010 145.179   9.023  1.00 15.23     0.009 C 
HETATM   30  C28 8UH Y1621     -47.472 143.977   9.247  1.00 15.23     0.007 C 
HETATM   31  C29 8UH Y1621     -46.353 143.464   8.432  1.00 30.42    -0.062 C 
HETATM   32  C30 8UH Y1621     -45.846 142.266   8.793  1.00 30.42     0.007 C 
HETATM   33  C31 8UH Y1621     -44.706 141.627   8.139  1.00 30.42     0.001 C 
HETATM   34  C32 8UH Y1621     -44.201 140.513   8.667  1.00 30.42     0.007 C 
HETATM   35  C33 8UH Y1621     -43.003 139.858   8.101  1.00 30.42    -0.062 C 
HETATM   36  C34 8UH Y1621     -42.485 138.829   8.807  1.00 30.42     0.007 C 
HETATM   37  C35 8UH Y1621     -41.275 138.094   8.436  1.00 30.42     0.001 C 
HETATM   38  C36 8UH Y1621     -50.870 146.946   9.018  1.00 15.23     0.020 C 
HETATM   39  C37 8UH Y1621     -50.363 144.932   7.623  1.00 15.23     0.020 C 
HETATM   40  C38 8UH Y1621     -48.052 145.009  11.981  1.00 15.23     0.044 C 
HETATM   41  C39 8UH Y1621     -45.857 144.282   7.267  1.00 30.42     0.048 C 
HETATM   42  C40 8UH Y1621     -42.399 140.392   6.828  1.00 30.42     0.048 C 
HETATM   43  O23 8UH Y1621     -52.599 143.732  11.632  1.00 15.23    -0.395 OA
ATOM     44  H23 8UH Y1621     -53.127 143.169  11.077  1.00  0.00     0.210 HD
ENDROOT
TORSDOF 12
