REMARK VINA RESULT:   -10.989      0.867     16.353
REMARK INTER + INTRA:         -13.336
REMARK INTER:                 -10.728
REMARK INTRA:                  -2.608
REMARK UNBOUND:                -2.347
REMARK  0 active torsions:
REMARK  status: ('A' for Active; 'I' for Inactive)
REMARK       I    between atoms: C3_3  and  O3_21 
REMARK       I    between atoms: C6_6  and  C7_7 
REMARK       I    between atoms: C8_8  and  C9_9 
REMARK       I    between atoms: C10_10  and  C11_11 
REMARK       I    between atoms: C12_12  and  C13_13 
REMARK       I    between atoms: C14_14  and  C15_15 
REMARK       I    between atoms: C23_25  and  O23_43 
REMARK       I    between atoms: C26_28  and  C27_29 
REMARK       I    between atoms: C28_30  and  C29_31 
REMARK       I    between atoms: C30_32  and  C31_33 
REMARK       I    between atoms: C32_34  and  C33_35 
REMARK       I    between atoms: C34_36  and  C35_37 
ROOT
HETATM    1  C1  8UH Y1620     -34.275 127.121   6.535  1.00 32.28    -0.018 C 
HETATM    2  C2  8UH Y1620     -33.792 126.633   5.181  1.00 32.10     0.045 C 
HETATM    3  C3  8UH Y1620     -32.701 127.438   4.514  1.00 30.03     0.123 C 
HETATM    4  C4  8UH Y1620     -31.620 127.846   5.477  1.00 27.01     0.066 C 
HETATM    5  C5  8UH Y1620     -32.191 128.516   6.687  1.00 26.85    -0.074 C 
HETATM    6  C6  8UH Y1620     -33.415 128.220   7.152  1.00 32.38    -0.048 C 
HETATM    7  C7  8UH Y1620     -33.960 128.974   8.309  1.00 31.45     0.009 C 
HETATM    8  C8  8UH Y1620     -34.715 130.055   8.126  1.00 30.07     0.007 C 
HETATM    9  C9  8UH Y1620     -35.283 130.848   9.214  1.00 31.62    -0.062 C 
HETATM   10  C10 8UH Y1620     -35.875 131.984   8.843  1.00 26.80     0.007 C 
HETATM   11  C11 8UH Y1620     -36.514 132.920   9.740  1.00 22.84     0.001 C 
HETATM   12  C12 8UH Y1620     -37.320 133.741   9.103  1.00 24.53     0.007 C 
HETATM   13  C13 8UH Y1620     -38.133 134.754   9.769  1.00 24.57    -0.062 C 
HETATM   14  C14 8UH Y1620     -38.935 135.473   8.987  1.00 24.07     0.007 C 
HETATM   15  C15 8UH Y1620     -39.834 136.478   9.507  1.00 24.13     0.001 C 
HETATM   16  C16 8UH Y1620     -34.343 125.862   7.394  1.00 30.09     0.020 C 
HETATM   17  C17 8UH Y1620     -35.681 127.680   6.365  1.00 35.00     0.020 C 
HETATM   18  C18 8UH Y1620     -31.364 129.656   7.200  1.00 25.72     0.044 C 
HETATM   19  C19 8UH Y1620     -35.171 130.404  10.639  1.00 32.28     0.048 C 
HETATM   20  C20 8UH Y1620     -38.085 134.932  11.250  1.00 25.14     0.048 C 
HETATM   21  O3  8UH Y1620     -32.083 126.619   3.518  1.00 33.60    -0.395 OA
ATOM     22  H3  8UH Y1620     -31.398 127.126   3.098  1.00  0.00     0.210 HD
HETATM   23  C21 8UH Y1620     -49.621 143.874  10.746  1.00 61.00    -0.018 C 
HETATM   24  C22 8UH Y1620     -50.184 144.347  12.084  1.00 61.00     0.045 C 
HETATM   25  C23 8UH Y1620     -49.412 145.415  12.845  1.00 61.00     0.123 C 
HETATM   26  C24 8UH Y1620     -48.716 146.383  11.913  1.00 61.00     0.066 C 
HETATM   27  C25 8UH Y1620     -47.870 145.638  10.919  1.00 61.00    -0.074 C 
HETATM   28  C26 8UH Y1620     -48.293 144.500  10.359  1.00 61.00    -0.048 C 
HETATM   29  C27 8UH Y1620     -47.467 143.829   9.324  1.00 61.00     0.009 C 
HETATM   30  C28 8UH Y1620     -46.552 142.913   9.643  1.00 61.00     0.007 C 
HETATM   31  C29 8UH Y1620     -45.727 142.229   8.659  1.00 31.74    -0.062 C 
HETATM   32  C30 8UH Y1620     -45.030 141.205   9.116  1.00 30.48     0.007 C 
HETATM   33  C31 8UH Y1620     -44.169 140.385   8.295  1.00 30.78     0.001 C 
HETATM   34  C32 8UH Y1620     -43.408 139.565   8.990  1.00 30.06     0.007 C 
HETATM   35  C33 8UH Y1620     -42.483 138.634   8.354  1.00 27.63    -0.062 C 
HETATM   36  C34 8UH Y1620     -41.695 137.926   9.160  1.00 25.49     0.007 C 
HETATM   37  C35 8UH Y1620     -40.750 136.944   8.675  1.00 24.60     0.001 C 
HETATM   38  C36 8UH Y1620     -50.685 144.163   9.694  1.00 61.00     0.020 C 
HETATM   39  C37 8UH Y1620     -49.403 142.369  10.837  1.00 61.00     0.020 C 
HETATM   40  C38 8UH Y1620     -46.594 146.305  10.490  1.00 61.00     0.044 C 
HETATM   41  C39 8UH Y1620     -45.669 142.653   7.228  1.00 33.51     0.048 C 
HETATM   42  C40 8UH Y1620     -42.460 138.498   6.867  1.00 28.91     0.048 C 
HETATM   43  O23 8UH Y1620     -50.340 146.156  13.646  1.00 61.00    -0.395 OA
ATOM     44  H23 8UH Y1620     -49.857 146.823  14.121  1.00  0.00     0.210 HD
ENDROOT
TORSDOF 12
