REMARK VINA RESULT:    -9.327      0.499     16.944
REMARK INTER + INTRA:         -10.263
REMARK INTER:                  -9.904
REMARK INTRA:                  -0.360
REMARK UNBOUND:                -0.936
REMARK  0 active torsions:
REMARK  status: ('A' for Active; 'I' for Inactive)
REMARK       I    between atoms: C3_3  and  O3_21 
REMARK       I    between atoms: C6_6  and  C7_7 
REMARK       I    between atoms: C8_8  and  C9_9 
REMARK       I    between atoms: C10_10  and  C11_11 
REMARK       I    between atoms: C12_12  and  C13_13 
REMARK       I    between atoms: C14_14  and  C15_15 
REMARK       I    between atoms: C23_25  and  O23_43 
REMARK       I    between atoms: C26_28  and  C27_29 
REMARK       I    between atoms: C28_30  and  C29_31 
REMARK       I    between atoms: C30_32  and  C31_33 
REMARK       I    between atoms: C32_34  and  C33_35 
REMARK       I    between atoms: C34_36  and  C35_37 
ROOT
HETATM    1  C1  8UH D3620     -34.244 128.329   6.789  1.00 21.49    -0.018 C 
HETATM    2  C2  8UH D3620     -33.353 127.808   5.640  1.00 21.50     0.045 C 
HETATM    3  C3  8UH D3620     -31.948 128.390   5.449  1.00 22.37     0.123 C 
HETATM    4  C4  8UH D3620     -31.395 129.170   6.645  1.00 21.17     0.066 C 
HETATM    5  C5  8UH D3620     -32.340 129.817   7.604  1.00 19.70    -0.074 C 
HETATM    6  C6  8UH D3620     -33.670 129.453   7.696  1.00 20.41    -0.048 C 
HETATM    7  C7  8UH D3620     -34.599 130.096   8.647  1.00 19.41     0.009 C 
HETATM    8  C8  8UH D3620     -35.197 131.290   8.529  1.00 18.90     0.007 C 
HETATM    9  C9  8UH D3620     -36.002 131.984   9.538  1.00 20.60    -0.062 C 
HETATM   10  C10 8UH D3620     -36.604 133.135   9.171  1.00 18.78     0.007 C 
HETATM   11  C11 8UH D3620     -37.440 133.963   9.985  1.00 19.97     0.001 C 
HETATM   12  C12 8UH D3620     -38.106 134.983   9.417  1.00 23.02     0.007 C 
HETATM   13  C13 8UH D3620     -39.037 135.928  10.036  1.00 23.57    -0.062 C 
HETATM   14  C14 8UH D3620     -39.666 136.804   9.222  1.00 23.43     0.007 C 
HETATM   15  C15 8UH D3620     -40.670 137.765   9.576  1.00 24.57     0.001 C 
HETATM   16  C16 8UH D3620     -34.504 127.064   7.630  1.00 19.84     0.020 C 
HETATM   17  C17 8UH D3620     -35.589 128.780   6.161  1.00 19.63     0.020 C 
HETATM   18  C18 8UH D3620     -31.574 130.840   8.363  1.00 19.29     0.044 C 
HETATM   19  C19 8UH D3620     -36.147 131.346  10.901  1.00 18.57     0.048 C 
HETATM   20  C20 8UH D3620     -39.278 135.812  11.509  1.00 22.43     0.048 C 
HETATM   21  O3  8UH D3620     -31.039 127.370   5.072  1.00 22.38    -0.395 OA
ATOM     22  H3  8UH D3620     -30.167 127.731   4.954  1.00  0.00     0.210 HD
HETATM   23  C21 8UH D3620     -50.683 145.478  10.053  1.00 87.69    -0.018 C 
HETATM   24  C22 8UH D3620     -51.394 145.836  11.343  1.00 87.69     0.045 C 
HETATM   25  C23 8UH D3620     -51.153 147.238  11.891  1.00 87.69     0.123 C 
HETATM   26  C24 8UH D3620     -49.800 147.844  11.550  1.00 87.69     0.066 C 
HETATM   27  C25 8UH D3620     -48.840 146.862  10.930  1.00 87.69    -0.074 C 
HETATM   28  C26 8UH D3620     -49.251 145.943  10.061  1.00 87.69    -0.048 C 
HETATM   29  C27 8UH D3620     -48.325 145.379   9.053  1.00 87.69     0.009 C 
HETATM   30  C28 8UH D3620     -47.489 144.396   9.370  1.00 87.69     0.007 C 
HETATM   31  C29 8UH D3620     -46.539 143.764   8.397  1.00 31.15    -0.062 C 
HETATM   32  C30 8UH D3620     -45.738 142.782   8.865  1.00 29.00     0.007 C 
HETATM   33  C31 8UH D3620     -44.765 142.046   8.117  1.00 26.88     0.001 C 
HETATM   34  C32 8UH D3620     -43.998 141.127   8.710  1.00 27.02     0.007 C 
HETATM   35  C33 8UH D3620     -42.939 140.293   8.132  1.00 27.13    -0.062 C 
HETATM   36  C34 8UH D3620     -42.287 139.447   8.961  1.00 25.88     0.007 C 
HETATM   37  C35 8UH D3620     -41.229 138.534   8.635  1.00 25.96     0.001 C 
HETATM   38  C36 8UH D3620     -51.438 146.027   8.846  1.00 87.69     0.020 C 
HETATM   39  C37 8UH D3620     -50.668 143.969   9.955  1.00 87.69     0.020 C 
HETATM   40  C38 8UH D3620     -47.650 147.723  10.646  1.00 87.69     0.044 C 
HETATM   41  C39 8UH D3620     -46.513 144.257   6.979  1.00 30.08     0.048 C 
HETATM   42  C40 8UH D3620     -42.647 140.444   6.667  1.00 24.80     0.048 C 
HETATM   43  O23 8UH D3620     -52.168 148.082  11.348  1.00 87.69    -0.395 OA
ATOM     44  H23 8UH D3620     -53.013 147.703  11.561  1.00  0.00     0.210 HD
ENDROOT
TORSDOF 12
