REMARK VINA RESULT:    -8.843      0.000      0.000
REMARK INTER + INTRA:         -11.636
REMARK INTER:                  -8.843
REMARK INTRA:                  -2.794
REMARK UNBOUND:                -2.794
REMARK  0 active torsions:
REMARK  status: ('A' for Active; 'I' for Inactive)
REMARK       I    between atoms: C3_3  and  O3_21 
REMARK       I    between atoms: C6_6  and  C7_7 
REMARK       I    between atoms: C8_8  and  C9_9 
REMARK       I    between atoms: C10_10  and  C11_11 
REMARK       I    between atoms: C12_12  and  C13_13 
REMARK       I    between atoms: C14_14  and  C15_15 
REMARK       I    between atoms: C23_25  and  O23_43 
REMARK       I    between atoms: C26_28  and  C27_29 
REMARK       I    between atoms: C28_30  and  C29_31 
REMARK       I    between atoms: C30_32  and  C31_33 
REMARK       I    between atoms: C32_34  and  C33_35 
REMARK       I    between atoms: C34_36  and  C35_37 
ROOT
HETATM    1  C1  8UH 61620     -34.455 127.892   6.479  1.00 97.95    -0.018 C 
HETATM    2  C2  8UH 61620     -33.742 127.587   5.166  1.00 97.95     0.045 C 
HETATM    3  C3  8UH 61620     -32.365 128.196   4.962  1.00 97.95     0.123 C 
HETATM    4  C4  8UH 61620     -31.576 128.236   6.251  1.00 97.95     0.066 C 
HETATM    5  C5  8UH 61620     -32.363 128.990   7.279  1.00 97.95    -0.074 C 
HETATM    6  C6  8UH 61620     -33.683 128.809   7.409  1.00 97.95    -0.048 C 
HETATM    7  C7  8UH 61620     -34.437 129.504   8.479  1.00 97.95     0.009 C 
HETATM    8  C8  8UH 61620     -34.965 130.712   8.281  1.00 97.95     0.007 C 
HETATM    9  C9  8UH 61620     -35.727 131.415   9.314  1.00 97.95    -0.062 C 
HETATM   10  C10 8UH 61620     -36.278 132.574   8.962  1.00 97.95     0.007 C 
HETATM   11  C11 8UH 61620     -37.077 133.388   9.859  1.00 97.95     0.001 C 
HETATM   12  C12 8UH 61620     -37.525 134.506   9.314  1.00 97.95     0.007 C 
HETATM   13  C13 8UH 61620     -38.378 135.468  10.021  1.00 97.95    -0.062 C 
HETATM   14  C14 8UH 61620     -39.002 136.353   9.246  1.00 97.95     0.007 C 
HETATM   15  C15 8UH 61620     -39.918 137.353   9.760  1.00 97.95     0.001 C 
HETATM   16  C16 8UH 61620     -34.756 126.551   7.140  1.00 97.95     0.020 C 
HETATM   17  C17 8UH 61620     -35.773 128.582   6.150  1.00 97.95     0.020 C 
HETATM   18  C18 8UH 61620     -31.561 129.841   8.218  1.00 97.95     0.044 C 
HETATM   19  C19 8UH 61620     -35.880 130.850  10.693  1.00 97.95     0.048 C 
HETATM   20  C20 8UH 61620     -38.548 135.448  11.509  1.00 97.95     0.048 C 
HETATM   21  O3  8UH 61620     -31.638 127.398   4.022  1.00 97.95    -0.395 OA
ATOM     22  H3  8UH 61620     -32.134 127.373   3.213  1.00  0.00     0.210 HD
HETATM   23  C21 8UH 61620     -49.799 144.866   9.569  1.00 15.23    -0.018 C 
HETATM   24  C22 8UH 61620     -50.497 144.419  10.838  1.00 15.23     0.045 C 
HETATM   25  C23 8UH 61620     -49.601 144.308  12.044  1.00 15.23     0.123 C 
HETATM   26  C24 8UH 61620     -48.767 145.553  12.110  1.00 15.23     0.066 C 
HETATM   27  C25 8UH 61620     -47.892 145.660  10.900  1.00 15.23    -0.074 C 
HETATM   28  C26 8UH 61620     -48.344 145.228   9.720  1.00 15.23    -0.048 C 
HETATM   29  C27 8UH 61620     -47.434 144.805   8.651  1.00 15.23     0.009 C 
HETATM   30  C28 8UH 61620     -46.577 143.869   9.068  1.00 15.23     0.007 C 
HETATM   31  C29 8UH 61620     -45.704 143.144   8.131  1.00 97.95    -0.062 C 
HETATM   32  C30 8UH 61620     -44.922 142.230   8.693  1.00 97.95     0.007 C 
HETATM   33  C31 8UH 61620     -43.988 141.378   7.983  1.00 97.95     0.001 C 
HETATM   34  C32 8UH 61620     -43.328 140.571   8.794  1.00 97.95     0.007 C 
HETATM   35  C33 8UH 61620     -42.337 139.606   8.326  1.00 97.95    -0.062 C 
HETATM   36  C34 8UH 61620     -41.725 138.866   9.250  1.00 97.95     0.007 C 
HETATM   37  C35 8UH 61620     -40.740 137.874   8.862  1.00 97.95     0.001 C 
HETATM   38  C36 8UH 61620     -50.473 146.156   9.144  1.00 15.23     0.020 C 
HETATM   39  C37 8UH 61620     -49.984 143.783   8.521  1.00 15.23     0.020 C 
HETATM   40  C38 8UH 61620     -46.450 145.941  11.204  1.00 15.23     0.044 C 
HETATM   41  C39 8UH 61620     -45.705 143.405   6.656  1.00 97.95     0.048 C 
HETATM   42  C40 8UH 61620     -42.032 139.467   6.868  1.00 97.95     0.048 C 
HETATM   43  O23 8UH 61620     -50.399 144.280  13.222  1.00 15.23    -0.395 OA
ATOM     44  H23 8UH 61620     -50.927 143.491  13.180  1.00  0.00     0.210 HD
ENDROOT
TORSDOF 12
