REMARK VINA RESULT:    -9.895      1.617     16.690
REMARK INTER + INTRA:         -11.998
REMARK INTER:                  -9.568
REMARK INTRA:                  -2.429
REMARK UNBOUND:                -2.103
REMARK  0 active torsions:
REMARK  status: ('A' for Active; 'I' for Inactive)
REMARK       I    between atoms: C3_3  and  O3_21 
REMARK       I    between atoms: C6_6  and  C7_7 
REMARK       I    between atoms: C8_8  and  C9_9 
REMARK       I    between atoms: C10_10  and  C11_11 
REMARK       I    between atoms: C12_12  and  C13_13 
REMARK       I    between atoms: C14_14  and  C15_15 
REMARK       I    between atoms: C23_25  and  O23_43 
REMARK       I    between atoms: C26_28  and  C27_29 
REMARK       I    between atoms: C28_30  and  C29_31 
REMARK       I    between atoms: C30_32  and  C31_33 
REMARK       I    between atoms: C32_34  and  C33_35 
REMARK       I    between atoms: C34_36  and  C35_37 
ROOT
HETATM    1  C1  8UH Z1621     -34.224 127.143   6.736  1.00 27.99    -0.018 C 
HETATM    2  C2  8UH Z1621     -33.770 126.801   5.310  1.00 27.99     0.045 C 
HETATM    3  C3  8UH Z1621     -32.724 127.736   4.717  1.00 27.99     0.123 C 
HETATM    4  C4  8UH Z1621     -31.705 128.067   5.791  1.00 27.99     0.066 C 
HETATM    5  C5  8UH Z1621     -32.451 128.873   6.815  1.00 27.99    -0.074 C 
HETATM    6  C6  8UH Z1621     -33.563 128.365   7.358  1.00 27.99    -0.048 C 
HETATM    7  C7  8UH Z1621     -34.317 129.076   8.415  1.00 27.99     0.009 C 
HETATM    8  C8  8UH Z1621     -34.400 130.410   8.334  1.00 27.99     0.007 C 
HETATM    9  C9  8UH Z1621     -35.349 131.125   9.223  1.00 27.99    -0.062 C 
HETATM   10  C10 8UH Z1621     -35.836 132.306   8.781  1.00 27.99     0.007 C 
HETATM   11  C11 8UH Z1621     -36.899 133.043   9.467  1.00 27.99     0.001 C 
HETATM   12  C12 8UH Z1621     -37.501 134.064   8.856  1.00 27.99     0.007 C 
HETATM   13  C13 8UH Z1621     -38.640 134.776   9.485  1.00 27.99    -0.062 C 
HETATM   14  C14 8UH Z1621     -39.292 135.693   8.738  1.00 27.99     0.007 C 
HETATM   15  C15 8UH Z1621     -40.449 136.465   9.202  1.00 27.99     0.001 C 
HETATM   16  C16 8UH Z1621     -33.783 125.998   7.649  1.00 27.99     0.020 C 
HETATM   17  C17 8UH Z1621     -35.748 127.256   6.740  1.00 27.99     0.020 C 
HETATM   18  C18 8UH Z1621     -31.511 129.773   7.569  1.00 27.99     0.044 C 
HETATM   19  C19 8UH Z1621     -35.801 130.474  10.508  1.00 27.99     0.048 C 
HETATM   20  C20 8UH Z1621     -39.028 134.420  10.898  1.00 27.99     0.048 C 
HETATM   21  O3  8UH Z1621     -32.082 127.115   3.596  1.00 27.99    -0.395 OA
ATOM     22  H3  8UH Z1621     -32.720 126.908   2.923  1.00  0.00     0.210 HD
HETATM   23  C21 8UH Z1621     -49.857 145.170   9.809  1.00 71.39    -0.018 C 
HETATM   24  C22 8UH Z1621     -50.819 145.380  10.973  1.00 71.39     0.045 C 
HETATM   25  C23 8UH Z1621     -50.250 145.898  12.288  1.00 71.39     0.123 C 
HETATM   26  C24 8UH Z1621     -49.029 146.763  12.062  1.00 71.39     0.066 C 
HETATM   27  C25 8UH Z1621     -48.044 145.937  11.290  1.00 71.39    -0.074 C 
HETATM   28  C26 8UH Z1621     -48.395 145.304  10.173  1.00 71.39    -0.048 C 
HETATM   29  C27 8UH Z1621     -47.389 144.716   9.247  1.00 71.39     0.009 C 
HETATM   30  C28 8UH Z1621     -46.863 143.509   9.465  1.00 71.39     0.007 C 
HETATM   31  C29 8UH Z1621     -45.893 142.863   8.579  1.00 27.99    -0.062 C 
HETATM   32  C30 8UH Z1621     -45.411 141.664   8.962  1.00 27.99     0.007 C 
HETATM   33  C31 8UH Z1621     -44.398 140.916   8.220  1.00 27.99     0.001 C 
HETATM   34  C32 8UH Z1621     -43.867 139.825   8.771  1.00 27.99     0.007 C 
HETATM   35  C33 8UH Z1621     -42.772 139.083   8.114  1.00 27.99    -0.062 C 
HETATM   36  C34 8UH Z1621     -42.162 138.125   8.843  1.00 27.99     0.007 C 
HETATM   37  C35 8UH Z1621     -41.019 137.337   8.376  1.00 27.99     0.001 C 
HETATM   38  C36 8UH Z1621     -50.236 146.140   8.697  1.00 71.39     0.020 C 
HETATM   39  C37 8UH Z1621     -50.058 143.764   9.286  1.00 71.39     0.020 C 
HETATM   40  C38 8UH Z1621     -46.645 146.370  11.559  1.00 71.39     0.044 C 
HETATM   41  C39 8UH Z1621     -45.512 143.571   7.305  1.00 27.99     0.048 C 
HETATM   42  C40 8UH Z1621     -42.360 139.468   6.717  1.00 27.99     0.048 C 
HETATM   43  O23 8UH Z1621     -51.240 146.700  12.940  1.00 71.39    -0.395 OA
ATOM     44  H23 8UH Z1621     -50.885 147.023  13.760  1.00  0.00     0.210 HD
ENDROOT
TORSDOF 12
