REMARK VINA RESULT:   -10.596      1.783     16.785
REMARK INTER + INTRA:         -10.741
REMARK INTER:                  -8.105
REMARK INTRA:                  -2.636
REMARK UNBOUND:                -0.146
REMARK  0 active torsions:
REMARK  status: ('A' for Active; 'I' for Inactive)
REMARK       I    between atoms: C3_3  and  O3_21 
REMARK       I    between atoms: C6_6  and  C7_7 
REMARK       I    between atoms: C8_8  and  C9_9 
REMARK       I    between atoms: C10_10  and  C11_11 
REMARK       I    between atoms: C12_12  and  C13_13 
REMARK       I    between atoms: C14_14  and  C15_15 
REMARK       I    between atoms: C23_25  and  O23_43 
REMARK       I    between atoms: C26_28  and  C27_29 
REMARK       I    between atoms: C28_30  and  C29_31 
REMARK       I    between atoms: C30_32  and  C31_33 
REMARK       I    between atoms: C32_34  and  C33_35 
REMARK       I    between atoms: C34_36  and  C35_37 
ROOT
HETATM    1  C1  8UH X1621     -47.493 147.244   9.709  1.00 31.86    -0.018 C 
HETATM    2  C2  8UH X1621     -48.993 147.030   9.933  1.00 31.86     0.045 C 
HETATM    3  C3  8UH X1621     -49.461 146.875  11.376  1.00 31.86     0.123 C 
HETATM    4  C4  8UH X1621     -48.432 147.407  12.364  1.00 31.86     0.066 C 
HETATM    5  C5  8UH X1621     -47.146 146.694  12.070  1.00 31.86    -0.074 C 
HETATM    6  C6  8UH X1621     -46.606 146.819  10.859  1.00 31.86    -0.048 C 
HETATM    7  C7  8UH X1621     -45.230 146.375  10.552  1.00 31.86     0.009 C 
HETATM    8  C8  8UH X1621     -44.724 145.323  11.202  1.00 31.86     0.007 C 
HETATM    9  C9  8UH X1621     -43.448 144.745  10.723  1.00 31.86    -0.062 C 
HETATM   10  C10 8UH X1621     -43.226 143.445  11.004  1.00 31.86     0.007 C 
HETATM   11  C11 8UH X1621     -42.101 142.687  10.461  1.00 31.86     0.001 C 
HETATM   12  C12 8UH X1621     -42.102 141.359  10.561  1.00 31.86     0.007 C 
HETATM   13  C13 8UH X1621     -41.034 140.537   9.950  1.00 31.86    -0.062 C 
HETATM   14  C14 8UH X1621     -41.194 139.197   9.975  1.00 31.86     0.007 C 
HETATM   15  C15 8UH X1621     -40.245 138.246   9.394  1.00 31.86     0.001 C 
HETATM   16  C16 8UH X1621     -47.223 148.736   9.530  1.00 31.86     0.020 C 
HETATM   17  C17 8UH X1621     -47.105 146.534   8.422  1.00 31.86     0.020 C 
HETATM   18  C18 8UH X1621     -46.338 146.862  13.327  1.00 31.86     0.044 C 
HETATM   19  C19 8UH X1621     -42.513 145.578   9.876  1.00 31.86     0.048 C 
HETATM   20  C20 8UH X1621     -39.855 141.230   9.312  1.00 31.86     0.048 C 
HETATM   21  O3  8UH X1621     -50.672 147.619  11.487  1.00 31.86    -0.395 OA
ATOM     22  H3  8UH X1621     -51.314 147.286  10.870  1.00  0.00     0.210 HD
HETATM   23  C21 8UH X1621     -34.527 126.848   6.298  1.00 27.99    -0.018 C 
HETATM   24  C22 8UH X1621     -33.667 126.592   5.053  1.00 27.99     0.045 C 
HETATM   25  C23 8UH X1621     -32.733 127.728   4.661  1.00 27.99     0.123 C 
HETATM   26  C24 8UH X1621     -32.112 128.302   5.920  1.00 27.99     0.066 C 
HETATM   27  C25 8UH X1621     -33.246 128.937   6.672  1.00 27.99    -0.074 C 
HETATM   28  C26 8UH X1621     -34.322 128.200   6.968  1.00 27.99    -0.048 C 
HETATM   29  C27 8UH X1621     -35.452 128.740   7.757  1.00 27.99     0.009 C 
HETATM   30  C28 8UH X1621     -35.798 130.019   7.559  1.00 27.99     0.007 C 
HETATM   31  C29 8UH X1621     -37.072 130.532   8.134  1.00 31.86    -0.062 C 
HETATM   32  C30 8UH X1621     -37.310 131.848   7.949  1.00 31.86     0.007 C 
HETATM   33  C31 8UH X1621     -38.477 132.553   8.479  1.00 31.86     0.001 C 
HETATM   34  C32 8UH X1621     -38.541 133.877   8.354  1.00 31.86     0.007 C 
HETATM   35  C33 8UH X1621     -39.651 134.661   8.936  1.00 31.86    -0.062 C 
HETATM   36  C34 8UH X1621     -39.535 136.004   8.887  1.00 31.86     0.007 C 
HETATM   37  C35 8UH X1621     -40.503 136.944   9.457  1.00 31.86     0.001 C 
HETATM   38  C36 8UH X1621     -34.093 125.850   7.374  1.00 27.99     0.020 C 
HETATM   39  C37 8UH X1621     -35.990 126.612   5.929  1.00 27.99     0.020 C 
HETATM   40  C38 8UH X1621     -32.742 130.041   7.560  1.00 27.99     0.044 C 
HETATM   41  C39 8UH X1621     -37.999 129.592   8.862  1.00 31.86     0.048 C 
HETATM   42  C40 8UH X1621     -40.802 133.939   9.587  1.00 31.86     0.048 C 
HETATM   43  O23 8UH X1621     -31.712 127.248   3.776  1.00 27.99    -0.395 OA
ATOM     44  H23 8UH X1621     -32.101 126.889   2.987  1.00  0.00     0.210 HD
ENDROOT
TORSDOF 12
