REMARK VINA RESULT:    -9.467      1.020      1.307
REMARK INTER + INTRA:         -12.305
REMARK INTER:                  -9.440
REMARK INTRA:                  -2.865
REMARK UNBOUND:                -2.838
REMARK  0 active torsions:
REMARK  status: ('A' for Active; 'I' for Inactive)
REMARK       I    between atoms: C3_3  and  O3_21 
REMARK       I    between atoms: C6_6  and  C7_7 
REMARK       I    between atoms: C8_8  and  C9_9 
REMARK       I    between atoms: C10_10  and  C11_11 
REMARK       I    between atoms: C12_12  and  C13_13 
REMARK       I    between atoms: C14_14  and  C15_15 
REMARK       I    between atoms: C23_25  and  O23_43 
REMARK       I    between atoms: C26_28  and  C27_29 
REMARK       I    between atoms: C28_30  and  C29_31 
REMARK       I    between atoms: C30_32  and  C31_33 
REMARK       I    between atoms: C32_34  and  C33_35 
REMARK       I    between atoms: C34_36  and  C35_37 
ROOT
HETATM    1  C1  8UH Y1621     -49.410 144.400  11.399  1.00 37.60    -0.018 C 
HETATM    2  C2  8UH Y1621     -50.369 145.008  12.408  1.00 37.60     0.045 C 
HETATM    3  C3  8UH Y1621     -49.747 145.853  13.495  1.00 37.60     0.123 C 
HETATM    4  C4  8UH Y1621     -48.814 146.860  12.873  1.00 37.60     0.066 C 
HETATM    5  C5  8UH Y1621     -47.811 146.224  11.960  1.00 37.60    -0.074 C 
HETATM    6  C6  8UH Y1621     -48.099 145.141  11.223  1.00 37.60    -0.048 C 
HETATM    7  C7  8UH Y1621     -47.166 144.655  10.170  1.00 37.60     0.009 C 
HETATM    8  C8  8UH Y1621     -46.107 143.879  10.425  1.00 37.60     0.007 C 
HETATM    9  C9  8UH Y1621     -45.212 143.403   9.368  1.00 37.60    -0.062 C 
HETATM   10  C10 8UH Y1621     -44.556 142.270   9.614  1.00 37.60     0.007 C 
HETATM   11  C11 8UH Y1621     -43.638 141.619   8.695  1.00 37.60     0.001 C 
HETATM   12  C12 8UH Y1621     -43.219 140.444   9.137  1.00 37.60     0.007 C 
HETATM   13  C13 8UH Y1621     -42.318 139.525   8.437  1.00 37.60    -0.062 C 
HETATM   14  C14 8UH Y1621     -41.886 138.451   9.103  1.00 37.60     0.007 C 
HETATM   15  C15 8UH Y1621     -41.023 137.479   8.453  1.00 37.60     0.001 C 
HETATM   16  C16 8UH Y1621     -50.194 144.267  10.103  1.00 37.60     0.020 C 
HETATM   17  C17 8UH Y1621     -49.039 143.013  11.866  1.00 37.60     0.020 C 
HETATM   18  C18 8UH Y1621     -46.614 147.089  11.711  1.00 37.60     0.044 C 
HETATM   19  C19 8UH Y1621     -45.046 144.154   8.090  1.00 37.60     0.048 C 
HETATM   20  C20 8UH Y1621     -41.915 139.769   7.019  1.00 37.60     0.048 C 
HETATM   21  O3  8UH Y1621     -50.787 146.588  14.138  1.00 37.60    -0.395 OA
ATOM     22  H3  8UH Y1621     -50.396 147.120  14.822  1.00  0.00     0.210 HD
HETATM   23  C21 8UH Y1621     -34.294 126.944   6.428  1.00 90.34    -0.018 C 
HETATM   24  C22 8UH Y1621     -33.848 126.219   5.163  1.00 90.34     0.045 C 
HETATM   25  C23 8UH Y1621     -32.946 126.969   4.196  1.00 90.34     0.123 C 
HETATM   26  C24 8UH Y1621     -32.029 127.930   4.925  1.00 90.34     0.066 C 
HETATM   27  C25 8UH Y1621     -32.889 128.855   5.735  1.00 90.34    -0.074 C 
HETATM   28  C26 8UH Y1621     -33.812 128.373   6.564  1.00 90.34    -0.048 C 
HETATM   29  C27 8UH Y1621     -34.388 129.200   7.654  1.00 90.34     0.009 C 
HETATM   30  C28 8UH Y1621     -35.356 130.086   7.408  1.00 90.34     0.007 C 
HETATM   31  C29 8UH Y1621     -35.982 130.905   8.433  1.00 37.60    -0.062 C 
HETATM   32  C30 8UH Y1621     -37.084 131.567   8.094  1.00 37.60     0.007 C 
HETATM   33  C31 8UH Y1621     -37.839 132.429   8.985  1.00 37.60     0.001 C 
HETATM   34  C32 8UH Y1621     -38.353 133.498   8.401  1.00 37.60     0.007 C 
HETATM   35  C33 8UH Y1621     -39.157 134.480   9.128  1.00 37.60    -0.062 C 
HETATM   36  C34 8UH Y1621     -39.624 135.543   8.474  1.00 37.60     0.007 C 
HETATM   37  C35 8UH Y1621     -40.451 136.522   9.162  1.00 37.60     0.001 C 
HETATM   38  C36 8UH Y1621     -33.829 126.093   7.604  1.00 90.34     0.020 C 
HETATM   39  C37 8UH Y1621     -35.809 127.002   6.427  1.00 90.34     0.020 C 
HETATM   40  C38 8UH Y1621     -32.091 130.078   6.065  1.00 90.34     0.044 C 
HETATM   41  C39 8UH Y1621     -35.394 130.983   9.804  1.00 37.60     0.048 C 
HETATM   42  C40 8UH Y1621     -39.460 134.265  10.572  1.00 37.60     0.048 C 
HETATM   43  O23 8UH Y1621     -32.139 126.011   3.512  1.00 90.34    -0.395 OA
ATOM     44  H23 8UH Y1621     -31.575 126.480   2.908  1.00  0.00     0.210 HD
ENDROOT
TORSDOF 12
