REMARK VINA RESULT:   -12.034      0.000      0.000
REMARK INTER + INTRA:         -14.303
REMARK INTER:                 -12.034
REMARK INTRA:                  -2.269
REMARK UNBOUND:                -2.269
REMARK  0 active torsions:
REMARK  status: ('A' for Active; 'I' for Inactive)
REMARK       I    between atoms: C3_3  and  O3_21 
REMARK       I    between atoms: C6_6  and  C7_7 
REMARK       I    between atoms: C8_8  and  C9_9 
REMARK       I    between atoms: C10_10  and  C11_11 
REMARK       I    between atoms: C12_12  and  C13_13 
REMARK       I    between atoms: C14_14  and  C15_15 
REMARK       I    between atoms: C23_25  and  O23_43 
REMARK       I    between atoms: C26_28  and  C27_29 
REMARK       I    between atoms: C28_30  and  C29_31 
REMARK       I    between atoms: C30_32  and  C31_33 
REMARK       I    between atoms: C32_34  and  C33_35 
REMARK       I    between atoms: C34_36  and  C35_37 
ROOT
HETATM    1  C1  8UH C2620     -49.296 144.799  12.002  1.00 23.07    -0.018 C 
HETATM    2  C2  8UH C2620     -49.917 145.423  13.266  1.00 21.39     0.045 C 
HETATM    3  C3  8UH C2620     -49.093 146.456  14.027  1.00 23.10     0.123 C 
HETATM    4  C4  8UH C2620     -48.119 147.258  13.160  1.00 23.25     0.066 C 
HETATM    5  C5  8UH C2620     -47.423 146.540  12.047  1.00 22.57    -0.074 C 
HETATM    6  C6  8UH C2620     -47.948 145.397  11.489  1.00 22.63    -0.048 C 
HETATM    7  C7  8UH C2620     -47.265 144.694  10.394  1.00 23.01     0.009 C 
HETATM    8  C8  8UH C2620     -46.199 143.881  10.522  1.00 21.85     0.007 C 
HETATM    9  C9  8UH C2620     -45.418 143.258   9.460  1.00 21.21    -0.062 C 
HETATM   10  C10 8UH C2620     -44.451 142.386   9.823  1.00 18.43     0.007 C 
HETATM   11  C11 8UH C2620     -43.591 141.643   8.948  1.00 19.90     0.001 C 
HETATM   12  C12 8UH C2620     -42.781 140.684   9.439  1.00 21.34     0.007 C 
HETATM   13  C13 8UH C2620     -41.876 139.791   8.702  1.00 23.03    -0.062 C 
HETATM   14  C14 8UH C2620     -41.234 138.832   9.406  1.00 23.84     0.007 C 
HETATM   15  C15 8UH C2620     -40.375 137.804   8.891  1.00 23.61     0.001 C 
HETATM   16  C16 8UH C2620     -50.394 145.004  10.942  1.00 21.40     0.020 C 
HETATM   17  C17 8UH C2620     -49.150 143.282  12.258  1.00 21.74     0.020 C 
HETATM   18  C18 8UH C2620     -46.178 147.283  11.712  1.00 21.99     0.044 C 
HETATM   19  C19 8UH C2620     -45.784 143.588   8.035  1.00 18.93     0.048 C 
HETATM   20  C20 8UH C2620     -41.771 139.953   7.213  1.00 19.82     0.048 C 
HETATM   21  O3  8UH C2620     -49.944 147.333  14.741  1.00 24.94    -0.395 OA
ATOM     22  H3  8UH C2620     -49.431 147.977  15.215  1.00  0.00     0.210 HD
HETATM   23  C21 8UH C2620     -34.319 127.124   6.616  1.00 33.20    -0.018 C 
HETATM   24  C22 8UH C2620     -33.995 126.733   5.181  1.00 33.20     0.045 C 
HETATM   25  C23 8UH C2620     -32.859 127.476   4.500  1.00 33.20     0.123 C 
HETATM   26  C24 8UH C2620     -31.766 127.810   5.471  1.00 33.20     0.066 C 
HETATM   27  C25 8UH C2620     -32.318 128.609   6.600  1.00 33.20    -0.074 C 
HETATM   28  C26 8UH C2620     -33.492 128.285   7.139  1.00 33.20    -0.048 C 
HETATM   29  C27 8UH C2620     -33.997 129.069   8.281  1.00 33.20     0.009 C 
HETATM   30  C28 8UH C2620     -34.807 130.093   8.063  1.00 33.20     0.007 C 
HETATM   31  C29 8UH C2620     -35.385 130.948   9.139  1.00 28.48    -0.062 C 
HETATM   32  C30 8UH C2620     -36.192 131.966   8.772  1.00 28.77     0.007 C 
HETATM   33  C31 8UH C2620     -36.875 132.872   9.655  1.00 29.15     0.001 C 
HETATM   34  C32 8UH C2620     -37.617 133.890   9.185  1.00 28.55     0.007 C 
HETATM   35  C33 8UH C2620     -38.367 134.902   9.932  1.00 27.96    -0.062 C 
HETATM   36  C34 8UH C2620     -39.017 135.847   9.219  1.00 26.60     0.007 C 
HETATM   37  C35 8UH C2620     -39.822 136.920   9.713  1.00 25.80     0.001 C 
HETATM   38  C36 8UH C2620     -34.164 125.863   7.459  1.00 33.20     0.020 C 
HETATM   39  C37 8UH C2620     -35.778 127.543   6.645  1.00 33.20     0.020 C 
HETATM   40  C38 8UH C2620     -31.445 129.716   7.102  1.00 33.20     0.044 C 
HETATM   41  C39 8UH C2620     -35.032 130.648  10.564  1.00 27.66     0.048 C 
HETATM   42  C40 8UH C2620     -38.351 134.825  11.434  1.00 25.55     0.048 C 
HETATM   43  O23 8UH C2620     -32.281 126.638   3.501  1.00 33.20    -0.395 OA
ATOM     44  H23 8UH C2620     -31.571 127.103   3.075  1.00  0.00     0.210 HD
ENDROOT
TORSDOF 12
