REMARK VINA RESULT:    -7.305      2.791      4.016
REMARK INTER + INTRA:          -8.475
REMARK INTER:                  -5.697
REMARK INTRA:                  -2.777
REMARK UNBOUND:                -1.169
REMARK  0 active torsions:
REMARK  status: ('A' for Active; 'I' for Inactive)
REMARK       I    between atoms: C3_3  and  O3_21 
REMARK       I    between atoms: C6_6  and  C7_7 
REMARK       I    between atoms: C8_8  and  C9_9 
REMARK       I    between atoms: C10_10  and  C11_11 
REMARK       I    between atoms: C12_12  and  C13_13 
REMARK       I    between atoms: C14_14  and  C15_15 
REMARK       I    between atoms: C23_25  and  O23_43 
REMARK       I    between atoms: C26_28  and  C27_29 
REMARK       I    between atoms: C28_30  and  C29_31 
REMARK       I    between atoms: C30_32  and  C31_33 
REMARK       I    between atoms: C32_34  and  C33_35 
REMARK       I    between atoms: C34_36  and  C35_37 
ROOT
HETATM    1  C1  8UH 2 615     -45.264 149.949   9.491  1.00 79.94    -0.018 C 
HETATM    2  C2  8UH 2 615     -46.506 150.794   9.214  1.00 79.60     0.045 C 
HETATM    3  C3  8UH 2 615     -47.785 150.333   9.896  1.00 80.06     0.123 C 
HETATM    4  C4  8UH 2 615     -47.523 150.094  11.370  1.00 79.91     0.066 C 
HETATM    5  C5  8UH 2 615     -46.438 149.062  11.516  1.00 78.96    -0.074 C 
HETATM    6  C6  8UH 2 615     -45.364 149.066  10.721  1.00 78.99    -0.048 C 
HETATM    7  C7  8UH 2 615     -44.224 148.181  11.054  1.00 78.77     0.009 C 
HETATM    8  C8  8UH 2 615     -44.251 146.886  10.735  1.00 79.10     0.007 C 
HETATM    9  C9  8UH 2 615     -43.130 145.983  11.058  1.00 80.39    -0.062 C 
HETATM   10  C10 8UH 2 615     -43.238 144.687  10.731  1.00 81.39     0.007 C 
HETATM   11  C11 8UH 2 615     -42.189 143.706  11.000  1.00 81.92     0.001 C 
HETATM   12  C12 8UH 2 615     -42.383 142.468  10.552  1.00 82.76     0.007 C 
HETATM   13  C13 8UH 2 615     -41.400 141.385  10.739  1.00 83.90    -0.062 C 
HETATM   14  C14 8UH 2 615     -41.532 140.280   9.990  1.00 84.98     0.007 C 
HETATM   15  C15 8UH 2 615     -40.604 139.156  10.070  1.00 86.34     0.001 C 
HETATM   16  C16 8UH 2 615     -44.082 150.894   9.658  1.00 79.93     0.020 C 
HETATM   17  C17 8UH 2 615     -45.018 149.042   8.290  1.00 80.89     0.020 C 
HETATM   18  C18 8UH 2 615     -46.409 148.359  12.841  1.00 77.35     0.044 C 
HETATM   19  C19 8UH 2 615     -41.904 146.507  11.745  1.00 80.43     0.048 C 
HETATM   20  C20 8UH 2 615     -40.286 141.519  11.735  1.00 83.80     0.048 C 
HETATM   21  O3  8UH 2 615     -48.786 151.349   9.757  1.00 80.93    -0.395 OA
ATOM     22  H3  8UH 2 615     -49.585 151.062  10.183  1.00  0.00     0.210 HD
HETATM   23  C21 8UH 2 615     -34.565 128.800   6.539  1.00 48.79    -0.018 C 
HETATM   24  C22 8UH 2 615     -33.310 128.277   7.224  1.00 49.38     0.045 C 
HETATM   25  C23 8UH 2 615     -33.384 126.886   7.850  1.00 51.85     0.123 C 
HETATM   26  C24 8UH 2 615     -34.662 126.645   8.634  1.00 54.16     0.066 C 
HETATM   27  C25 8UH 2 615     -35.866 127.417   8.168  1.00 52.93    -0.074 C 
HETATM   28  C26 8UH 2 615     -35.816 128.472   7.338  1.00 53.44    -0.048 C 
HETATM   29  C27 8UH 2 615     -37.014 129.338   7.164  1.00 56.18     0.009 C 
HETATM   30  C28 8UH 2 615     -37.152 130.498   7.811  1.00 54.04     0.007 C 
HETATM   31  C29 8UH 2 615     -38.314 131.378   7.641  1.00 89.92    -0.062 C 
HETATM   32  C30 8UH 2 615     -38.280 132.590   8.213  1.00 89.40     0.007 C 
HETATM   33  C31 8UH 2 615     -39.363 133.559   8.096  1.00 87.93     0.001 C 
HETATM   34  C32 8UH 2 615     -39.170 134.736   8.682  1.00 87.59     0.007 C 
HETATM   35  C33 8UH 2 615     -40.158 135.828   8.638  1.00 88.80    -0.062 C 
HETATM   36  C34 8UH 2 615     -39.903 136.960   9.313  1.00 88.99     0.007 C 
HETATM   37  C35 8UH 2 615     -40.820 138.096   9.292  1.00 88.02     0.001 C 
HETATM   38  C36 8UH 2 615     -34.661 128.218   5.138  1.00 50.92     0.020 C 
HETATM   39  C37 8UH 2 615     -34.428 130.312   6.396  1.00 48.05     0.020 C 
HETATM   40  C38 8UH 2 615     -36.971 127.235   9.157  1.00 55.82     0.044 C 
HETATM   41  C39 8UH 2 615     -39.503 130.936   6.839  1.00 89.99     0.048 C 
HETATM   42  C40 8UH 2 615     -41.418 135.676   7.839  1.00 89.61     0.048 C 
HETATM   43  O23 8UH 2 615     -33.197 125.850   6.876  1.00 50.70    -0.395 OA
ATOM     44  H23 8UH 2 615     -33.243 124.985   7.265  1.00  0.00     0.210 HD
ENDROOT
TORSDOF 12
