REMARK VINA RESULT:   -11.587      1.391     16.642
REMARK INTER + INTRA:         -11.858
REMARK INTER:                  -7.762
REMARK INTRA:                  -4.096
REMARK UNBOUND:                -0.271
REMARK  0 active torsions:
REMARK  status: ('A' for Active; 'I' for Inactive)
REMARK       I    between atoms: C3_3  and  O3_21 
REMARK       I    between atoms: C6_6  and  C7_7 
REMARK       I    between atoms: C8_8  and  C9_9 
REMARK       I    between atoms: C10_10  and  C11_11 
REMARK       I    between atoms: C12_12  and  C13_13 
REMARK       I    between atoms: C14_14  and  C15_15 
REMARK       I    between atoms: C23_25  and  O23_43 
REMARK       I    between atoms: C26_28  and  C27_29 
REMARK       I    between atoms: C28_30  and  C29_31 
REMARK       I    between atoms: C30_32  and  C31_33 
REMARK       I    between atoms: C32_34  and  C33_35 
REMARK       I    between atoms: C34_36  and  C35_37 
ROOT
HETATM    1  C1  8UH S1621     -34.342 126.857   5.812  1.00 98.50    -0.018 C 
HETATM    2  C2  8UH S1621     -33.610 125.959   4.835  1.00 95.05     0.045 C 
HETATM    3  C3  8UH S1621     -32.761 126.755   3.869  1.00 91.19     0.123 C 
HETATM    4  C4  8UH S1621     -31.726 127.573   4.612  1.00 95.39     0.066 C 
HETATM    5  C5  8UH S1621     -32.186 128.108   5.942  1.00 94.24    -0.074 C 
HETATM    6  C6  8UH S1621     -33.423 127.895   6.446  1.00 98.17    -0.048 C 
HETATM    7  C7  8UH S1621     -33.923 128.616   7.654  1.00 96.30     0.009 C 
HETATM    8  C8  8UH S1621     -34.490 129.827   7.601  1.00 99.74     0.007 C 
HETATM    9  C9  8UH S1621     -35.020 130.558   8.752  1.00 91.17    -0.062 C 
HETATM   10  C10 8UH S1621     -35.764 131.618   8.440  1.00 97.68     0.007 C 
HETATM   11  C11 8UH S1621     -36.414 132.468   9.417  1.00 98.02     0.001 C 
HETATM   12  C12 8UH S1621     -37.348 133.239   8.895  1.00 91.18     0.007 C 
HETATM   13  C13 8UH S1621     -38.165 134.158   9.687  1.00 90.92    -0.062 C 
HETATM   14  C14 8UH S1621     -39.066 134.869   9.015  1.00 96.50     0.007 C 
HETATM   15  C15 8UH S1621     -39.974 135.812   9.632  1.00 99.38     0.001 C 
HETATM   16  C16 8UH S1621     -35.023 125.911   6.789  1.00 90.00     0.020 C 
HETATM   17  C17 8UH S1621     -35.434 127.627   5.096  1.00 93.85     0.020 C 
HETATM   18  C18 8UH S1621     -31.339 129.288   6.300  1.00 91.76     0.044 C 
HETATM   19  C19 8UH S1621     -34.759 130.142  10.168  1.00 90.99     0.048 C 
HETATM   20  C20 8UH S1621     -38.000 134.266  11.172  1.00 93.33     0.048 C 
HETATM   21  O3  8UH S1621     -32.069 125.850   3.009  1.00 92.07    -0.395 OA
ATOM     22  H3  8UH S1621     -31.536 126.350   2.402  1.00  0.00     0.210 HD
HETATM   23  C21 8UH S1621     -49.269 144.561  10.504  1.00 98.00    -0.022 C 
HETATM   24  C22 8UH S1621     -49.777 145.859  11.122  1.00 98.00     0.045 C 
HETATM   25  C23 8UH S1621     -49.211 146.157  12.508  1.00 98.00     0.119 C 
HETATM   26  C24 8UH S1621     -47.693 146.074  12.505  1.00 98.00     0.040 C 
HETATM   27  C25 8UH S1621     -47.309 144.730  11.954  1.00 98.00     0.013 C 
HETATM   28  C26 8UH S1621     -47.803 144.357  10.784  1.00 98.00    -0.068 C 
HETATM   29  C27 8UH S1621     -46.924 143.780   9.757  1.00 98.00     0.004 C 
HETATM   30  C28 8UH S1621     -46.335 142.617  10.003  1.00 98.00     0.007 C 
HETATM   31  C29 8UH S1621     -45.473 141.986   9.000  1.00 98.43    -0.062 C 
HETATM   32  C30 8UH S1621     -44.889 140.859   9.379  1.00 92.06     0.007 C 
HETATM   33  C31 8UH S1621     -44.010 140.074   8.538  1.00 98.99     0.001 C 
HETATM   34  C32 8UH S1621     -43.239 139.254   9.226  1.00 98.35     0.007 C 
HETATM   35  C33 8UH S1621     -42.293 138.342   8.591  1.00 93.74    -0.062 C 
HETATM   36  C34 8UH S1621     -41.493 137.635   9.385  1.00 95.45     0.007 C 
HETATM   37  C35 8UH S1621     -40.553 136.686   8.826  1.00 96.56     0.001 C 
HETATM   38  C36 8UH S1621     -49.526 144.593   9.003  1.00 98.00     0.019 C 
HETATM   39  C37 8UH S1621     -50.009 143.369  11.092  1.00 98.00     0.019 C 
HETATM   40  C38 8UH S1621     -46.047 145.541  12.036  1.00 98.00     0.015 C 
HETATM   41  C39 8UH S1621     -45.268 142.577   7.639  1.00 93.10     0.048 C 
HETATM   42  C40 8UH S1621     -42.267 138.202   7.102  1.00 95.49     0.048 C 
HETATM   43  O23 8UH S1621     -49.616 147.462  12.929  1.00 98.00    -0.396 OA
ATOM     44  H23 8UH S1621     -50.565 147.513  12.932  1.00  0.00     0.210 HD
ENDROOT
TORSDOF 12
