REMARK VINA RESULT:   -11.780      1.410     16.461
REMARK INTER + INTRA:         -11.889
REMARK INTER:                  -9.127
REMARK INTRA:                  -2.762
REMARK UNBOUND:                -0.110
REMARK  0 active torsions:
REMARK  status: ('A' for Active; 'I' for Inactive)
REMARK       I    between atoms: C3_3  and  O3_21 
REMARK       I    between atoms: C6_6  and  C7_7 
REMARK       I    between atoms: C8_8  and  C9_9 
REMARK       I    between atoms: C10_10  and  C11_11 
REMARK       I    between atoms: C12_12  and  C13_13 
REMARK       I    between atoms: C14_14  and  C15_15 
REMARK       I    between atoms: C23_25  and  O23_43 
REMARK       I    between atoms: C26_28  and  C27_29 
REMARK       I    between atoms: C28_30  and  C29_31 
REMARK       I    between atoms: C30_32  and  C31_33 
REMARK       I    between atoms: C32_34  and  C33_35 
REMARK       I    between atoms: C34_36  and  C35_37 
ROOT
HETATM    1  C1  8UH 61620     -34.480 128.102   6.547  1.00 97.95    -0.018 C 
HETATM    2  C2  8UH 61620     -33.675 127.829   5.282  1.00 97.95     0.045 C 
HETATM    3  C3  8UH 61620     -32.290 128.446   5.188  1.00 97.95     0.123 C 
HETATM    4  C4  8UH 61620     -31.594 128.458   6.529  1.00 97.95     0.066 C 
HETATM    5  C5  8UH 61620     -32.455 129.188   7.516  1.00 97.95    -0.074 C 
HETATM    6  C6  8UH 61620     -33.780 129.000   7.549  1.00 97.95    -0.048 C 
HETATM    7  C7  8UH 61620     -34.610 129.670   8.579  1.00 97.95     0.009 C 
HETATM    8  C8  8UH 61620     -35.128 130.879   8.372  1.00 97.95     0.007 C 
HETATM    9  C9  8UH 61620     -35.965 131.558   9.363  1.00 97.95    -0.062 C 
HETATM   10  C10 8UH 61620     -36.494 132.722   8.998  1.00 97.95     0.007 C 
HETATM   11  C11 8UH 61620     -37.358 133.514   9.855  1.00 97.95     0.001 C 
HETATM   12  C12 8UH 61620     -37.771 134.642   9.304  1.00 97.95     0.007 C 
HETATM   13  C13 8UH 61620     -38.675 135.586   9.971  1.00 97.95    -0.062 C 
HETATM   14  C14 8UH 61620     -39.248 136.486   9.173  1.00 97.95     0.007 C 
HETATM   15  C15 8UH 61620     -40.202 137.472   9.643  1.00 97.95     0.001 C 
HETATM   16  C16 8UH 61620     -34.821 126.745   7.156  1.00 97.95     0.020 C 
HETATM   17  C17 8UH 61620     -35.775 128.795   6.142  1.00 97.95     0.020 C 
HETATM   18  C18 8UH 61620     -31.724 130.021   8.527  1.00 97.95     0.044 C 
HETATM   19  C19 8UH 61620     -36.211 130.961  10.715  1.00 97.95     0.048 C 
HETATM   20  C20 8UH 61620     -38.950 135.532  11.442  1.00 97.95     0.048 C 
HETATM   21  O3  8UH 61620     -31.495 127.670   4.284  1.00 97.95    -0.395 OA
ATOM     22  H3  8UH 61620     -30.629 128.056   4.226  1.00  0.00     0.210 HD
HETATM   23  C21 8UH 61620     -50.040 145.112   9.223  1.00 25.46    -0.018 C 
HETATM   24  C22 8UH 61620     -50.877 145.730  10.340  1.00 25.46     0.045 C 
HETATM   25  C23 8UH 61620     -50.183 146.720  11.258  1.00 25.46     0.123 C 
HETATM   26  C24 8UH 61620     -49.236 147.591  10.464  1.00 25.46     0.066 C 
HETATM   27  C25 8UH 61620     -48.222 146.686   9.827  1.00 25.46    -0.074 C 
HETATM   28  C26 8UH 61620     -48.613 145.619   9.122  1.00 25.46    -0.048 C 
HETATM   29  C27 8UH 61620     -47.670 144.937   8.189  1.00 25.46     0.009 C 
HETATM   30  C28 8UH 61620     -46.826 143.989   8.605  1.00 25.46     0.007 C 
HETATM   31  C29 8UH 61620     -45.886 143.282   7.739  1.00 97.95    -0.062 C 
HETATM   32  C30 8UH 61620     -45.140 142.357   8.335  1.00 97.95     0.007 C 
HETATM   33  C31 8UH 61620     -44.156 141.524   7.673  1.00 97.95     0.001 C 
HETATM   34  C32 8UH 61620     -43.551 140.701   8.511  1.00 97.95     0.007 C 
HETATM   35  C33 8UH 61620     -42.525 139.750   8.092  1.00 97.95    -0.062 C 
HETATM   36  C34 8UH 61620     -41.976 138.991   9.040  1.00 97.95     0.007 C 
HETATM   37  C35 8UH 61620     -40.962 138.011   8.702  1.00 97.95     0.001 C 
HETATM   38  C36 8UH 61620     -50.803 145.313   7.918  1.00 25.46     0.020 C 
HETATM   39  C37 8UH 61620     -49.931 143.627   9.510  1.00 25.46     0.020 C 
HETATM   40  C38 8UH 61620     -46.972 147.441   9.507  1.00 25.46     0.044 C 
HETATM   41  C39 8UH 61620     -45.784 143.575   6.273  1.00 97.95     0.048 C 
HETATM   42  C40 8UH 61620     -42.117 139.643   6.657  1.00 97.95     0.048 C 
HETATM   43  O23 8UH 61620     -51.179 147.545  11.868  1.00 25.46    -0.395 OA
ATOM     44  H23 8UH 61620     -51.774 146.998  12.367  1.00  0.00     0.210 HD
ENDROOT
TORSDOF 12
