REMARK VINA RESULT:    -8.444      2.635      3.933
REMARK INTER + INTRA:          -8.573
REMARK INTER:                  -6.107
REMARK INTRA:                  -2.465
REMARK UNBOUND:                -0.128
REMARK  0 active torsions:
REMARK  status: ('A' for Active; 'I' for Inactive)
REMARK       I    between atoms: C3_3  and  O3_21 
REMARK       I    between atoms: C6_6  and  C7_7 
REMARK       I    between atoms: C8_8  and  C9_9 
REMARK       I    between atoms: C10_10  and  C11_11 
REMARK       I    between atoms: C12_12  and  C13_13 
REMARK       I    between atoms: C14_14  and  C15_15 
REMARK       I    between atoms: C23_25  and  O23_43 
REMARK       I    between atoms: C26_28  and  C27_29 
REMARK       I    between atoms: C28_30  and  C29_31 
REMARK       I    between atoms: C30_32  and  C31_33 
REMARK       I    between atoms: C32_34  and  C33_35 
REMARK       I    between atoms: C34_36  and  C35_37 
ROOT
HETATM    1  C1  8UH 2 617     -50.028 147.720  11.800  1.00 73.56    -0.018 C 
HETATM    2  C2  8UH 2 617     -49.974 148.832  12.851  1.00 73.56     0.045 C 
HETATM    3  C3  8UH 2 617     -49.274 150.140  12.488  1.00 73.56     0.123 C 
HETATM    4  C4  8UH 2 617     -49.391 150.441  11.002  1.00 73.56     0.066 C 
HETATM    5  C5  8UH 2 617     -48.826 149.263  10.257  1.00 73.56    -0.074 C 
HETATM    6  C6  8UH 2 617     -49.273 148.028  10.516  1.00 73.56    -0.048 C 
HETATM    7  C7  8UH 2 617     -49.065 146.941   9.528  1.00 73.56     0.009 C 
HETATM    8  C8  8UH 2 617     -47.938 146.225   9.467  1.00 73.56     0.007 C 
HETATM    9  C9  8UH 2 617     -47.765 145.148   8.473  1.00 73.56    -0.062 C 
HETATM   10  C10 8UH 2 617     -46.749 144.289   8.632  1.00 73.56     0.007 C 
HETATM   11  C11 8UH 2 617     -46.478 143.188   7.710  1.00 73.56     0.001 C 
HETATM   12  C12 8UH 2 617     -45.295 142.587   7.806  1.00 73.56     0.007 C 
HETATM   13  C13 8UH 2 617     -44.893 141.456   6.949  1.00 73.56    -0.062 C 
HETATM   14  C14 8UH 2 617     -43.904 140.668   7.388  1.00 73.56     0.007 C 
HETATM   15  C15 8UH 2 617     -43.412 139.501   6.664  1.00 73.56     0.001 C 
HETATM   16  C16 8UH 2 617     -51.501 147.434  11.510  1.00 73.56     0.020 C 
HETATM   17  C17 8UH 2 617     -49.396 146.469  12.396  1.00 73.56     0.020 C 
HETATM   18  C18 8UH 2 617     -48.483 149.697   8.860  1.00 73.56     0.044 C 
HETATM   19  C19 8UH 2 617     -48.705 145.026   7.313  1.00 73.56     0.048 C 
HETATM   20  C20 8UH 2 617     -45.565 141.201   5.631  1.00 73.56     0.048 C 
HETATM   21  O3  8UH 2 617     -49.868 151.209  13.234  1.00 73.56    -0.395 OA
ATOM     22  H3  8UH 2 617     -49.795 151.021  14.162  1.00  0.00     0.210 HD
HETATM   23  C21 8UH 2 617     -37.249 128.150   8.087  1.00 23.68    -0.018 C 
HETATM   24  C22 8UH 2 617     -36.909 126.944   7.216  1.00 23.68     0.045 C 
HETATM   25  C23 8UH 2 617     -35.840 127.099   6.142  1.00 23.68     0.123 C 
HETATM   26  C24 8UH 2 617     -34.830 128.172   6.500  1.00 23.68     0.066 C 
HETATM   27  C25 8UH 2 617     -35.571 129.444   6.799  1.00 23.68    -0.074 C 
HETATM   28  C26 8UH 2 617     -36.580 129.451   7.674  1.00 23.68    -0.048 C 
HETATM   29  C27 8UH 2 617     -37.043 130.723   8.292  1.00 23.68     0.009 C 
HETATM   30  C28 8UH 2 617     -37.919 131.544   7.705  1.00 23.68     0.007 C 
HETATM   31  C29 8UH 2 617     -38.384 132.804   8.324  1.00 73.56    -0.062 C 
HETATM   32  C30 8UH 2 617     -39.250 133.549   7.624  1.00 73.56     0.007 C 
HETATM   33  C31 8UH 2 617     -39.804 134.811   8.101  1.00 73.56     0.001 C 
HETATM   34  C32 8UH 2 617     -40.626 135.481   7.295  1.00 73.56     0.007 C 
HETATM   35  C33 8UH 2 617     -41.238 136.754   7.711  1.00 73.56    -0.062 C 
HETATM   36  C34 8UH 2 617     -42.079 137.425   6.903  1.00 73.56     0.007 C 
HETATM   37  C35 8UH 2 617     -42.669 138.673   7.389  1.00 73.56     0.001 C 
HETATM   38  C36 8UH 2 617     -36.877 127.767   9.509  1.00 23.68     0.020 C 
HETATM   39  C37 8UH 2 617     -38.752 128.376   8.019  1.00 23.68     0.020 C 
HETATM   40  C38 8UH 2 617     -34.630 130.604   6.684  1.00 23.68     0.044 C 
HETATM   41  C39 8UH 2 617     -37.906 133.231   9.680  1.00 73.56     0.048 C 
HETATM   42  C40 8UH 2 617     -40.905 137.291   9.069  1.00 73.56     0.048 C 
HETATM   43  O23 8UH 2 617     -35.162 125.850   5.998  1.00 23.68    -0.395 OA
ATOM     44  H23 8UH 2 617     -34.495 125.948   5.329  1.00  0.00     0.210 HD
ENDROOT
TORSDOF 12
