REMARK VINA RESULT:   -11.240      0.000      0.000
REMARK INTER + INTRA:         -13.847
REMARK INTER:                 -11.240
REMARK INTRA:                  -2.607
REMARK UNBOUND:                -2.607
REMARK  0 active torsions:
REMARK  status: ('A' for Active; 'I' for Inactive)
REMARK       I    between atoms: C3_3  and  O3_21 
REMARK       I    between atoms: C6_6  and  C7_7 
REMARK       I    between atoms: C8_8  and  C9_9 
REMARK       I    between atoms: C10_10  and  C11_11 
REMARK       I    between atoms: C12_12  and  C13_13 
REMARK       I    between atoms: C14_14  and  C15_15 
REMARK       I    between atoms: C23_25  and  O23_43 
REMARK       I    between atoms: C26_28  and  C27_29 
REMARK       I    between atoms: C28_30  and  C29_31 
REMARK       I    between atoms: C30_32  and  C31_33 
REMARK       I    between atoms: C32_34  and  C33_35 
REMARK       I    between atoms: C34_36  and  C35_37 
ROOT
HETATM    1  C1  8UH W1620     -33.668 129.229   7.096  1.00 24.23    -0.018 C 
HETATM    2  C2  8UH W1620     -32.865 129.921   6.016  1.00 24.23     0.045 C 
HETATM    3  C3  8UH W1620     -32.130 131.146   6.490  1.00 24.23     0.123 C 
HETATM    4  C4  8UH W1620     -31.236 130.683   7.604  1.00 24.23     0.066 C 
HETATM    5  C5  8UH W1620     -32.065 130.157   8.729  1.00 24.23    -0.074 C 
HETATM    6  C6  8UH W1620     -33.285 129.694   8.486  1.00 24.23    -0.048 C 
HETATM    7  C7  8UH W1620     -34.369 129.976   9.418  1.00 24.23     0.009 C 
HETATM    8  C8  8UH W1620     -34.841 131.193   9.123  1.00 24.23     0.007 C 
HETATM    9  C9  8UH W1620     -35.952 131.835   9.848  1.00 24.23    -0.062 C 
HETATM   10  C10 8UH W1620     -36.360 133.041   9.413  1.00 24.23     0.007 C 
HETATM   11  C11 8UH W1620     -37.469 133.769  10.011  1.00 24.23     0.001 C 
HETATM   12  C12 8UH W1620     -37.859 134.931   9.498  1.00 24.23     0.007 C 
HETATM   13  C13 8UH W1620     -39.021 135.622  10.068  1.00 24.23    -0.062 C 
HETATM   14  C14 8UH W1620     -39.470 136.696   9.411  1.00 24.23     0.007 C 
HETATM   15  C15 8UH W1620     -40.650 137.471   9.767  1.00 24.23     0.001 C 
HETATM   16  C16 8UH W1620     -33.461 127.746   6.865  1.00 24.23     0.020 C 
HETATM   17  C17 8UH W1620     -35.135 129.558   6.889  1.00 24.23     0.020 C 
HETATM   18  C18 8UH W1620     -31.722 131.033   9.889  1.00 24.23     0.044 C 
HETATM   19  C19 8UH W1620     -36.586 131.137  11.012  1.00 24.23     0.048 C 
HETATM   20  C20 8UH W1620     -39.679 135.046  11.278  1.00 24.23     0.048 C 
HETATM   21  O3  8UH W1620     -31.308 131.629   5.435  1.00 24.23    -0.395 OA
ATOM     22  H3  8UH W1620     -31.874 131.922   4.731  1.00  0.00     0.210 HD
HETATM   23  C21 8UH W1620     -50.569 144.904   8.934  1.00 79.00    -0.018 C 
HETATM   24  C22 8UH W1620     -51.586 144.792  10.070  1.00 79.55     0.045 C 
HETATM   25  C23 8UH W1620     -51.231 145.477  11.384  1.00 80.08     0.123 C 
HETATM   26  C24 8UH W1620     -50.479 146.778  11.149  1.00 79.64     0.066 C 
HETATM   27  C25 8UH W1620     -49.263 146.527  10.297  1.00 79.19    -0.074 C 
HETATM   28  C26 8UH W1620     -49.294 145.617   9.322  1.00 79.31    -0.048 C 
HETATM   29  C27 8UH W1620     -48.053 145.260   8.601  1.00 78.64     0.009 C 
HETATM   30  C28 8UH W1620     -47.305 144.248   9.037  1.00 77.62     0.007 C 
HETATM   31  C29 8UH W1620     -46.057 143.836   8.354  1.00 24.23    -0.062 C 
HETATM   32  C30 8UH W1620     -45.466 142.732   8.844  1.00 24.23     0.007 C 
HETATM   33  C31 8UH W1620     -44.249 142.110   8.324  1.00 24.23     0.001 C 
HETATM   34  C32 8UH W1620     -43.789 141.017   8.931  1.00 24.23     0.007 C 
HETATM   35  C33 8UH W1620     -42.572 140.312   8.491  1.00 24.23    -0.062 C 
HETATM   36  C34 8UH W1620     -42.178 139.258   9.224  1.00 24.23     0.007 C 
HETATM   37  C35 8UH W1620     -40.996 138.452   8.946  1.00 24.23     0.001 C 
HETATM   38  C36 8UH W1620     -51.206 145.655   7.769  1.00 78.31     0.020 C 
HETATM   39  C37 8UH W1620     -50.194 143.494   8.492  1.00 77.27     0.020 C 
HETATM   40  C38 8UH W1620     -47.961 147.116  10.755  1.00 78.52     0.044 C 
HETATM   41  C39 8UH W1620     -45.559 144.599   7.160  1.00 24.23     0.048 C 
HETATM   42  C40 8UH W1620     -41.857 140.782   7.259  1.00 24.23     0.048 C 
HETATM   43  O23 8UH W1620     -52.449 145.771  12.081  1.00 80.30    -0.395 OA
ATOM     44  H23 8UH W1620     -52.918 144.958  12.228  1.00  0.00     0.210 HD
ENDROOT
TORSDOF 12
