REMARK VINA RESULT:    -6.159      2.130      2.870
REMARK INTER + INTRA:          -9.199
REMARK INTER:                  -6.863
REMARK INTRA:                  -2.336
REMARK UNBOUND:                -3.040
REMARK  0 active torsions:
REMARK  status: ('A' for Active; 'I' for Inactive)
REMARK       I    between atoms: C3_3  and  O3_21 
REMARK       I    between atoms: C6_6  and  C7_7 
REMARK       I    between atoms: C8_8  and  C9_9 
REMARK       I    between atoms: C10_10  and  C11_11 
REMARK       I    between atoms: C12_12  and  C13_13 
REMARK       I    between atoms: C14_14  and  C15_15 
REMARK       I    between atoms: C23_25  and  O23_43 
REMARK       I    between atoms: C26_28  and  C27_29 
REMARK       I    between atoms: C28_30  and  C29_31 
REMARK       I    between atoms: C30_32  and  C31_33 
REMARK       I    between atoms: C32_34  and  C33_35 
REMARK       I    between atoms: C34_36  and  C35_37 
ROOT
HETATM    1  C1  8UH A 620     -50.335 144.642   9.021  1.00 22.96    -0.018 C 
HETATM    2  C2  8UH A 620     -51.560 145.097   9.846  1.00 23.40     0.045 C 
HETATM    3  C3  8UH A 620     -51.332 145.916  11.115  1.00 22.69     0.123 C 
HETATM    4  C4  8UH A 620     -50.071 146.778  11.083  1.00 22.06     0.066 C 
HETATM    5  C5  8UH A 620     -48.877 146.280  10.340  1.00 21.38    -0.074 C 
HETATM    6  C6  8UH A 620     -48.962 145.295   9.378  1.00 22.58    -0.048 C 
HETATM    7  C7  8UH A 620     -47.764 144.832   8.649  1.00 22.00     0.009 C 
HETATM    8  C8  8UH A 620     -46.806 143.991   9.087  1.00 20.93     0.007 C 
HETATM    9  C9  8UH A 620     -45.560 143.662   8.391  1.00 21.87    -0.062 C 
HETATM   10  C10 8UH A 620     -44.764 142.709   8.928  1.00 20.24     0.007 C 
HETATM   11  C11 8UH A 620     -43.512 142.234   8.395  1.00 21.04     0.001 C 
HETATM   12  C12 8UH A 620     -42.925 141.147   8.919  1.00 22.18     0.007 C 
HETATM   13  C13 8UH A 620     -41.690 140.456   8.523  1.00 24.17    -0.062 C 
HETATM   14  C14 8UH A 620     -41.401 139.304   9.167  1.00 25.88     0.007 C 
HETATM   15  C15 8UH A 620     -40.319 138.389   8.936  1.00 26.51     0.001 C 
HETATM   16  C16 8UH A 620     -50.724 144.986   7.571  1.00 20.65     0.020 C 
HETATM   17  C17 8UH A 620     -50.248 143.108   9.133  1.00 21.73     0.020 C 
HETATM   18  C18 8UH A 620     -47.696 147.046  10.824  1.00 21.05     0.044 C 
HETATM   19  C19 8UH A 620     -45.278 144.371   7.095  1.00 19.19     0.048 C 
HETATM   20  C20 8UH A 620     -40.881 141.025   7.395  1.00 21.80     0.048 C 
HETATM   21  O3  8UH A 620     -52.467 146.721  11.397  1.00 22.00    -0.395 OA
ATOM     22  H3  8UH A 620     -52.325 147.230  12.186  1.00  0.00     0.210 HD
HETATM   23  C21 8UH A 620     -33.197 129.054   7.039  1.00 42.32    -0.018 C 
HETATM   24  C22 8UH A 620     -33.048 130.072   5.912  1.00 42.32     0.045 C 
HETATM   25  C23 8UH A 620     -32.214 131.299   6.265  1.00 42.32     0.123 C 
HETATM   26  C24 8UH A 620     -31.094 130.920   7.214  1.00 42.32     0.066 C 
HETATM   27  C25 8UH A 620     -31.704 130.371   8.475  1.00 42.32    -0.074 C 
HETATM   28  C26 8UH A 620     -32.810 129.633   8.379  1.00 42.32    -0.048 C 
HETATM   29  C27 8UH A 620     -33.857 129.708   9.402  1.00 42.32     0.009 C 
HETATM   30  C28 8UH A 620     -34.542 130.834   9.151  1.00 42.32     0.007 C 
HETATM   31  C29 8UH A 620     -35.742 131.291   9.923  1.00 37.91    -0.062 C 
HETATM   32  C30 8UH A 620     -36.312 132.456   9.546  1.00 37.54     0.007 C 
HETATM   33  C31 8UH A 620     -37.466 133.094  10.127  1.00 35.36     0.001 C 
HETATM   34  C32 8UH A 620     -37.900 134.280   9.656  1.00 32.59     0.007 C 
HETATM   35  C33 8UH A 620     -39.025 135.118  10.096  1.00 30.48    -0.062 C 
HETATM   36  C34 8UH A 620     -39.226 136.282   9.442  1.00 28.06     0.007 C 
HETATM   37  C35 8UH A 620     -40.247 137.265   9.667  1.00 27.79     0.001 C 
HETATM   38  C36 8UH A 620     -32.327 127.847   6.716  1.00 42.32     0.020 C 
HETATM   39  C37 8UH A 620     -34.653 128.622   7.133  1.00 42.32     0.020 C 
HETATM   40  C38 8UH A 620     -31.392 131.259   9.644  1.00 42.32     0.044 C 
HETATM   41  C39 8UH A 620     -36.234 130.448  11.062  1.00 38.40     0.048 C 
HETATM   42  C40 8UH A 620     -39.869 134.624  11.242  1.00 28.72     0.048 C 
HETATM   43  O23 8UH A 620     -31.639 131.841   5.072  1.00 42.32    -0.395 OA
ATOM     44  H23 8UH A 620     -31.120 132.606   5.292  1.00  0.00     0.210 HD
ENDROOT
TORSDOF 12
