REMARK VINA RESULT:   -11.091      0.000      0.000
REMARK INTER + INTRA:         -13.730
REMARK INTER:                 -11.091
REMARK INTRA:                  -2.639
REMARK UNBOUND:                -2.639
REMARK  0 active torsions:
REMARK  status: ('A' for Active; 'I' for Inactive)
REMARK       I    between atoms: C3_3  and  O3_21 
REMARK       I    between atoms: C6_6  and  C7_7 
REMARK       I    between atoms: C8_8  and  C9_9 
REMARK       I    between atoms: C10_10  and  C11_11 
REMARK       I    between atoms: C12_12  and  C13_13 
REMARK       I    between atoms: C14_14  and  C15_15 
REMARK       I    between atoms: C23_25  and  O23_43 
REMARK       I    between atoms: C26_28  and  C27_29 
REMARK       I    between atoms: C28_30  and  C29_31 
REMARK       I    between atoms: C30_32  and  C31_33 
REMARK       I    between atoms: C32_34  and  C33_35 
REMARK       I    between atoms: C34_36  and  C35_37 
ROOT
HETATM    1  C1  8UH y1620     -34.248 127.305   6.656  1.00 33.20    -0.018 C 
HETATM    2  C2  8UH y1620     -33.818 126.991   5.230  1.00 33.20     0.045 C 
HETATM    3  C3  8UH y1620     -32.607 127.733   4.692  1.00 33.20     0.123 C 
HETATM    4  C4  8UH y1620     -31.589 127.966   5.769  1.00 33.20     0.066 C 
HETATM    5  C5  8UH y1620     -32.209 128.714   6.898  1.00 33.20    -0.074 C 
HETATM    6  C6  8UH y1620     -33.432 128.402   7.317  1.00 33.20    -0.048 C 
HETATM    7  C7  8UH y1620     -34.006 129.132   8.462  1.00 33.20     0.009 C 
HETATM    8  C8  8UH y1620     -34.763 130.195   8.245  1.00 33.20     0.007 C 
HETATM    9  C9  8UH y1620     -35.376 130.968   9.319  1.00 33.20    -0.062 C 
HETATM   10  C10 8UH y1620     -35.922 132.112   8.926  1.00 33.20     0.007 C 
HETATM   11  C11 8UH y1620     -36.613 133.046   9.779  1.00 33.20     0.001 C 
HETATM   12  C12 8UH y1620     -37.345 133.886   9.078  1.00 33.20     0.007 C 
HETATM   13  C13 8UH y1620     -38.185 134.894   9.699  1.00 33.20    -0.062 C 
HETATM   14  C14 8UH y1620     -38.935 135.631   8.891  1.00 33.20     0.007 C 
HETATM   15  C15 8UH y1620     -39.849 136.610   9.434  1.00 33.20     0.001 C 
HETATM   16  C16 8UH y1620     -34.204 125.989   7.426  1.00 33.20     0.020 C 
HETATM   17  C17 8UH y1620     -35.691 127.774   6.593  1.00 33.20     0.020 C 
HETATM   18  C18 8UH y1620     -31.346 129.757   7.539  1.00 33.20     0.044 C 
HETATM   19  C19 8UH y1620     -35.364 130.489  10.735  1.00 33.20     0.048 C 
HETATM   20  C20 8UH y1620     -38.220 135.050  11.181  1.00 33.20     0.048 C 
HETATM   21  O3  8UH y1620     -31.974 126.937   3.692  1.00 33.20    -0.395 OA
ATOM     22  H3  8UH y1620     -32.619 126.790   3.010  1.00  0.00     0.210 HD
HETATM   23  C21 8UH y1620     -49.900 144.057   9.901  1.00 22.25    -0.018 C 
HETATM   24  C22 8UH y1620     -50.897 144.624  10.922  1.00 20.45     0.045 C 
HETATM   25  C23 8UH y1620     -50.447 145.679  11.929  1.00 22.17     0.123 C 
HETATM   26  C24 8UH y1620     -49.090 146.338  11.643  1.00 20.30     0.066 C 
HETATM   27  C25 8UH y1620     -48.109 145.691  10.724  1.00 20.75    -0.074 C 
HETATM   28  C26 8UH y1620     -48.446 144.637   9.900  1.00 21.23    -0.048 C 
HETATM   29  C27 8UH y1620     -47.521 143.964   8.960  1.00 18.62     0.009 C 
HETATM   30  C28 8UH y1620     -46.615 143.030   9.309  1.00 19.71     0.007 C 
HETATM   31  C29 8UH y1620     -45.691 142.368   8.439  1.00 33.20    -0.062 C 
HETATM   32  C30 8UH y1620     -45.092 141.282   8.902  1.00 33.20     0.007 C 
HETATM   33  C31 8UH y1620     -44.150 140.499   8.134  1.00 33.20     0.001 C 
HETATM   34  C32 8UH y1620     -43.377 139.732   8.871  1.00 33.20     0.007 C 
HETATM   35  C33 8UH y1620     -42.389 138.849   8.268  1.00 33.20    -0.062 C 
HETATM   36  C34 8UH y1620     -41.656 138.114   9.095  1.00 33.20     0.007 C 
HETATM   37  C35 8UH y1620     -40.686 137.171   8.587  1.00 33.20     0.001 C 
HETATM   38  C36 8UH y1620     -50.592 144.350   8.555  1.00 20.14     0.020 C 
HETATM   39  C37 8UH y1620     -49.876 142.516  10.103  1.00 21.86     0.020 C 
HETATM   40  C38 8UH y1620     -46.800 146.390  10.843  1.00 20.13     0.044 C 
HETATM   41  C39 8UH y1620     -45.423 142.899   7.066  1.00 33.20     0.048 C 
HETATM   42  C40 8UH y1620     -42.240 138.763   6.785  1.00 33.20     0.048 C 
HETATM   43  O23 8UH y1620     -51.457 146.668  12.088  1.00 24.42    -0.395 OA
ATOM     44  H23 8UH y1620     -51.177 147.325  12.714  1.00  0.00     0.210 HD
ENDROOT
TORSDOF 12
