REMARK VINA RESULT:   -10.110      1.677     16.764
REMARK INTER + INTRA:         -12.085
REMARK INTER:                  -9.012
REMARK INTRA:                  -3.073
REMARK UNBOUND:                -1.976
REMARK  0 active torsions:
REMARK  status: ('A' for Active; 'I' for Inactive)
REMARK       I    between atoms: C3_3  and  O3_21 
REMARK       I    between atoms: C6_6  and  C7_7 
REMARK       I    between atoms: C8_8  and  C9_9 
REMARK       I    between atoms: C10_10  and  C11_11 
REMARK       I    between atoms: C12_12  and  C13_13 
REMARK       I    between atoms: C14_14  and  C15_15 
REMARK       I    between atoms: C23_25  and  O23_43 
REMARK       I    between atoms: C26_28  and  C27_29 
REMARK       I    between atoms: C28_30  and  C29_31 
REMARK       I    between atoms: C30_32  and  C31_33 
REMARK       I    between atoms: C32_34  and  C33_35 
REMARK       I    between atoms: C34_36  and  C35_37 
ROOT
HETATM    1  C1  8UH G1621     -34.542 126.968   6.135  1.00 57.09    -0.018 C 
HETATM    2  C2  8UH G1621     -34.120 126.332   4.818  1.00 57.09     0.045 C 
HETATM    3  C3  8UH G1621     -32.913 126.925   4.114  1.00 57.09     0.123 C 
HETATM    4  C4  8UH G1621     -31.871 127.362   5.120  1.00 57.09     0.066 C 
HETATM    5  C5  8UH G1621     -32.493 128.359   6.052  1.00 57.09    -0.074 C 
HETATM    6  C6  8UH G1621     -33.674 128.106   6.628  1.00 57.09    -0.048 C 
HETATM    7  C7  8UH G1621     -34.168 128.910   7.778  1.00 57.09     0.009 C 
HETATM    8  C8  8UH G1621     -34.758 130.098   7.609  1.00 57.09     0.007 C 
HETATM    9  C9  8UH G1621     -35.279 130.924   8.709  1.00 57.09    -0.062 C 
HETATM   10  C10 8UH G1621     -36.216 131.813   8.370  1.00 57.09     0.007 C 
HETATM   11  C11 8UH G1621     -36.915 132.728   9.262  1.00 57.09     0.001 C 
HETATM   12  C12 8UH G1621     -37.840 133.475   8.670  1.00 57.09     0.007 C 
HETATM   13  C13 8UH G1621     -38.702 134.438   9.370  1.00 57.09    -0.062 C 
HETATM   14  C14 8UH G1621     -39.535 135.199   8.647  1.00 57.09     0.007 C 
HETATM   15  C15 8UH G1621     -40.452 136.138   9.280  1.00 57.09     0.001 C 
HETATM   16  C16 8UH G1621     -34.607 125.850   7.166  1.00 57.09     0.020 C 
HETATM   17  C17 8UH G1621     -35.929 127.537   5.935  1.00 57.09     0.020 C 
HETATM   18  C18 8UH G1621     -31.463 129.249   6.683  1.00 57.09     0.044 C 
HETATM   19  C19 8UH G1621     -34.789 130.772  10.116  1.00 57.09     0.048 C 
HETATM   20  C20 8UH G1621     -38.677 134.520  10.864  1.00 57.09     0.048 C 
HETATM   21  O3  8UH G1621     -32.351 125.908   3.282  1.00 57.09    -0.395 OA
ATOM     22  H3  8UH G1621     -33.006 125.633   2.650  1.00  0.00     0.210 HD
HETATM   23  C21 8UH G1621     -50.088 144.388  10.578  1.00 16.39    -0.018 C 
HETATM   24  C22 8UH G1621     -50.872 144.963  11.749  1.00 16.39     0.045 C 
HETATM   25  C23 8UH G1621     -50.135 145.837  12.754  1.00 16.39     0.123 C 
HETATM   26  C24 8UH G1621     -48.988 146.594  12.124  1.00 16.39     0.066 C 
HETATM   27  C25 8UH G1621     -48.092 145.615  11.430  1.00 16.39    -0.074 C 
HETATM   28  C26 8UH G1621     -48.602 144.699  10.606  1.00 16.39    -0.048 C 
HETATM   29  C27 8UH G1621     -47.705 143.997   9.660  1.00 16.39     0.009 C 
HETATM   30  C28 8UH G1621     -47.067 142.867   9.968  1.00 16.39     0.007 C 
HETATM   31  C29 8UH G1621     -46.177 142.202   8.995  1.00 57.09    -0.062 C 
HETATM   32  C30 8UH G1621     -45.745 140.988   9.338  1.00 57.09     0.007 C 
HETATM   33  C31 8UH G1621     -44.859 140.183   8.513  1.00 57.09     0.001 C 
HETATM   34  C32 8UH G1621     -43.989 139.423   9.164  1.00 57.09     0.007 C 
HETATM   35  C33 8UH G1621     -43.037 138.556   8.469  1.00 57.09    -0.062 C 
HETATM   36  C34 8UH G1621     -42.273 137.710   9.165  1.00 57.09     0.007 C 
HETATM   37  C35 8UH G1621     -41.323 136.805   8.532  1.00 57.09     0.001 C 
HETATM   38  C36 8UH G1621     -50.752 144.896   9.305  1.00 16.39     0.020 C 
HETATM   39  C37 8UH G1621     -50.220 142.873  10.622  1.00 16.39     0.020 C 
HETATM   40  C38 8UH G1621     -46.718 146.183  11.234  1.00 16.39     0.044 C 
HETATM   41  C39 8UH G1621     -45.771 142.854   7.711  1.00 57.09     0.048 C 
HETATM   42  C40 8UH G1621     -42.941 138.665   6.992  1.00 57.09     0.048 C 
HETATM   43  O23 8UH G1621     -51.057 146.778  13.305  1.00 16.39    -0.395 OA
ATOM     44  H23 8UH G1621     -50.597 147.323  13.932  1.00  0.00     0.210 HD
ENDROOT
TORSDOF 12
