REMARK VINA RESULT:    -8.138      1.998     16.611
REMARK INTER + INTRA:         -10.592
REMARK INTER:                 -10.413
REMARK INTRA:                  -0.178
REMARK UNBOUND:                -2.453
REMARK  0 active torsions:
REMARK  status: ('A' for Active; 'I' for Inactive)
REMARK       I    between atoms: C3_3  and  O3_21 
REMARK       I    between atoms: C6_6  and  C7_7 
REMARK       I    between atoms: C8_8  and  C9_9 
REMARK       I    between atoms: C10_10  and  C11_11 
REMARK       I    between atoms: C12_12  and  C13_13 
REMARK       I    between atoms: C14_14  and  C15_15 
REMARK       I    between atoms: C23_25  and  O23_43 
REMARK       I    between atoms: C26_28  and  C27_29 
REMARK       I    between atoms: C28_30  and  C29_31 
REMARK       I    between atoms: C30_32  and  C31_33 
REMARK       I    between atoms: C32_34  and  C33_35 
REMARK       I    between atoms: C34_36  and  C35_37 
ROOT
HETATM    1  C1  8UH Z 618     -34.380 128.371   6.647  1.00 27.67    -0.018 C 
HETATM    2  C2  8UH Z 618     -33.591 127.838   5.453  1.00 27.67     0.045 C 
HETATM    3  C3  8UH Z 618     -32.204 128.420   5.224  1.00 27.67     0.123 C 
HETATM    4  C4  8UH Z 618     -31.503 128.675   6.539  1.00 27.67     0.066 C 
HETATM    5  C5  8UH Z 618     -32.349 129.649   7.302  1.00 27.67    -0.074 C 
HETATM    6  C6  8UH Z 618     -33.646 129.399   7.492  1.00 27.67    -0.048 C 
HETATM    7  C7  8UH Z 618     -34.411 130.097   8.555  1.00 27.67     0.009 C 
HETATM    8  C8  8UH Z 618     -34.886 131.333   8.391  1.00 27.67     0.007 C 
HETATM    9  C9  8UH Z 618     -35.658 132.008   9.443  1.00 27.67    -0.062 C 
HETATM   10  C10 8UH Z 618     -36.443 133.017   9.057  1.00 27.67     0.007 C 
HETATM   11  C11 8UH Z 618     -37.310 133.796   9.932  1.00 27.67     0.001 C 
HETATM   12  C12 8UH Z 618     -38.095 134.629   9.261  1.00 27.67     0.007 C 
HETATM   13  C13 8UH Z 618     -39.112 135.525   9.825  1.00 27.67    -0.062 C 
HETATM   14  C14 8UH Z 618     -39.765 136.315   8.962  1.00 27.67     0.007 C 
HETATM   15  C15 8UH Z 618     -40.837 137.211   9.370  1.00 27.67     0.001 C 
HETATM   16  C16 8UH Z 618     -34.798 127.169   7.488  1.00 27.67     0.020 C 
HETATM   17  C17 8UH Z 618     -35.636 129.048   6.116  1.00 27.67     0.020 C 
HETATM   18  C18 8UH Z 618     -31.500 130.326   8.335  1.00 27.67     0.044 C 
HETATM   19  C19 8UH Z 618     -35.560 131.577  10.873  1.00 27.67     0.048 C 
HETATM   20  C20 8UH Z 618     -39.424 135.531  11.289  1.00 27.67     0.048 C 
HETATM   21  O3  8UH Z 618     -31.437 127.493   4.453  1.00 27.67    -0.395 OA
ATOM     22  H3  8UH Z 618     -31.878 127.333   3.627  1.00  0.00     0.210 HD
HETATM   23  C21 8UH Z 618     -50.576 145.255   9.331  1.00 17.54    -0.018 C 
HETATM   24  C22 8UH Z 618     -51.571 145.181  10.476  1.00 17.54     0.045 C 
HETATM   25  C23 8UH Z 618     -51.503 146.259  11.555  1.00 17.54     0.123 C 
HETATM   26  C24 8UH Z 618     -50.115 146.836  11.797  1.00 17.54     0.066 C 
HETATM   27  C25 8UH Z 618     -49.017 146.122  11.053  1.00 17.54    -0.074 C 
HETATM   28  C26 8UH Z 618     -49.195 145.474   9.892  1.00 17.54    -0.048 C 
HETATM   29  C27 8UH Z 618     -48.024 144.997   9.120  1.00 17.54     0.009 C 
HETATM   30  C28 8UH Z 618     -47.557 143.753   9.205  1.00 17.54     0.007 C 
HETATM   31  C29 8UH Z 618     -46.381 143.320   8.419  1.00 27.67    -0.062 C 
HETATM   32  C30 8UH Z 618     -46.006 142.045   8.556  1.00 27.67     0.007 C 
HETATM   33  C31 8UH Z 618     -44.878 141.437   7.865  1.00 27.67     0.001 C 
HETATM   34  C32 8UH Z 618     -44.191 140.548   8.573  1.00 27.67     0.007 C 
HETATM   35  C33 8UH Z 618     -43.028 139.805   8.067  1.00 27.67    -0.062 C 
HETATM   36  C34 8UH Z 618     -42.526 138.842   8.849  1.00 27.67     0.007 C 
HETATM   37  C35 8UH Z 618     -41.409 137.991   8.458  1.00 27.67     0.001 C 
HETATM   38  C36 8UH Z 618     -50.950 146.327   8.308  1.00 17.54     0.020 C 
HETATM   39  C37 8UH Z 618     -50.630 143.919   8.614  1.00 17.54     0.020 C 
HETATM   40  C38 8UH Z 618     -47.654 146.501  11.514  1.00 17.54     0.044 C 
HETATM   41  C39 8UH Z 618     -45.650 144.268   7.517  1.00 27.67     0.048 C 
HETATM   42  C40 8UH Z 618     -42.424 140.115   6.734  1.00 27.67     0.048 C 
HETATM   43  O23 8UH Z 618     -52.390 147.320  11.189  1.00 17.54    -0.395 OA
ATOM     44  H23 8UH Z 618     -53.256 146.959  11.037  1.00  0.00     0.210 HD
ENDROOT
TORSDOF 12
