REMARK VINA RESULT:    -8.691      1.740      2.175
REMARK INTER + INTRA:         -11.524
REMARK INTER:                 -11.008
REMARK INTRA:                  -0.516
REMARK UNBOUND:                -2.833
REMARK  0 active torsions:
REMARK  status: ('A' for Active; 'I' for Inactive)
REMARK       I    between atoms: C3_3  and  O3_21 
REMARK       I    between atoms: C6_6  and  C7_7 
REMARK       I    between atoms: C8_8  and  C9_9 
REMARK       I    between atoms: C10_10  and  C11_11 
REMARK       I    between atoms: C12_12  and  C13_13 
REMARK       I    between atoms: C14_14  and  C15_15 
REMARK       I    between atoms: C23_25  and  O23_43 
REMARK       I    between atoms: C26_28  and  C27_29 
REMARK       I    between atoms: C28_30  and  C29_31 
REMARK       I    between atoms: C30_32  and  C31_33 
REMARK       I    between atoms: C32_34  and  C33_35 
REMARK       I    between atoms: C34_36  and  C35_37 
ROOT
HETATM    1  C1  8UH J9621     -50.282 145.756  10.205  1.00 21.11    -0.018 C 
HETATM    2  C2  8UH J9621     -51.251 146.164  11.328  1.00 20.11     0.045 C 
HETATM    3  C3  8UH J9621     -50.900 147.330  12.251  1.00 19.41     0.123 C 
HETATM    4  C4  8UH J9621     -49.515 147.959  12.045  1.00 18.39     0.066 C 
HETATM    5  C5  8UH J9621     -48.506 147.363  11.121  1.00 18.34    -0.074 C 
HETATM    6  C6  8UH J9621     -48.825 146.353  10.243  1.00 19.81    -0.048 C 
HETATM    7  C7  8UH J9621     -47.894 145.747   9.264  1.00 19.02     0.009 C 
HETATM    8  C8  8UH J9621     -46.985 144.795   9.550  1.00 17.97     0.007 C 
HETATM    9  C9  8UH J9621     -46.036 144.153   8.635  1.00 18.85    -0.062 C 
HETATM   10  C10 8UH J9621     -45.301 143.125   9.121  1.00 18.38     0.007 C 
HETATM   11  C11 8UH J9621     -44.374 142.290   8.394  1.00 18.57     0.001 C 
HETATM   12  C12 8UH J9621     -43.757 141.235   8.969  1.00 17.11     0.007 C 
HETATM   13  C13 8UH J9621     -42.861 140.260   8.330  1.00 20.42    -0.062 C 
HETATM   14  C14 8UH J9621     -42.376 139.251   9.089  1.00 20.50     0.007 C 
HETATM   15  C15 8UH J9621     -41.528 138.169   8.650  1.00 20.22     0.001 C 
HETATM   16  C16 8UH J9621     -51.019 146.188   8.912  1.00 19.56     0.020 C 
HETATM   17  C17 8UH J9621     -50.240 144.214  10.236  1.00 18.49     0.020 C 
HETATM   18  C18 8UH J9621     -47.225 148.098  11.275  1.00 16.89     0.044 C 
HETATM   19  C19 8UH J9621     -46.006 144.631   7.211  1.00 14.61     0.048 C 
HETATM   20  C20 8UH J9621     -42.566 140.423   6.857  1.00 17.59     0.048 C 
HETATM   21  O3  8UH J9621     -51.905 148.326  12.185  1.00 18.27    -0.395 OA
ATOM     22  H3  8UH J9621     -51.687 149.051  12.759  1.00  0.00     0.210 HD
HETATM   23  C21 8UH J9621     -33.978 127.770   6.965  1.00 23.07    -0.018 C 
HETATM   24  C22 8UH J9621     -33.238 127.152   5.765  1.00 21.39     0.045 C 
HETATM   25  C23 8UH J9621     -32.352 128.067   4.926  1.00 23.10     0.123 C 
HETATM   26  C24 8UH J9621     -31.744 129.243   5.696  1.00 23.25     0.066 C 
HETATM   27  C25 8UH J9621     -32.586 129.904   6.738  1.00 22.57    -0.074 C 
HETATM   28  C26 8UH J9621     -33.628 129.244   7.346  1.00 22.63    -0.048 C 
HETATM   29  C27 8UH J9621     -34.455 129.894   8.375  1.00 23.01     0.009 C 
HETATM   30  C28 8UH J9621     -35.438 130.785   8.147  1.00 21.85     0.007 C 
HETATM   31  C29 8UH J9621     -36.206 131.547   9.142  1.00 19.55    -0.062 C 
HETATM   32  C30 8UH J9621     -37.130 132.436   8.713  1.00 17.66     0.007 C 
HETATM   33  C31 8UH J9621     -37.964 133.272   9.542  1.00 19.12     0.001 C 
HETATM   34  C32 8UH J9621     -38.744 134.254   9.032  1.00 19.40     0.007 C 
HETATM   35  C33 8UH J9621     -39.620 135.212   9.730  1.00 19.31    -0.062 C 
HETATM   36  C34 8UH J9621     -40.220 136.169   8.991  1.00 17.72     0.007 C 
HETATM   37  C35 8UH J9621     -41.065 137.228   9.471  1.00 19.92     0.001 C 
HETATM   38  C36 8UH J9621     -33.601 126.829   8.124  1.00 21.40     0.020 C 
HETATM   39  C37 8UH J9621     -35.493 127.626   6.700  1.00 21.74     0.020 C 
HETATM   40  C38 8UH J9621     -32.074 131.285   6.953  1.00 21.99     0.044 C 
HETATM   41  C39 8UH J9621     -35.858 131.335  10.591  1.00 18.53     0.048 C 
HETATM   42  C40 8UH J9621     -39.732 135.102  11.227  1.00 15.86     0.048 C 
HETATM   43  O23 8UH J9621     -31.330 127.318   4.294  1.00 24.94    -0.395 OA
ATOM     44  H23 8UH J9621     -30.779 127.888   3.772  1.00  0.00     0.210 HD
ENDROOT
TORSDOF 12
