REMARK VINA RESULT:    -8.759      1.151     16.612
REMARK INTER + INTRA:         -11.073
REMARK INTER:                  -8.106
REMARK INTRA:                  -2.967
REMARK UNBOUND:                -2.314
REMARK  0 active torsions:
REMARK  status: ('A' for Active; 'I' for Inactive)
REMARK       I    between atoms: C3_3  and  O3_21 
REMARK       I    between atoms: C6_6  and  C7_7 
REMARK       I    between atoms: C8_8  and  C9_9 
REMARK       I    between atoms: C10_10  and  C11_11 
REMARK       I    between atoms: C12_12  and  C13_13 
REMARK       I    between atoms: C14_14  and  C15_15 
REMARK       I    between atoms: C23_25  and  O23_43 
REMARK       I    between atoms: C26_28  and  C27_29 
REMARK       I    between atoms: C28_30  and  C29_31 
REMARK       I    between atoms: C30_32  and  C31_33 
REMARK       I    between atoms: C32_34  and  C33_35 
REMARK       I    between atoms: C34_36  and  C35_37 
ROOT
HETATM    1  C1  8UH G1620     -34.432 126.885   6.229  1.00 59.27    -0.018 C 
HETATM    2  C2  8UH G1620     -33.862 126.092   5.064  1.00 64.60     0.045 C 
HETATM    3  C3  8UH G1620     -32.902 126.857   4.180  1.00 63.28     0.123 C 
HETATM    4  C4  8UH G1620     -31.794 127.446   5.014  1.00 61.00     0.066 C 
HETATM    5  C5  8UH G1620     -32.368 128.311   6.100  1.00 64.87    -0.074 C 
HETATM    6  C6  8UH G1620     -33.554 128.042   6.684  1.00 63.96    -0.048 C 
HETATM    7  C7  8UH G1620     -34.032 128.848   7.840  1.00 64.82     0.009 C 
HETATM    8  C8  8UH G1620     -34.691 130.001   7.694  1.00 58.91     0.007 C 
HETATM    9  C9  8UH G1620     -35.171 130.787   8.831  1.00 59.76    -0.062 C 
HETATM   10  C10 8UH G1620     -35.888 131.871   8.521  1.00 59.44     0.007 C 
HETATM   11  C11 8UH G1620     -36.480 132.798   9.467  1.00 53.66     0.001 C 
HETATM   12  C12 8UH G1620     -37.290 133.673   8.893  1.00 59.47     0.007 C 
HETATM   13  C13 8UH G1620     -38.032 134.697   9.635  1.00 64.69    -0.062 C 
HETATM   14  C14 8UH G1620     -38.940 135.404   8.958  1.00 66.67     0.007 C 
HETATM   15  C15 8UH G1620     -39.764 136.420   9.595  1.00 73.65     0.001 C 
HETATM   16  C16 8UH G1620     -34.687 125.863   7.331  1.00 56.55     0.020 C 
HETATM   17  C17 8UH G1620     -35.761 127.489   5.798  1.00 59.14     0.020 C 
HETATM   18  C18 8UH G1620     -31.440 129.392   6.578  1.00 61.00     0.044 C 
HETATM   19  C19 8UH G1620     -34.846 130.384  10.237  1.00 55.95     0.048 C 
HETATM   20  C20 8UH G1620     -37.781 134.917  11.095  1.00 67.83     0.048 C 
HETATM   21  O3  8UH G1620     -32.336 125.962   3.220  1.00 73.40    -0.395 OA
ATOM     22  H3  8UH G1620     -31.733 126.442   2.665  1.00  0.00     0.210 HD
HETATM   23  C21 8UH G1620     -49.687 144.070  11.250  1.00 57.09    -0.018 C 
HETATM   24  C22 8UH G1620     -50.376 144.561  12.516  1.00 57.09     0.045 C 
HETATM   25  C23 8UH G1620     -49.548 145.386  13.484  1.00 57.09     0.123 C 
HETATM   26  C24 8UH G1620     -48.595 146.290  12.734  1.00 57.09     0.066 C 
HETATM   27  C25 8UH G1620     -47.716 145.442  11.863  1.00 57.09    -0.074 C 
HETATM   28  C26 8UH G1620     -48.247 144.503  11.072  1.00 57.09    -0.048 C 
HETATM   29  C27 8UH G1620     -47.458 143.867   9.982  1.00 57.09     0.009 C 
HETATM   30  C28 8UH G1620     -46.602 142.868  10.219  1.00 57.09     0.007 C 
HETATM   31  C29 8UH G1620     -45.818 142.198   9.179  1.00 93.82    -0.062 C 
HETATM   32  C30 8UH G1620     -45.047 141.203   9.612  1.00 83.29     0.007 C 
HETATM   33  C31 8UH G1620     -44.211 140.378   8.763  1.00 75.18     0.001 C 
HETATM   34  C32 8UH G1620     -43.406 139.562   9.421  1.00 71.38     0.007 C 
HETATM   35  C33 8UH G1620     -42.517 138.621   8.734  1.00 70.67    -0.062 C 
HETATM   36  C34 8UH G1620     -41.664 137.907   9.478  1.00 74.09     0.007 C 
HETATM   37  C35 8UH G1620     -40.773 136.919   8.891  1.00 74.87     0.001 C 
HETATM   38  C36 8UH G1620     -50.539 144.525  10.076  1.00 57.09     0.020 C 
HETATM   39  C37 8UH G1620     -49.680 142.558  11.300  1.00 57.09     0.020 C 
HETATM   40  C38 8UH G1620     -46.422 146.130  11.540  1.00 57.09     0.044 C 
HETATM   41  C39 8UH G1620     -45.889 142.595   7.736  1.00 99.93     0.048 C 
HETATM   42  C40 8UH G1620     -42.599 138.460   7.251  1.00 65.73     0.048 C 
HETATM   43  O23 8UH G1620     -50.448 146.195  14.245  1.00 57.09    -0.395 OA
ATOM     44  H23 8UH G1620     -49.930 146.712  14.850  1.00  0.00     0.210 HD
ENDROOT
TORSDOF 12
