REMARK VINA RESULT:   -10.629      0.000      0.000
REMARK INTER + INTRA:         -13.305
REMARK INTER:                 -10.629
REMARK INTRA:                  -2.676
REMARK UNBOUND:                -2.676
REMARK  0 active torsions:
REMARK  status: ('A' for Active; 'I' for Inactive)
REMARK       I    between atoms: C3_3  and  O3_21 
REMARK       I    between atoms: C6_6  and  C7_7 
REMARK       I    between atoms: C8_8  and  C9_9 
REMARK       I    between atoms: C10_10  and  C11_11 
REMARK       I    between atoms: C12_12  and  C13_13 
REMARK       I    between atoms: C14_14  and  C15_15 
REMARK       I    between atoms: C23_25  and  O23_43 
REMARK       I    between atoms: C26_28  and  C27_29 
REMARK       I    between atoms: C28_30  and  C29_31 
REMARK       I    between atoms: C30_32  and  C31_33 
REMARK       I    between atoms: C32_34  and  C33_35 
REMARK       I    between atoms: C34_36  and  C35_37 
ROOT
HETATM    1  C1  8UH I8620     -49.294 144.620  12.778  1.00 16.69    -0.018 C 
HETATM    2  C2  8UH I8620     -49.810 145.391  14.003  1.00 15.88     0.045 C 
HETATM    3  C3  8UH I8620     -48.927 146.476  14.602  1.00 15.19     0.123 C 
HETATM    4  C4  8UH I8620     -48.031 147.199  13.593  1.00 16.30     0.066 C 
HETATM    5  C5  8UH I8620     -47.484 146.413  12.445  1.00 15.97    -0.074 C 
HETATM    6  C6  8UH I8620     -48.047 145.221  12.054  1.00 16.56    -0.048 C 
HETATM    7  C7  8UH I8620     -47.485 144.459  10.937  1.00 18.44     0.009 C 
HETATM    8  C8  8UH I8620     -46.388 143.684  10.976  1.00 18.42     0.007 C 
HETATM    9  C9  8UH I8620     -45.759 143.028   9.842  1.00 20.59    -0.062 C 
HETATM   10  C10 8UH I8620     -44.721 142.202  10.091  1.00 20.51     0.007 C 
HETATM   11  C11 8UH I8620     -43.978 141.456   9.124  1.00 21.63     0.001 C 
HETATM   12  C12 8UH I8620     -43.097 140.533   9.523  1.00 21.98     0.007 C 
HETATM   13  C13 8UH I8620     -42.276 139.649   8.698  1.00 23.28    -0.062 C 
HETATM   14  C14 8UH I8620     -41.547 138.713   9.345  1.00 23.72     0.007 C 
HETATM   15  C15 8UH I8620     -40.728 137.679   8.776  1.00 25.53     0.001 C 
HETATM   16  C16 8UH I8620     -50.502 144.596  11.824  1.00 15.77     0.020 C 
HETATM   17  C17 8UH I8620     -49.029 143.169  13.226  1.00 17.40     0.020 C 
HETATM   18  C18 8UH I8620     -46.308 147.142  11.897  1.00 16.04     0.044 C 
HETATM   19  C19 8UH I8620     -46.345 143.275   8.475  1.00 19.43     0.048 C 
HETATM   20  C20 8UH I8620     -42.357 139.795   7.202  1.00 18.80     0.048 C 
HETATM   21  O3  8UH I8620     -49.721 147.413  15.302  1.00 16.64    -0.395 OA
ATOM     22  H3  8UH I8620     -49.169 148.089  15.677  1.00  0.00     0.210 HD
HETATM   23  C21 8UH I8620     -34.414 126.853   6.399  1.00 19.63    -0.018 C 
HETATM   24  C22 8UH I8620     -33.994 126.112   5.133  1.00 19.63     0.045 C 
HETATM   25  C23 8UH I8620     -33.037 126.827   4.192  1.00 19.63     0.123 C 
HETATM   26  C24 8UH I8620     -32.018 127.619   4.981  1.00 19.63     0.066 C 
HETATM   27  C25 8UH I8620     -32.790 128.623   5.780  1.00 19.63    -0.074 C 
HETATM   28  C26 8UH I8620     -33.767 128.214   6.594  1.00 19.63    -0.048 C 
HETATM   29  C27 8UH I8620     -34.232 129.043   7.735  1.00 19.63     0.009 C 
HETATM   30  C28 8UH I8620     -35.071 130.069   7.580  1.00 19.63     0.007 C 
HETATM   31  C29 8UH I8620     -35.574 130.904   8.718  1.00 33.65    -0.062 C 
HETATM   32  C30 8UH I8620     -36.422 131.911   8.418  1.00 30.63     0.007 C 
HETATM   33  C31 8UH I8620     -37.076 132.802   9.340  1.00 28.70     0.001 C 
HETATM   34  C32 8UH I8620     -37.873 133.804   8.912  1.00 25.67     0.007 C 
HETATM   35  C33 8UH I8620     -38.610 134.800   9.692  1.00 24.63    -0.062 C 
HETATM   36  C34 8UH I8620     -39.311 135.734   9.017  1.00 23.98     0.007 C 
HETATM   37  C35 8UH I8620     -40.094 136.805   9.566  1.00 25.49     0.001 C 
HETATM   38  C36 8UH I8620     -34.124 125.935   7.581  1.00 19.63     0.020 C 
HETATM   39  C37 8UH I8620     -35.912 127.084   6.324  1.00 19.63     0.020 C 
HETATM   40  C38 8UH I8620     -31.794 129.668   6.173  1.00 19.63     0.044 C 
HETATM   41  C39 8UH I8620     -35.109 130.584  10.116  1.00 33.66     0.048 C 
HETATM   42  C40 8UH I8620     -38.519 134.731  11.182  1.00 25.13     0.048 C 
HETATM   43  O23 8UH I8620     -32.360 125.850   3.398  1.00 19.63    -0.395 OA
ATOM     44  H23 8UH I8620     -31.761 126.297   2.810  1.00  0.00     0.210 HD
ENDROOT
TORSDOF 12
