REMARK VINA RESULT:    -7.989      1.512      1.840
REMARK INTER + INTRA:         -11.078
REMARK INTER:                  -8.188
REMARK INTRA:                  -2.890
REMARK UNBOUND:                -3.089
REMARK  0 active torsions:
REMARK  status: ('A' for Active; 'I' for Inactive)
REMARK       I    between atoms: C3_3  and  O3_21 
REMARK       I    between atoms: C6_6  and  C7_7 
REMARK       I    between atoms: C8_8  and  C9_9 
REMARK       I    between atoms: C10_10  and  C11_11 
REMARK       I    between atoms: C12_12  and  C13_13 
REMARK       I    between atoms: C14_14  and  C15_15 
REMARK       I    between atoms: C23_25  and  O23_43 
REMARK       I    between atoms: C26_28  and  C27_29 
REMARK       I    between atoms: C28_30  and  C29_31 
REMARK       I    between atoms: C30_32  and  C31_33 
REMARK       I    between atoms: C32_34  and  C33_35 
REMARK       I    between atoms: C34_36  and  C35_37 
ROOT
HETATM    1  C1  8UH 31620     -49.162 144.354  12.459  1.00 70.34    -0.018 C 
HETATM    2  C2  8UH 31620     -49.468 144.853  13.858  1.00 70.34     0.045 C 
HETATM    3  C3  8UH 31620     -49.488 146.359  14.047  1.00 70.34     0.123 C 
HETATM    4  C4  8UH 31620     -48.329 147.057  13.361  1.00 70.34     0.066 C 
HETATM    5  C5  8UH 31620     -47.769 146.396  12.136  1.00 70.34    -0.074 C 
HETATM    6  C6  8UH 31620     -48.079 145.149  11.767  1.00 70.34    -0.048 C 
HETATM    7  C7  8UH 31620     -47.393 144.508  10.620  1.00 70.34     0.009 C 
HETATM    8  C8  8UH 31620     -46.325 143.729  10.767  1.00 70.34     0.007 C 
HETATM    9  C9  8UH 31620     -45.674 143.084   9.628  1.00 70.34    -0.062 C 
HETATM   10  C10 8UH 31620     -44.600 142.357   9.915  1.00 70.34     0.007 C 
HETATM   11  C11 8UH 31620     -43.817 141.610   8.954  1.00 70.34     0.001 C 
HETATM   12  C12 8UH 31620     -43.093 140.665   9.532  1.00 70.34     0.007 C 
HETATM   13  C13 8UH 31620     -42.219 139.741   8.809  1.00 70.34    -0.062 C 
HETATM   14  C14 8UH 31620     -41.601 138.819   9.538  1.00 70.34     0.007 C 
HETATM   15  C15 8UH 31620     -40.722 137.831   8.945  1.00 70.34     0.001 C 
HETATM   16  C16 8UH 31620     -50.452 144.350  11.649  1.00 70.34     0.020 C 
HETATM   17  C17 8UH 31620     -48.661 142.923  12.613  1.00 70.34     0.020 C 
HETATM   18  C18 8UH 31620     -46.596 147.130  11.556  1.00 70.34     0.044 C 
HETATM   19  C19 8UH 31620     -46.218 143.235   8.245  1.00 70.34     0.048 C 
HETATM   20  C20 8UH 31620     -42.035 139.827   7.326  1.00 70.34     0.048 C 
HETATM   21  O3  8UH 31620     -50.728 146.923  13.614  1.00 70.34    -0.395 OA
ATOM     22  H3  8UH 31620     -51.454 146.487  14.044  1.00  0.00     0.210 HD
HETATM   23  C21 8UH 31620     -34.322 127.584   6.443  1.00 16.14    -0.018 C 
HETATM   24  C22 8UH 31620     -33.600 126.995   5.232  1.00 16.14     0.045 C 
HETATM   25  C23 8UH 31620     -32.339 127.708   4.777  1.00 16.14     0.123 C 
HETATM   26  C24 8UH 31620     -31.501 128.111   5.967  1.00 16.14     0.066 C 
HETATM   27  C25 8UH 31620     -32.322 129.029   6.821  1.00 16.14    -0.074 C 
HETATM   28  C26 8UH 31620     -33.582 128.712   7.141  1.00 16.14    -0.048 C 
HETATM   29  C27 8UH 31620     -34.266 129.457   8.222  1.00 16.14     0.009 C 
HETATM   30  C28 8UH 31620     -34.902 130.616   8.032  1.00 16.14     0.007 C 
HETATM   31  C29 8UH 31620     -35.554 131.311   9.149  1.00 70.34    -0.062 C 
HETATM   32  C30 8UH 31620     -36.333 132.331   8.808  1.00 70.34     0.007 C 
HETATM   33  C31 8UH 31620     -37.073 133.150   9.751  1.00 70.34     0.001 C 
HETATM   34  C32 8UH 31620     -37.784 134.096   9.161  1.00 70.34     0.007 C 
HETATM   35  C33 8UH 31620     -38.621 135.056   9.879  1.00 70.34    -0.062 C 
HETATM   36  C34 8UH 31620     -39.329 135.908   9.140  1.00 70.34     0.007 C 
HETATM   37  C35 8UH 31620     -40.197 136.905   9.735  1.00 70.34     0.001 C 
HETATM   38  C36 8UH 31620     -34.608 126.432   7.399  1.00 16.14     0.020 C 
HETATM   39  C37 8UH 31620     -35.648 128.160   5.971  1.00 16.14     0.020 C 
HETATM   40  C38 8UH 31620     -31.464 129.913   7.679  1.00 16.14     0.044 C 
HETATM   41  C39 8UH 31620     -35.356 130.897  10.574  1.00 70.34     0.048 C 
HETATM   42  C40 8UH 31620     -38.663 135.077  11.371  1.00 70.34     0.048 C 
HETATM   43  O23 8UH 31620     -31.570 126.831   3.953  1.00 16.14    -0.395 OA
ATOM     44  H23 8UH 31620     -30.780 127.277   3.668  1.00  0.00     0.210 HD
ENDROOT
TORSDOF 12
