REMARK VINA RESULT:   -10.870      1.755     16.504
REMARK INTER + INTRA:         -11.617
REMARK INTER:                  -8.929
REMARK INTRA:                  -2.688
REMARK UNBOUND:                -0.747
REMARK  0 active torsions:
REMARK  status: ('A' for Active; 'I' for Inactive)
REMARK       I    between atoms: C3_3  and  O3_21 
REMARK       I    between atoms: C6_6  and  C7_7 
REMARK       I    between atoms: C8_8  and  C9_9 
REMARK       I    between atoms: C10_10  and  C11_11 
REMARK       I    between atoms: C12_12  and  C13_13 
REMARK       I    between atoms: C14_14  and  C15_15 
REMARK       I    between atoms: C23_25  and  O23_43 
REMARK       I    between atoms: C26_28  and  C27_29 
REMARK       I    between atoms: C28_30  and  C29_31 
REMARK       I    between atoms: C30_32  and  C31_33 
REMARK       I    between atoms: C32_34  and  C33_35 
REMARK       I    between atoms: C34_36  and  C35_37 
ROOT
HETATM    1  C1  8UH 21620     -34.471 128.281   6.775  1.00 97.95    -0.018 C 
HETATM    2  C2  8UH 21620     -33.619 128.018   5.539  1.00 97.95     0.045 C 
HETATM    3  C3  8UH 21620     -32.235 128.646   5.499  1.00 97.95     0.123 C 
HETATM    4  C4  8UH 21620     -31.589 128.659   6.866  1.00 97.95     0.066 C 
HETATM    5  C5  8UH 21620     -32.491 129.378   7.823  1.00 97.95    -0.074 C 
HETATM    6  C6  8UH 21620     -33.814 129.181   7.805  1.00 97.95    -0.048 C 
HETATM    7  C7  8UH 21620     -34.687 129.842   8.805  1.00 97.95     0.009 C 
HETATM    8  C8  8UH 21620     -35.205 131.049   8.582  1.00 97.95     0.007 C 
HETATM    9  C9  8UH 21620     -36.083 131.718   9.544  1.00 97.95    -0.062 C 
HETATM   10  C10 8UH 21620     -36.606 132.880   9.163  1.00 97.95     0.007 C 
HETATM   11  C11 8UH 21620     -37.506 133.663   9.989  1.00 97.95     0.001 C 
HETATM   12  C12 8UH 21620     -37.907 134.790   9.427  1.00 97.95     0.007 C 
HETATM   13  C13 8UH 21620     -38.841 135.726  10.061  1.00 97.95    -0.062 C 
HETATM   14  C14 8UH 21620     -39.391 136.625   9.246  1.00 97.95     0.007 C 
HETATM   15  C15 8UH 21620     -40.369 137.603   9.683  1.00 97.95     0.001 C 
HETATM   16  C16 8UH 21620     -34.825 126.920   7.366  1.00 97.95     0.020 C 
HETATM   17  C17 8UH 21620     -35.755 128.967   6.326  1.00 97.95     0.020 C 
HETATM   18  C18 8UH 21620     -31.804 130.212   8.864  1.00 97.95     0.044 C 
HETATM   19  C19 8UH 21620     -36.375 131.115  10.884  1.00 97.95     0.048 C 
HETATM   20  C20 8UH 21620     -39.172 135.666  11.522  1.00 97.95     0.048 C 
HETATM   21  O3  8UH 21620     -31.402 127.880   4.622  1.00 97.95    -0.395 OA
ATOM     22  H3  8UH 21620     -31.807 127.873   3.763  1.00  0.00     0.210 HD
HETATM   23  C21 8UH 21620     -50.224 145.195   8.807  1.00 87.69    -0.018 C 
HETATM   24  C22 8UH 21620     -51.010 145.686  10.008  1.00 87.69     0.045 C 
HETATM   25  C23 8UH 21620     -50.807 147.144  10.409  1.00 87.69     0.123 C 
HETATM   26  C24 8UH 21620     -49.438 147.721  10.080  1.00 87.69     0.066 C 
HETATM   27  C25 8UH 21620     -48.440 146.686   9.630  1.00 87.69    -0.074 C 
HETATM   28  C26 8UH 21620     -48.797 145.672   8.845  1.00 87.69    -0.048 C 
HETATM   29  C27 8UH 21620     -47.812 145.009   7.961  1.00 87.69     0.009 C 
HETATM   30  C28 8UH 21620     -46.992 144.075   8.431  1.00 87.69     0.007 C 
HETATM   31  C29 8UH 21620     -46.017 143.380   7.584  1.00 97.95    -0.062 C 
HETATM   32  C30 8UH 21620     -45.288 142.459   8.205  1.00 97.95     0.007 C 
HETATM   33  C31 8UH 21620     -44.272 141.635   7.578  1.00 97.95     0.001 C 
HETATM   34  C32 8UH 21620     -43.694 140.813   8.435  1.00 97.95     0.007 C 
HETATM   35  C33 8UH 21620     -42.646 139.870   8.053  1.00 97.95    -0.062 C 
HETATM   36  C34 8UH 21620     -42.129 139.112   9.019  1.00 97.95     0.007 C 
HETATM   37  C35 8UH 21620     -41.095 138.140   8.714  1.00 97.95     0.001 C 
HETATM   38  C36 8UH 21620     -50.910 145.600   7.506  1.00 87.69     0.020 C 
HETATM   39  C37 8UH 21620     -50.198 143.685   8.878  1.00 87.69     0.020 C 
HETATM   40  C38 8UH 21620     -47.238 147.522   9.320  1.00 87.69     0.044 C 
HETATM   41  C39 8UH 21620     -45.861 143.679   6.124  1.00 97.95     0.048 C 
HETATM   42  C40 8UH 21620     -42.185 139.771   6.633  1.00 97.95     0.048 C 
HETATM   43  O23 8UH 21620     -51.790 147.912   9.719  1.00 87.69    -0.395 OA
ATOM     44  H23 8UH 21620     -51.663 148.819   9.969  1.00  0.00     0.210 HD
ENDROOT
TORSDOF 12
