REMARK VINA RESULT:   -10.097      0.000      0.000
REMARK INTER + INTRA:         -12.368
REMARK INTER:                 -10.097
REMARK INTRA:                  -2.271
REMARK UNBOUND:                -2.271
REMARK  0 active torsions:
REMARK  status: ('A' for Active; 'I' for Inactive)
REMARK       I    between atoms: C3_3  and  O3_21 
REMARK       I    between atoms: C6_6  and  C7_7 
REMARK       I    between atoms: C8_8  and  C9_9 
REMARK       I    between atoms: C10_10  and  C11_11 
REMARK       I    between atoms: C12_12  and  C13_13 
REMARK       I    between atoms: C14_14  and  C15_15 
REMARK       I    between atoms: C23_25  and  O23_43 
REMARK       I    between atoms: C26_28  and  C27_29 
REMARK       I    between atoms: C28_30  and  C29_31 
REMARK       I    between atoms: C30_32  and  C31_33 
REMARK       I    between atoms: C32_34  and  C33_35 
REMARK       I    between atoms: C34_36  and  C35_37 
ROOT
HETATM    1  C1  8UH n1620     -49.487 143.959  12.454  1.00 57.79    -0.018 C 
HETATM    2  C2  8UH n1620     -50.245 144.707  13.536  1.00 59.26     0.045 C 
HETATM    3  C3  8UH n1620     -49.343 145.438  14.506  1.00 62.25     0.123 C 
HETATM    4  C4  8UH n1620     -48.523 146.450  13.747  1.00 57.83     0.066 C 
HETATM    5  C5  8UH n1620     -47.798 145.815  12.593  1.00 54.66    -0.074 C 
HETATM    6  C6  8UH n1620     -48.229 144.686  11.989  1.00 55.29    -0.048 C 
HETATM    7  C7  8UH n1620     -47.506 144.150  10.805  1.00 55.61     0.009 C 
HETATM    8  C8  8UH n1620     -46.445 143.348  10.907  1.00 56.19     0.007 C 
HETATM    9  C9  8UH n1620     -45.734 142.815   9.747  1.00 61.49    -0.062 C 
HETATM   10  C10 8UH n1620     -44.748 141.970  10.028  1.00 57.47     0.007 C 
HETATM   11  C11 8UH n1620     -43.920 141.312   9.041  1.00 53.29     0.001 C 
HETATM   12  C12 8UH n1620     -43.088 140.431   9.565  1.00 52.45     0.007 C 
HETATM   13  C13 8UH n1620     -42.189 139.630   8.739  1.00 52.04    -0.062 C 
HETATM   14  C14 8UH n1620     -41.587 138.606   9.341  1.00 54.29     0.007 C 
HETATM   15  C15 8UH n1620     -40.698 137.698   8.645  1.00 53.12     0.001 C 
HETATM   16  C16 8UH n1620     -50.502 143.707  11.344  1.00 58.39     0.020 C 
HETATM   17  C17 8UH n1620     -49.051 142.612  13.008  1.00 64.45     0.020 C 
HETATM   18  C18 8UH n1620     -46.579 146.582  12.169  1.00 58.11     0.044 C 
HETATM   19  C19 8UH n1620     -46.092 143.222   8.347  1.00 70.55     0.048 C 
HETATM   20  C20 8UH n1620     -41.987 139.948   7.292  1.00 53.04     0.048 C 
HETATM   21  O3  8UH n1620     -50.132 146.134  15.471  1.00 65.91    -0.395 OA
ATOM     22  H3  8UH n1620     -49.566 146.593  16.080  1.00  0.00     0.210 HD
HETATM   23  C21 8UH n1620     -34.275 127.006   6.699  1.00 13.75    -0.018 C 
HETATM   24  C22 8UH n1620     -33.644 126.079   5.670  1.00 13.75     0.045 C 
HETATM   25  C23 8UH n1620     -32.985 126.809   4.524  1.00 13.75     0.123 C 
HETATM   26  C24 8UH n1620     -31.949 127.745   5.089  1.00 13.75     0.066 C 
HETATM   27  C25 8UH n1620     -32.613 128.731   6.005  1.00 13.75    -0.074 C 
HETATM   28  C26 8UH n1620     -33.640 128.385   6.799  1.00 13.75    -0.048 C 
HETATM   29  C27 8UH n1620     -34.187 129.289   7.850  1.00 13.75     0.009 C 
HETATM   30  C28 8UH n1620     -35.024 130.311   7.628  1.00 13.75     0.007 C 
HETATM   31  C29 8UH n1620     -35.549 131.139   8.721  1.00 71.47    -0.062 C 
HETATM   32  C30 8UH n1620     -36.516 131.985   8.378  1.00 69.97     0.007 C 
HETATM   33  C31 8UH n1620     -37.203 132.881   9.288  1.00 65.68     0.001 C 
HETATM   34  C32 8UH n1620     -38.004 133.739   8.686  1.00 62.75     0.007 C 
HETATM   35  C33 8UH n1620     -38.818 134.710   9.421  1.00 61.08    -0.062 C 
HETATM   36  C34 8UH n1620     -39.432 135.658   8.709  1.00 59.90     0.007 C 
HETATM   37  C35 8UH n1620     -40.295 136.642   9.333  1.00 55.64     0.001 C 
HETATM   38  C36 8UH n1620     -34.207 126.273   8.031  1.00 13.75     0.020 C 
HETATM   39  C37 8UH n1620     -35.729 127.215   6.311  1.00 13.75     0.020 C 
HETATM   40  C38 8UH n1620     -31.843 130.000   6.163  1.00 13.75     0.044 C 
HETATM   41  C39 8UH n1620     -35.035 131.030  10.123  1.00 74.91     0.048 C 
HETATM   42  C40 8UH n1620     -38.967 134.609  10.907  1.00 55.73     0.048 C 
HETATM   43  O23 8UH n1620     -32.344 125.872   3.658  1.00 13.75    -0.395 OA
ATOM     44  H23 8UH n1620     -32.998 125.281   3.301  1.00  0.00     0.210 HD
ENDROOT
TORSDOF 12
