REMARK VINA RESULT:   -10.258      0.000      0.000
REMARK INTER + INTRA:         -11.301
REMARK INTER:                 -10.258
REMARK INTRA:                  -1.044
REMARK UNBOUND:                -1.044
REMARK  0 active torsions:
REMARK  status: ('A' for Active; 'I' for Inactive)
REMARK       I    between atoms: C3_3  and  O3_21 
REMARK       I    between atoms: C6_6  and  C7_7 
REMARK       I    between atoms: C8_8  and  C9_9 
REMARK       I    between atoms: C10_10  and  C11_11 
REMARK       I    between atoms: C12_12  and  C13_13 
REMARK       I    between atoms: C14_14  and  C15_15 
REMARK       I    between atoms: C23_25  and  O23_43 
REMARK       I    between atoms: C26_28  and  C27_29 
REMARK       I    between atoms: C28_30  and  C29_31 
REMARK       I    between atoms: C30_32  and  C31_33 
REMARK       I    between atoms: C32_34  and  C33_35 
REMARK       I    between atoms: C34_36  and  C35_37 
ROOT
HETATM    1  C1  8UH D3621     -49.397 146.784  11.593  1.00 23.41    -0.018 C 
HETATM    2  C2  8UH D3621     -50.451 147.290  12.593  1.00 23.79     0.045 C 
HETATM    3  C3  8UH D3621     -50.025 148.005  13.872  1.00 23.28     0.123 C 
HETATM    4  C4  8UH D3621     -48.599 148.577  13.826  1.00 23.70     0.066 C 
HETATM    5  C5  8UH D3621     -47.599 148.073  12.825  1.00 23.84    -0.074 C 
HETATM    6  C6  8UH D3621     -47.921 147.244  11.769  1.00 22.99    -0.048 C 
HETATM    7  C7  8UH D3621     -46.953 146.740  10.758  1.00 20.55     0.009 C 
HETATM    8  C8  8UH D3621     -46.126 145.688  10.940  1.00 19.35     0.007 C 
HETATM    9  C9  8UH D3621     -45.099 145.131  10.057  1.00 18.45    -0.062 C 
HETATM   10  C10 8UH D3621     -44.506 143.981  10.445  1.00 18.11     0.007 C 
HETATM   11  C11 8UH D3621     -43.546 143.212   9.705  1.00 18.44     0.001 C 
HETATM   12  C12 8UH D3621     -43.071 142.026  10.150  1.00 19.34     0.007 C 
HETATM   13  C13 8UH D3621     -42.166 141.123   9.414  1.00 20.12    -0.062 C 
HETATM   14  C14 8UH D3621     -41.808 139.953   9.995  1.00 19.73     0.007 C 
HETATM   15  C15 8UH D3621     -40.972 138.899   9.426  1.00 19.24     0.001 C 
HETATM   16  C16 8UH D3621     -49.966 147.293  10.264  1.00 23.73     0.020 C 
HETATM   17  C17 8UH D3621     -49.470 145.252  11.583  1.00 23.42     0.020 C 
HETATM   18  C18 8UH D3621     -46.263 148.636  13.145  1.00 22.78     0.044 C 
HETATM   19  C19 8UH D3621     -44.835 145.830   8.759  1.00 16.12     0.048 C 
HETATM   20  C20 8UH D3621     -41.723 141.565   8.047  1.00 17.75     0.048 C 
HETATM   21  O3  8UH D3621     -50.962 149.023  14.199  1.00 21.52    -0.395 OA
ATOM     22  H3  8UH D3621     -51.843 148.669  14.228  1.00  0.00     0.210 HD
HETATM   23  C21 8UH D3621     -34.016 128.248   6.886  1.00 87.69    -0.018 C 
HETATM   24  C22 8UH D3621     -33.435 127.879   5.535  1.00 87.69     0.045 C 
HETATM   25  C23 8UH D3621     -31.960 128.201   5.314  1.00 87.69     0.123 C 
HETATM   26  C24 8UH D3621     -31.432 129.397   6.093  1.00 87.69     0.066 C 
HETATM   27  C25 8UH D3621     -32.516 130.201   6.765  1.00 87.69    -0.074 C 
HETATM   28  C26 8UH D3621     -33.569 129.615   7.329  1.00 87.69    -0.048 C 
HETATM   29  C27 8UH D3621     -34.306 130.272   8.432  1.00 87.69     0.009 C 
HETATM   30  C28 8UH D3621     -35.227 131.197   8.182  1.00 87.69     0.007 C 
HETATM   31  C29 8UH D3621     -36.026 131.886   9.246  1.00 21.21    -0.062 C 
HETATM   32  C30 8UH D3621     -36.896 132.850   8.859  1.00 20.08     0.007 C 
HETATM   33  C31 8UH D3621     -37.742 133.636   9.728  1.00 17.89     0.001 C 
HETATM   34  C32 8UH D3621     -38.431 134.723   9.303  1.00 17.64     0.007 C 
HETATM   35  C33 8UH D3621     -39.284 135.639  10.100  1.00 17.45    -0.062 C 
HETATM   36  C34 8UH D3621     -39.784 136.738   9.486  1.00 15.95     0.007 C 
HETATM   37  C35 8UH D3621     -40.599 137.785  10.083  1.00 18.41     0.001 C 
HETATM   38  C36 8UH D3621     -33.679 127.188   7.930  1.00 87.69     0.020 C 
HETATM   39  C37 8UH D3621     -35.519 128.294   6.727  1.00 87.69     0.020 C 
HETATM   40  C38 8UH D3621     -31.727 131.246   7.491  1.00 87.69     0.044 C 
HETATM   41  C39 8UH D3621     -35.755 131.532  10.684  1.00 22.05     0.048 C 
HETATM   42  C40 8UH D3621     -39.472 135.321  11.563  1.00 11.49     0.048 C 
HETATM   43  O23 8UH D3621     -31.215 127.051   5.710  1.00 87.69    -0.395 OA
ATOM     44  H23 8UH D3621     -30.297 127.251   5.573  1.00  0.00     0.210 HD
ENDROOT
TORSDOF 12
