REMARK VINA RESULT:    -9.769      0.000      0.000
REMARK INTER + INTRA:         -12.052
REMARK INTER:                  -9.769
REMARK INTRA:                  -2.283
REMARK UNBOUND:                -2.283
REMARK  0 active torsions:
REMARK  status: ('A' for Active; 'I' for Inactive)
REMARK       I    between atoms: C3_3  and  O3_21 
REMARK       I    between atoms: C6_6  and  C7_7 
REMARK       I    between atoms: C8_8  and  C9_9 
REMARK       I    between atoms: C10_10  and  C11_11 
REMARK       I    between atoms: C12_12  and  C13_13 
REMARK       I    between atoms: C14_14  and  C15_15 
REMARK       I    between atoms: C23_25  and  O23_43 
REMARK       I    between atoms: C26_28  and  C27_29 
REMARK       I    between atoms: C28_30  and  C29_31 
REMARK       I    between atoms: C30_32  and  C31_33 
REMARK       I    between atoms: C32_34  and  C33_35 
REMARK       I    between atoms: C34_36  and  C35_37 
ROOT
HETATM    1  C1  8UH G1620     -48.511 145.063  12.086  1.00 66.29    -0.018 C 
HETATM    2  C2  8UH G1620     -49.271 145.279  13.389  1.00 66.29     0.045 C 
HETATM    3  C3  8UH G1620     -48.580 146.044  14.507  1.00 66.29     0.123 C 
HETATM    4  C4  8UH G1620     -47.639 147.097  13.961  1.00 66.29     0.066 C 
HETATM    5  C5  8UH G1620     -46.667 146.451  13.020  1.00 66.29    -0.074 C 
HETATM    6  C6  8UH G1620     -47.081 145.571  12.102  1.00 66.29    -0.048 C 
HETATM    7  C7  8UH G1620     -46.148 145.078  11.056  1.00 66.29     0.009 C 
HETATM    8  C8  8UH G1620     -45.357 144.023  11.266  1.00 66.29     0.007 C 
HETATM    9  C9  8UH G1620     -44.436 143.509  10.244  1.00 66.29    -0.062 C 
HETATM   10  C10 8UH G1620     -43.632 142.502  10.595  1.00 66.29     0.007 C 
HETATM   11  C11 8UH G1620     -42.683 141.885   9.684  1.00 66.29     0.001 C 
HETATM   12  C12 8UH G1620     -42.122 140.768  10.122  1.00 66.29     0.007 C 
HETATM   13  C13 8UH G1620     -41.152 139.992   9.338  1.00 66.29    -0.062 C 
HETATM   14  C14 8UH G1620     -40.757 138.816   9.837  1.00 66.29     0.007 C 
HETATM   15  C15 8UH G1620     -39.821 137.951   9.138  1.00 66.29     0.001 C 
HETATM   16  C16 8UH G1620     -49.313 145.726  10.973  1.00 66.29     0.020 C 
HETATM   17  C17 8UH G1620     -48.473 143.565  11.824  1.00 66.29     0.020 C 
HETATM   18  C18 8UH G1620     -45.320 147.111  12.958  1.00 66.29     0.044 C 
HETATM   19  C19 8UH G1620     -44.414 144.090   8.863  1.00 66.29     0.048 C 
HETATM   20  C20 8UH G1620     -40.636 140.496   8.025  1.00 66.29     0.048 C 
HETATM   21  O3  8UH G1620     -49.579 146.691  15.300  1.00 66.29    -0.395 OA
ATOM     22  H3  8UH G1620     -50.169 146.030  15.643  1.00  0.00     0.210 HD
HETATM   23  C21 8UH G1620     -34.164 126.724   6.629  1.00 27.99    -0.018 C 
HETATM   24  C22 8UH G1620     -34.081 126.237   5.176  1.00 27.99     0.045 C 
HETATM   25  C23 8UH G1620     -33.494 127.234   4.186  1.00 27.99     0.123 C 
HETATM   26  C24 8UH G1620     -32.310 127.922   4.836  1.00 27.99     0.066 C 
HETATM   27  C25 8UH G1620     -32.886 128.739   5.956  1.00 27.99    -0.074 C 
HETATM   28  C26 8UH G1620     -33.645 128.134   6.877  1.00 27.99    -0.048 C 
HETATM   29  C27 8UH G1620     -34.198 128.862   8.042  1.00 27.99     0.009 C 
HETATM   30  C28 8UH G1620     -34.602 130.126   7.856  1.00 27.99     0.007 C 
HETATM   31  C29 8UH G1620     -35.386 130.804   8.915  1.00 66.29    -0.062 C 
HETATM   32  C30 8UH G1620     -36.071 131.884   8.531  1.00 66.29     0.007 C 
HETATM   33  C31 8UH G1620     -36.911 132.683   9.410  1.00 66.29     0.001 C 
HETATM   34  C32 8UH G1620     -37.417 133.785   8.872  1.00 66.29     0.007 C 
HETATM   35  C33 8UH G1620     -38.303 134.697   9.605  1.00 66.29    -0.062 C 
HETATM   36  C34 8UH G1620     -38.712 135.808   8.984  1.00 66.29     0.007 C 
HETATM   37  C35 8UH G1620     -39.612 136.742   9.644  1.00 66.29     0.001 C 
HETATM   38  C36 8UH G1620     -33.227 125.850   7.465  1.00 27.99     0.020 C 
HETATM   39  C37 8UH G1620     -35.603 126.555   7.112  1.00 27.99     0.020 C 
HETATM   40  C38 8UH G1620     -31.998 129.912   6.272  1.00 27.99     0.044 C 
HETATM   41  C39 8UH G1620     -35.407 130.314  10.333  1.00 66.29     0.048 C 
HETATM   42  C40 8UH G1620     -38.740 134.366  11.001  1.00 66.29     0.048 C 
HETATM   43  O23 8UH G1620     -33.084 126.562   2.988  1.00 27.99    -0.395 OA
ATOM     44  H23 8UH G1620     -33.827 126.131   2.581  1.00  0.00     0.210 HD
ENDROOT
TORSDOF 12
