REMARK VINA RESULT:    -7.988      0.931     16.921
REMARK INTER + INTRA:         -10.506
REMARK INTER:                 -10.453
REMARK INTRA:                  -0.053
REMARK UNBOUND:                -2.518
REMARK  0 active torsions:
REMARK  status: ('A' for Active; 'I' for Inactive)
REMARK       I    between atoms: C3_3  and  O3_21 
REMARK       I    between atoms: C6_6  and  C7_7 
REMARK       I    between atoms: C8_8  and  C9_9 
REMARK       I    between atoms: C10_10  and  C11_11 
REMARK       I    between atoms: C12_12  and  C13_13 
REMARK       I    between atoms: C14_14  and  C15_15 
REMARK       I    between atoms: C23_25  and  O23_43 
REMARK       I    between atoms: C26_28  and  C27_29 
REMARK       I    between atoms: C28_30  and  C29_31 
REMARK       I    between atoms: C30_32  and  C31_33 
REMARK       I    between atoms: C32_34  and  C33_35 
REMARK       I    between atoms: C34_36  and  C35_37 
ROOT
HETATM    1  C1  8UH 1 316     -50.111 144.897  12.833  1.00 73.24    -0.018 C 
HETATM    2  C2  8UH 1 316     -50.595 145.438  14.182  1.00 72.84     0.045 C 
HETATM    3  C3  8UH 1 316     -49.702 146.465  14.867  1.00 72.53     0.123 C 
HETATM    4  C4  8UH 1 316     -49.169 147.456  13.850  1.00 72.61     0.066 C 
HETATM    5  C5  8UH 1 316     -48.401 146.714  12.789  1.00 72.68    -0.074 C 
HETATM    6  C6  8UH 1 316     -48.876 145.580  12.272  1.00 72.79    -0.048 C 
HETATM    7  C7  8UH 1 316     -48.181 144.955  11.120  1.00 71.90     0.009 C 
HETATM    8  C8  8UH 1 316     -47.125 144.161  11.316  1.00 71.51     0.007 C 
HETATM    9  C9  8UH 1 316     -46.396 143.507  10.209  1.00 70.48    -0.062 C 
HETATM   10  C10 8UH 1 316     -45.386 142.681  10.521  1.00 69.46     0.007 C 
HETATM   11  C11 8UH 1 316     -44.574 141.955   9.546  1.00 69.85     0.001 C 
HETATM   12  C12 8UH 1 316     -43.632 141.154  10.042  1.00 72.15     0.007 C 
HETATM   13  C13 8UH 1 316     -42.721 140.324   9.223  1.00 73.74    -0.062 C 
HETATM   14  C14 8UH 1 316     -41.998 139.381   9.854  1.00 74.04     0.007 C 
HETATM   15  C15 8UH 1 316     -41.081 138.477   9.162  1.00 74.62     0.001 C 
HETATM   16  C16 8UH 1 316     -51.246 145.052  11.829  1.00 72.68     0.020 C 
HETATM   17  C17 8UH 1 316     -49.786 143.418  13.002  1.00 73.05     0.020 C 
HETATM   18  C18 8UH 1 316     -47.290 147.460  12.107  1.00 72.13     0.044 C 
HETATM   19  C19 8UH 1 316     -46.773 143.767   8.780  1.00 70.45     0.048 C 
HETATM   20  C20 8UH 1 316     -42.608 140.532   7.738  1.00 72.89     0.048 C 
HETATM   21  O3  8UH 1 316     -50.462 147.169  15.860  1.00 71.04    -0.395 OA
ATOM     22  H3  8UH 1 316     -50.795 146.548  16.497  1.00  0.00     0.210 HD
HETATM   23  C21 8UH 1 316     -34.053 127.966   7.067  1.00 37.60    -0.018 C 
HETATM   24  C22 8UH 1 316     -33.237 127.135   6.092  1.00 37.60     0.045 C 
HETATM   25  C23 8UH 1 316     -32.351 127.902   5.139  1.00 37.60     0.123 C 
HETATM   26  C24 8UH 1 316     -31.526 128.897   5.915  1.00 37.60     0.066 C 
HETATM   27  C25 8UH 1 316     -32.364 129.775   6.793  1.00 37.60    -0.074 C 
HETATM   28  C26 8UH 1 316     -33.483 129.334   7.387  1.00 37.60    -0.048 C 
HETATM   29  C27 8UH 1 316     -34.181 130.149   8.419  1.00 37.60     0.009 C 
HETATM   30  C28 8UH 1 316     -35.035 131.135   8.125  1.00 37.60     0.007 C 
HETATM   31  C29 8UH 1 316     -35.723 131.918   9.164  1.00 94.72    -0.062 C 
HETATM   32  C30 8UH 1 316     -36.572 132.873   8.765  1.00 91.32     0.007 C 
HETATM   33  C31 8UH 1 316     -37.340 133.715   9.680  1.00 87.88     0.001 C 
HETATM   34  C32 8UH 1 316     -38.052 134.692   9.125  1.00 84.19     0.007 C 
HETATM   35  C33 8UH 1 316     -38.910 135.622   9.880  1.00 80.79    -0.062 C 
HETATM   36  C34 8UH 1 316     -39.543 136.601   9.206  1.00 78.84     0.007 C 
HETATM   37  C35 8UH 1 316     -40.439 137.545   9.869  1.00 76.79     0.001 C 
HETATM   38  C36 8UH 1 316     -34.240 127.099   8.302  1.00 37.60     0.020 C 
HETATM   39  C37 8UH 1 316     -35.413 128.218   6.462  1.00 37.60     0.020 C 
HETATM   40  C38 8UH 1 316     -31.668 131.038   7.195  1.00 37.60     0.044 C 
HETATM   41  C39 8UH 1 316     -35.488 131.644  10.619  1.00 95.37     0.048 C 
HETATM   42  C40 8UH 1 316     -39.087 135.458  11.360  1.00 90.13     0.048 C 
HETATM   43  O23 8UH 1 316     -31.441 126.984   4.538  1.00 37.60    -0.395 OA
ATOM     44  H23 8UH 1 316     -31.961 126.357   4.049  1.00  0.00     0.210 HD
ENDROOT
TORSDOF 12
