REMARK VINA RESULT:   -11.379      0.000      0.000
REMARK INTER + INTRA:         -12.126
REMARK INTER:                 -11.379
REMARK INTRA:                  -0.747
REMARK UNBOUND:                -0.747
REMARK  0 active torsions:
REMARK  status: ('A' for Active; 'I' for Inactive)
REMARK       I    between atoms: C3_3  and  O3_21 
REMARK       I    between atoms: C6_6  and  C7_7 
REMARK       I    between atoms: C8_8  and  C9_9 
REMARK       I    between atoms: C10_10  and  C11_11 
REMARK       I    between atoms: C12_12  and  C13_13 
REMARK       I    between atoms: C14_14  and  C15_15 
REMARK       I    between atoms: C23_25  and  O23_43 
REMARK       I    between atoms: C26_28  and  C27_29 
REMARK       I    between atoms: C28_30  and  C29_31 
REMARK       I    between atoms: C30_32  and  C31_33 
REMARK       I    between atoms: C32_34  and  C33_35 
REMARK       I    between atoms: C34_36  and  C35_37 
ROOT
HETATM    1  C1  8UH 21620     -50.173 144.269  12.432  1.00 97.95    -0.018 C 
HETATM    2  C2  8UH 21620     -50.651 144.584  13.845  1.00 97.95     0.045 C 
HETATM    3  C3  8UH 21620     -49.970 145.731  14.573  1.00 97.95     0.123 C 
HETATM    4  C4  8UH 21620     -49.622 146.861  13.630  1.00 97.95     0.066 C 
HETATM    5  C5  8UH 21620     -48.763 146.324  12.525  1.00 97.95    -0.074 C 
HETATM    6  C6  8UH 21620     -49.034 145.148  11.949  1.00 97.95    -0.048 C 
HETATM    7  C7  8UH 21620     -48.221 144.663  10.808  1.00 97.95     0.009 C 
HETATM    8  C8  8UH 21620     -47.123 143.933  11.000  1.00 97.95     0.007 C 
HETATM    9  C9  8UH 21620     -46.310 143.427   9.892  1.00 97.95    -0.062 C 
HETATM   10  C10 8UH 21620     -45.292 142.636  10.215  1.00 97.95     0.007 C 
HETATM   11  C11 8UH 21620     -44.399 142.039   9.239  1.00 97.95     0.001 C 
HETATM   12  C12 8UH 21620     -43.446 141.291   9.768  1.00 97.95     0.007 C 
HETATM   13  C13 8UH 21620     -42.449 140.566   8.975  1.00 97.95    -0.062 C 
HETATM   14  C14 8UH 21620     -41.782 139.614   9.627  1.00 97.95     0.007 C 
HETATM   15  C15 8UH 21620     -40.790 138.765   8.997  1.00 97.95     0.001 C 
HETATM   16  C16 8UH 21620     -51.390 144.379  11.519  1.00 97.95     0.020 C 
HETATM   17  C17 8UH 21620     -49.675 142.829  12.412  1.00 97.95     0.020 C 
HETATM   18  C18 8UH 21620     -47.684 147.244  12.033  1.00 97.95     0.044 C 
HETATM   19  C19 8UH 21620     -46.621 143.785   8.471  1.00 97.95     0.048 C 
HETATM   20  C20 8UH 21620     -42.207 140.860   7.525  1.00 97.95     0.048 C 
HETATM   21  O3  8UH 21620     -50.860 146.244  15.570  1.00 97.95    -0.395 OA
ATOM     22  H3  8UH 21620     -51.079 145.535  16.162  1.00  0.00     0.210 HD
HETATM   23  C21 8UH 21620     -34.143 128.410   6.963  1.00 87.69    -0.018 C 
HETATM   24  C22 8UH 21620     -33.446 128.109   5.649  1.00 87.69     0.045 C 
HETATM   25  C23 8UH 21620     -31.928 128.246   5.633  1.00 87.69     0.123 C 
HETATM   26  C24 8UH 21620     -31.359 129.271   6.603  1.00 87.69     0.066 C 
HETATM   27  C25 8UH 21620     -32.409 130.142   7.243  1.00 87.69    -0.074 C 
HETATM   28  C26 8UH 21620     -33.589 129.650   7.613  1.00 87.69    -0.048 C 
HETATM   29  C27 8UH 21620     -34.373 130.283   8.698  1.00 87.69     0.009 C 
HETATM   30  C28 8UH 21620     -35.134 131.346   8.460  1.00 87.69     0.007 C 
HETATM   31  C29 8UH 21620     -35.940 131.989   9.503  1.00 97.95    -0.062 C 
HETATM   32  C30 8UH 21620     -36.660 133.029   9.095  1.00 97.95     0.007 C 
HETATM   33  C31 8UH 21620     -37.543 133.814   9.936  1.00 97.95     0.001 C 
HETATM   34  C32 8UH 21620     -38.124 134.798   9.272  1.00 97.95     0.007 C 
HETATM   35  C33 8UH 21620     -39.067 135.728   9.888  1.00 97.95    -0.062 C 
HETATM   36  C34 8UH 21620     -39.565 136.691   9.113  1.00 97.95     0.007 C 
HETATM   37  C35 8UH 21620     -40.519 137.643   9.648  1.00 97.95     0.001 C 
HETATM   38  C36 8UH 21620     -34.072 127.211   7.903  1.00 87.69     0.020 C 
HETATM   39  C37 8UH 21620     -35.597 128.677   6.645  1.00 87.69     0.020 C 
HETATM   40  C38 8UH 21620     -31.595 130.988   8.171  1.00 87.69     0.044 C 
HETATM   41  C39 8UH 21620     -35.960 131.503  10.920  1.00 97.95     0.048 C 
HETATM   42  C40 8UH 21620     -39.447 135.592  11.329  1.00 97.95     0.048 C 
HETATM   43  O23 8UH 21620     -31.386 126.971   5.968  1.00 87.69    -0.395 OA
ATOM     44  H23 8UH 21620     -30.440 127.056   5.959  1.00  0.00     0.210 HD
ENDROOT
TORSDOF 12
