REMARK VINA RESULT:   -12.272      0.000      0.000
REMARK INTER + INTRA:         -15.109
REMARK INTER:                 -12.272
REMARK INTRA:                  -2.837
REMARK UNBOUND:                -2.837
REMARK  0 active torsions:
REMARK  status: ('A' for Active; 'I' for Inactive)
REMARK       I    between atoms: C3_3  and  O3_21 
REMARK       I    between atoms: C6_6  and  C7_7 
REMARK       I    between atoms: C8_8  and  C9_9 
REMARK       I    between atoms: C10_10  and  C11_11 
REMARK       I    between atoms: C12_12  and  C13_13 
REMARK       I    between atoms: C14_14  and  C15_15 
REMARK       I    between atoms: C23_25  and  O23_43 
REMARK       I    between atoms: C26_28  and  C27_29 
REMARK       I    between atoms: C28_30  and  C29_31 
REMARK       I    between atoms: C30_32  and  C31_33 
REMARK       I    between atoms: C32_34  and  C33_35 
REMARK       I    between atoms: C34_36  and  C35_37 
ROOT
HETATM    1  C1  8UH Y1621     -47.824 145.424  12.557  1.00 26.19    -0.018 C 
HETATM    2  C2  8UH Y1621     -48.634 145.980  13.721  1.00 26.65     0.045 C 
HETATM    3  C3  8UH Y1621     -47.877 146.734  14.796  1.00 28.07     0.123 C 
HETATM    4  C4  8UH Y1621     -46.788 147.594  14.209  1.00 30.07     0.066 C 
HETATM    5  C5  8UH Y1621     -45.874 146.733  13.397  1.00 28.83    -0.074 C 
HETATM    6  C6  8UH Y1621     -46.375 145.884  12.495  1.00 27.49    -0.048 C 
HETATM    7  C7  8UH Y1621     -45.548 145.351  11.383  1.00 29.45     0.009 C 
HETATM    8  C8  8UH Y1621     -44.607 144.422  11.569  1.00 27.83     0.007 C 
HETATM    9  C9  8UH Y1621     -43.817 143.864  10.467  1.00 26.06    -0.062 C 
HETATM   10  C10 8UH Y1621     -43.163 142.739  10.743  1.00 25.01     0.007 C 
HETATM   11  C11 8UH Y1621     -42.372 141.991   9.791  1.00 25.09     0.001 C 
HETATM   12  C12 8UH Y1621     -41.841 140.885  10.275  1.00 26.01     0.007 C 
HETATM   13  C13 8UH Y1621     -41.067 139.947   9.461  1.00 26.36    -0.062 C 
HETATM   14  C14 8UH Y1621     -40.661 138.814  10.041  1.00 27.67     0.007 C 
HETATM   15  C15 8UH Y1621     -39.922 137.811   9.293  1.00 28.38     0.001 C 
HETATM   16  C16 8UH Y1621     -48.578 145.855  11.312  1.00 26.46     0.020 C 
HETATM   17  C17 8UH Y1621     -47.810 143.905  12.645  1.00 26.61     0.020 C 
HETATM   18  C18 8UH Y1621     -44.645 147.547  13.162  1.00 29.43     0.044 C 
HETATM   19  C19 8UH Y1621     -43.770 144.511   9.120  1.00 26.07     0.048 C 
HETATM   20  C20 8UH Y1621     -40.802 140.233   8.015  1.00 25.83     0.048 C 
HETATM   21  O3  8UH Y1621     -48.792 147.569  15.501  1.00 27.44    -0.395 OA
ATOM     22  H3  8UH Y1621     -49.478 147.027  15.872  1.00  0.00     0.210 HD
HETATM   23  C21 8UH Y1621     -34.280 126.920   6.515  1.00 94.67    -0.018 C 
HETATM   24  C22 8UH Y1621     -33.999 126.317   5.145  1.00 94.67     0.045 C 
HETATM   25  C23 8UH Y1621     -33.177 127.159   4.192  1.00 94.67     0.123 C 
HETATM   26  C24 8UH Y1621     -32.017 127.755   4.941  1.00 94.67     0.066 C 
HETATM   27  C25 8UH Y1621     -32.523 128.617   6.054  1.00 94.67    -0.074 C 
HETATM   28  C26 8UH Y1621     -33.564 128.229   6.793  1.00 94.67    -0.048 C 
HETATM   29  C27 8UH Y1621     -34.046 129.059   7.923  1.00 94.67     0.009 C 
HETATM   30  C28 8UH Y1621     -34.955 130.013   7.737  1.00 94.67     0.007 C 
HETATM   31  C29 8UH Y1621     -35.470 130.838   8.821  1.00 29.73    -0.062 C 
HETATM   32  C30 8UH Y1621     -36.532 131.583   8.534  1.00 28.64     0.007 C 
HETATM   33  C31 8UH Y1621     -37.178 132.470   9.479  1.00 27.79     0.001 C 
HETATM   34  C32 8UH Y1621     -37.700 133.560   8.944  1.00 27.11     0.007 C 
HETATM   35  C33 8UH Y1621     -38.397 134.567   9.740  1.00 25.78    -0.062 C 
HETATM   36  C34 8UH Y1621     -38.854 135.672   9.147  1.00 26.10     0.007 C 
HETATM   37  C35 8UH Y1621     -39.571 136.689   9.900  1.00 27.22     0.001 C 
HETATM   38  C36 8UH Y1621     -33.889 125.851   7.530  1.00 94.67     0.020 C 
HETATM   39  C37 8UH Y1621     -35.772 127.198   6.600  1.00 94.67     0.020 C 
HETATM   40  C38 8UH Y1621     -31.765 129.885   6.312  1.00 94.67     0.044 C 
HETATM   41  C39 8UH Y1621     -34.827 130.820  10.167  1.00 32.37     0.048 C 
HETATM   42  C40 8UH Y1621     -38.589 134.330  11.194  1.00 25.14     0.048 C 
HETATM   43  O23 8UH Y1621     -32.658 126.311   3.166  1.00 94.67    -0.395 OA
ATOM     44  H23 8UH Y1621     -32.142 126.839   2.568  1.00  0.00     0.210 HD
ENDROOT
TORSDOF 12
