REMARK VINA RESULT:   -10.864      0.000      0.000
REMARK INTER + INTRA:         -13.496
REMARK INTER:                 -10.864
REMARK INTRA:                  -2.631
REMARK UNBOUND:                -2.631
REMARK  0 active torsions:
REMARK  status: ('A' for Active; 'I' for Inactive)
REMARK       I    between atoms: C3_3  and  O3_21 
REMARK       I    between atoms: C6_6  and  C7_7 
REMARK       I    between atoms: C8_8  and  C9_9 
REMARK       I    between atoms: C10_10  and  C11_11 
REMARK       I    between atoms: C12_12  and  C13_13 
REMARK       I    between atoms: C14_14  and  C15_15 
REMARK       I    between atoms: C23_25  and  O23_43 
REMARK       I    between atoms: C26_28  and  C27_29 
REMARK       I    between atoms: C28_30  and  C29_31 
REMARK       I    between atoms: C30_32  and  C31_33 
REMARK       I    between atoms: C32_34  and  C33_35 
REMARK       I    between atoms: C34_36  and  C35_37 
ROOT
HETATM    1  C1  8UH U1620     -33.661 129.151   7.068  1.00 22.99    -0.018 C 
HETATM    2  C2  8UH U1620     -32.857 129.835   5.982  1.00 22.99     0.045 C 
HETATM    3  C3  8UH U1620     -32.101 131.048   6.455  1.00 22.99     0.123 C 
HETATM    4  C4  8UH U1620     -31.204 130.566   7.560  1.00 22.99     0.066 C 
HETATM    5  C5  8UH U1620     -32.032 130.048   8.690  1.00 22.99    -0.074 C 
HETATM    6  C6  8UH U1620     -33.261 129.605   8.455  1.00 22.99    -0.048 C 
HETATM    7  C7  8UH U1620     -34.333 129.903   9.396  1.00 22.99     0.009 C 
HETATM    8  C8  8UH U1620     -34.788 131.127   9.106  1.00 22.99     0.007 C 
HETATM    9  C9  8UH U1620     -35.883 131.787   9.840  1.00 22.99    -0.062 C 
HETATM   10  C10 8UH U1620     -36.274 132.999   9.410  1.00 22.99     0.007 C 
HETATM   11  C11 8UH U1620     -37.367 133.746  10.018  1.00 22.99     0.001 C 
HETATM   12  C12 8UH U1620     -37.742 134.914   9.510  1.00 22.99     0.007 C 
HETATM   13  C13 8UH U1620     -38.888 135.623  10.090  1.00 22.99    -0.062 C 
HETATM   14  C14 8UH U1620     -39.323 136.705   9.437  1.00 22.99     0.007 C 
HETATM   15  C15 8UH U1620     -40.489 137.497   9.804  1.00 22.99     0.001 C 
HETATM   16  C16 8UH U1620     -33.476 127.666   6.828  1.00 22.99     0.020 C 
HETATM   17  C17 8UH U1620     -35.126 129.501   6.873  1.00 22.99     0.020 C 
HETATM   18  C18 8UH U1620     -31.667 130.916   9.851  1.00 22.99     0.044 C 
HETATM   19  C19 8UH U1620     -36.521 131.096  11.008  1.00 22.99     0.048 C 
HETATM   20  C20 8UH U1620     -39.547 135.054  11.304  1.00 22.99     0.048 C 
HETATM   21  O3  8UH U1620     -31.281 131.523   5.396  1.00 22.99    -0.395 OA
ATOM     22  H3  8UH U1620     -30.803 132.289   5.695  1.00  0.00     0.210 HD
HETATM   23  C21 8UH U1620     -50.315 145.345   8.716  1.00 48.43    -0.018 C 
HETATM   24  C22 8UH U1620     -51.582 145.637   9.508  1.00 44.61     0.045 C 
HETATM   25  C23 8UH U1620     -51.385 146.212  10.898  1.00 44.41     0.123 C 
HETATM   26  C24 8UH U1620     -50.287 147.248  10.899  1.00 41.53     0.066 C 
HETATM   27  C25 8UH U1620     -49.024 146.580  10.453  1.00 37.72    -0.074 C 
HETATM   28  C26 8UH U1620     -49.024 145.814   9.363  1.00 43.52    -0.048 C 
HETATM   29  C27 8UH U1620     -47.761 145.404   8.704  1.00 44.60     0.009 C 
HETATM   30  C28 8UH U1620     -47.036 144.381   9.139  1.00 43.22     0.007 C 
HETATM   31  C29 8UH U1620     -45.801 143.954   8.443  1.00 22.99    -0.062 C 
HETATM   32  C30 8UH U1620     -45.225 142.840   8.927  1.00 22.99     0.007 C 
HETATM   33  C31 8UH U1620     -44.023 142.198   8.397  1.00 22.99     0.001 C 
HETATM   34  C32 8UH U1620     -43.574 141.096   8.999  1.00 22.99     0.007 C 
HETATM   35  C33 8UH U1620     -42.372 140.374   8.547  1.00 22.99    -0.062 C 
HETATM   36  C34 8UH U1620     -41.993 139.311   9.276  1.00 22.99     0.007 C 
HETATM   37  C35 8UH U1620     -40.824 138.489   8.987  1.00 22.99     0.001 C 
HETATM   38  C36 8UH U1620     -50.533 145.965   7.340  1.00 47.48     0.020 C 
HETATM   39  C37 8UH U1620     -50.148 143.842   8.572  1.00 54.25     0.020 C 
HETATM   40  C38 8UH U1620     -47.807 147.299  10.931  1.00 37.77     0.044 C 
HETATM   41  C39 8UH U1620     -45.300 144.711   7.247  1.00 22.99     0.048 C 
HETATM   42  C40 8UH U1620     -41.659 140.833   7.311  1.00 22.99     0.048 C 
HETATM   43  O23 8UH U1620     -52.600 146.833  11.317  1.00 48.83    -0.395 OA
ATOM     44  H23 8UH U1620     -52.477 147.192  12.188  1.00  0.00     0.210 HD
ENDROOT
TORSDOF 12
