REMARK VINA RESULT:   -12.007      0.000      0.000
REMARK INTER + INTRA:         -14.510
REMARK INTER:                 -12.007
REMARK INTRA:                  -2.503
REMARK UNBOUND:                -2.503
REMARK  0 active torsions:
REMARK  status: ('A' for Active; 'I' for Inactive)
REMARK       I    between atoms: C3_3  and  O3_21 
REMARK       I    between atoms: C6_6  and  C7_7 
REMARK       I    between atoms: C8_8  and  C9_9 
REMARK       I    between atoms: C10_10  and  C11_11 
REMARK       I    between atoms: C12_12  and  C13_13 
REMARK       I    between atoms: C14_14  and  C15_15 
REMARK       I    between atoms: C23_25  and  O23_43 
REMARK       I    between atoms: C26_28  and  C27_29 
REMARK       I    between atoms: C28_30  and  C29_31 
REMARK       I    between atoms: C30_32  and  C31_33 
REMARK       I    between atoms: C32_34  and  C33_35 
REMARK       I    between atoms: C34_36  and  C35_37 
ROOT
HETATM    1  C1  8UH F5620     -49.175 144.748  12.356  1.00 19.30    -0.018 C 
HETATM    2  C2  8UH F5620     -49.710 145.345  13.672  1.00 17.68     0.045 C 
HETATM    3  C3  8UH F5620     -48.924 146.467  14.342  1.00 17.79     0.123 C 
HETATM    4  C4  8UH F5620     -47.962 147.231  13.431  1.00 18.50     0.066 C 
HETATM    5  C5  8UH F5620     -47.312 146.506  12.298  1.00 19.40    -0.074 C 
HETATM    6  C6  8UH F5620     -47.853 145.346  11.778  1.00 19.02    -0.048 C 
HETATM    7  C7  8UH F5620     -47.205 144.622  10.674  1.00 18.60     0.009 C 
HETATM    8  C8  8UH F5620     -46.126 143.815  10.760  1.00 18.09     0.007 C 
HETATM    9  C9  8UH F5620     -45.403 143.185   9.652  1.00 18.23    -0.062 C 
HETATM   10  C10 8UH F5620     -44.407 142.326   9.959  1.00 15.81     0.007 C 
HETATM   11  C11 8UH F5620     -43.590 141.590   9.035  1.00 18.00     0.001 C 
HETATM   12  C12 8UH F5620     -42.762 140.638   9.493  1.00 18.12     0.007 C 
HETATM   13  C13 8UH F5620     -41.886 139.739   8.752  1.00 18.88    -0.062 C 
HETATM   14  C14 8UH F5620     -41.236 138.790   9.459  1.00 21.10     0.007 C 
HETATM   15  C15 8UH F5620     -40.391 137.739   8.958  1.00 24.06     0.001 C 
HETATM   16  C16 8UH F5620     -50.328 144.985  11.365  1.00 17.17     0.020 C 
HETATM   17  C17 8UH F5620     -49.039 143.224  12.573  1.00 16.95     0.020 C 
HETATM   18  C18 8UH F5620     -46.071 147.240  11.904  1.00 19.80     0.044 C 
HETATM   19  C19 8UH F5620     -45.856 143.501   8.244  1.00 17.09     0.048 C 
HETATM   20  C20 8UH F5620     -41.826 139.879   7.263  1.00 16.35     0.048 C 
HETATM   21  O3  8UH F5620     -49.809 147.371  14.978  1.00 17.38    -0.395 OA
ATOM     22  H3  8UH F5620     -49.320 148.070  15.395  1.00  0.00     0.210 HD
HETATM   23  C21 8UH F5620     -34.304 127.052   6.524  1.00 97.95    -0.018 C 
HETATM   24  C22 8UH F5620     -33.996 126.589   5.104  1.00 97.95     0.045 C 
HETATM   25  C23 8UH F5620     -32.924 127.347   4.339  1.00 97.95     0.123 C 
HETATM   26  C24 8UH F5620     -31.795 127.784   5.246  1.00 97.95     0.066 C 
HETATM   27  C25 8UH F5620     -32.361 128.608   6.363  1.00 97.95    -0.074 C 
HETATM   28  C26 8UH F5620     -33.497 128.255   6.976  1.00 97.95    -0.048 C 
HETATM   29  C27 8UH F5620     -34.006 129.038   8.126  1.00 97.95     0.009 C 
HETATM   30  C28 8UH F5620     -34.820 130.079   7.952  1.00 97.95     0.007 C 
HETATM   31  C29 8UH F5620     -35.376 130.891   9.069  1.00 26.61    -0.062 C 
HETATM   32  C30 8UH F5620     -36.190 131.913   8.733  1.00 25.24     0.007 C 
HETATM   33  C31 8UH F5620     -36.877 132.794   9.631  1.00 26.40     0.001 C 
HETATM   34  C32 8UH F5620     -37.631 133.813   9.177  1.00 26.29     0.007 C 
HETATM   35  C33 8UH F5620     -38.383 134.808   9.948  1.00 26.99    -0.062 C 
HETATM   36  C34 8UH F5620     -39.038 135.767   9.258  1.00 26.65     0.007 C 
HETATM   37  C35 8UH F5620     -39.830 136.845   9.780  1.00 25.43     0.001 C 
HETATM   38  C36 8UH F5620     -34.077 125.853   7.440  1.00 97.95     0.020 C 
HETATM   39  C37 8UH F5620     -35.775 127.442   6.584  1.00 97.95     0.020 C 
HETATM   40  C38 8UH F5620     -31.508 129.754   6.822  1.00 97.95     0.044 C 
HETATM   41  C39 8UH F5620     -35.007 130.539  10.489  1.00 26.87     0.048 C 
HETATM   42  C40 8UH F5620     -38.352 134.707  11.444  1.00 24.17     0.048 C 
HETATM   43  O23 8UH F5620     -32.376 126.490   3.332  1.00 97.95    -0.395 OA
ATOM     44  H23 8UH F5620     -33.086 126.215   2.763  1.00  0.00     0.210 HD
ENDROOT
TORSDOF 12
