REMARK VINA RESULT:   -10.927      0.000      0.000
REMARK INTER + INTRA:         -13.729
REMARK INTER:                 -10.927
REMARK INTRA:                  -2.802
REMARK UNBOUND:                -2.802
REMARK  0 active torsions:
REMARK  status: ('A' for Active; 'I' for Inactive)
REMARK       I    between atoms: C3_3  and  O3_21 
REMARK       I    between atoms: C6_6  and  C7_7 
REMARK       I    between atoms: C8_8  and  C9_9 
REMARK       I    between atoms: C10_10  and  C11_11 
REMARK       I    between atoms: C12_12  and  C13_13 
REMARK       I    between atoms: C14_14  and  C15_15 
REMARK       I    between atoms: C23_25  and  O23_43 
REMARK       I    between atoms: C26_28  and  C27_29 
REMARK       I    between atoms: C28_30  and  C29_31 
REMARK       I    between atoms: C30_32  and  C31_33 
REMARK       I    between atoms: C32_34  and  C33_35 
REMARK       I    between atoms: C34_36  and  C35_37 
ROOT
HETATM    1  C1  8UH W1620     -33.681 129.274   7.039  1.00 24.23    -0.018 C 
HETATM    2  C2  8UH W1620     -32.867 129.986   5.981  1.00 24.23     0.045 C 
HETATM    3  C3  8UH W1620     -32.122 131.191   6.490  1.00 24.23     0.123 C 
HETATM    4  C4  8UH W1620     -31.237 130.690   7.595  1.00 24.23     0.066 C 
HETATM    5  C5  8UH W1620     -32.076 130.142   8.702  1.00 24.23    -0.074 C 
HETATM    6  C6  8UH W1620     -33.299 129.698   8.442  1.00 24.23    -0.048 C 
HETATM    7  C7  8UH W1620     -34.384 129.966   9.378  1.00 24.23     0.009 C 
HETATM    8  C8  8UH W1620     -34.843 131.194   9.113  1.00 24.23     0.007 C 
HETATM    9  C9  8UH W1620     -35.951 131.828   9.851  1.00 24.23    -0.062 C 
HETATM   10  C10 8UH W1620     -36.345 133.049   9.446  1.00 24.23     0.007 C 
HETATM   11  C11 8UH W1620     -37.449 133.772  10.059  1.00 24.23     0.001 C 
HETATM   12  C12 8UH W1620     -37.826 134.950   9.576  1.00 24.23     0.007 C 
HETATM   13  C13 8UH W1620     -38.984 135.638  10.159  1.00 24.23    -0.062 C 
HETATM   14  C14 8UH W1620     -39.419 136.733   9.530  1.00 24.23     0.007 C 
HETATM   15  C15 8UH W1620     -40.593 137.510   9.902  1.00 24.23     0.001 C 
HETATM   16  C16 8UH W1620     -33.488 127.795   6.769  1.00 24.23     0.020 C 
HETATM   17  C17 8UH W1620     -35.144 129.623   6.835  1.00 24.23     0.020 C 
HETATM   18  C18 8UH W1620     -31.729 130.983   9.887  1.00 24.23     0.044 C 
HETATM   19  C19 8UH W1620     -36.597 131.105  10.993  1.00 24.23     0.048 C 
HETATM   20  C20 8UH W1620     -39.652 135.036  11.351  1.00 24.23     0.048 C 
HETATM   21  O3  8UH W1620     -31.291 131.693   5.452  1.00 24.23    -0.395 OA
ATOM     22  H3  8UH W1620     -31.851 132.010   4.753  1.00  0.00     0.210 HD
HETATM   23  C21 8UH W1620     -50.442 145.012   9.025  1.00 45.52    -0.018 C 
HETATM   24  C22 8UH W1620     -51.176 143.903   9.775  1.00 45.52     0.045 C 
HETATM   25  C23 8UH W1620     -50.742 143.737  11.226  1.00 45.52     0.123 C 
HETATM   26  C24 8UH W1620     -50.345 145.087  11.794  1.00 45.52     0.066 C 
HETATM   27  C25 8UH W1620     -49.130 145.533  11.035  1.00 45.52    -0.074 C 
HETATM   28  C26 8UH W1620     -49.161 145.427   9.699  1.00 45.52    -0.048 C 
HETATM   29  C27 8UH W1620     -47.921 145.403   8.918  1.00 45.52     0.009 C 
HETATM   30  C28 8UH W1620     -47.177 144.372   9.323  1.00 45.52     0.007 C 
HETATM   31  C29 8UH W1620     -45.932 143.964   8.638  1.00 24.23    -0.062 C 
HETATM   32  C30 8UH W1620     -45.353 142.841   9.100  1.00 24.23     0.007 C 
HETATM   33  C31 8UH W1620     -44.141 142.221   8.569  1.00 24.23     0.001 C 
HETATM   34  C32 8UH W1620     -43.694 141.108   9.148  1.00 24.23     0.007 C 
HETATM   35  C33 8UH W1620     -42.481 140.403   8.694  1.00 24.23    -0.062 C 
HETATM   36  C34 8UH W1620     -42.102 139.326   9.400  1.00 24.23     0.007 C 
HETATM   37  C35 8UH W1620     -40.926 138.516   9.106  1.00 24.23     0.001 C 
HETATM   38  C36 8UH W1620     -51.324 146.254   8.972  1.00 45.52     0.020 C 
HETATM   39  C37 8UH W1620     -50.114 144.564   7.608  1.00 45.52     0.020 C 
HETATM   40  C38 8UH W1620     -47.908 145.910  11.838  1.00 45.52     0.044 C 
HETATM   41  C39 8UH W1620     -45.421 144.753   7.467  1.00 24.23     0.048 C 
HETATM   42  C40 8UH W1620     -41.758 140.898   7.478  1.00 24.23     0.048 C 
HETATM   43  O23 8UH W1620     -51.817 143.199  12.001  1.00 45.52    -0.395 OA
ATOM     44  H23 8UH W1620     -52.065 142.355  11.645  1.00  0.00     0.210 HD
ENDROOT
TORSDOF 12
