REMARK VINA RESULT:    -9.701      1.200     15.836
REMARK INTER + INTRA:         -11.905
REMARK INTER:                  -9.129
REMARK INTRA:                  -2.776
REMARK UNBOUND:                -2.204
REMARK  0 active torsions:
REMARK  status: ('A' for Active; 'I' for Inactive)
REMARK       I    between atoms: C3_3  and  O3_21 
REMARK       I    between atoms: C6_6  and  C7_7 
REMARK       I    between atoms: C8_8  and  C9_9 
REMARK       I    between atoms: C10_10  and  C11_11 
REMARK       I    between atoms: C12_12  and  C13_13 
REMARK       I    between atoms: C14_14  and  C15_15 
REMARK       I    between atoms: C23_25  and  O23_43 
REMARK       I    between atoms: C26_28  and  C27_29 
REMARK       I    between atoms: C28_30  and  C29_31 
REMARK       I    between atoms: C30_32  and  C31_33 
REMARK       I    between atoms: C32_34  and  C33_35 
REMARK       I    between atoms: C34_36  and  C35_37 
ROOT
HETATM    1  C1  8UH 61620     -34.487 128.140   6.575  1.00 97.95    -0.018 C 
HETATM    2  C2  8UH 61620     -33.670 127.864   5.317  1.00 97.95     0.045 C 
HETATM    3  C3  8UH 61620     -32.286 128.484   5.234  1.00 97.95     0.123 C 
HETATM    4  C4  8UH 61620     -31.601 128.501   6.582  1.00 97.95     0.066 C 
HETATM    5  C5  8UH 61620     -32.472 129.232   7.559  1.00 97.95    -0.074 C 
HETATM    6  C6  8UH 61620     -33.796 129.042   7.580  1.00 97.95    -0.048 C 
HETATM    7  C7  8UH 61620     -34.637 129.713   8.601  1.00 97.95     0.009 C 
HETATM    8  C8  8UH 61620     -35.155 130.921   8.386  1.00 97.95     0.007 C 
HETATM    9  C9  8UH 61620     -36.001 131.600   9.369  1.00 97.95    -0.062 C 
HETATM   10  C10 8UH 61620     -36.529 132.763   8.996  1.00 97.95     0.007 C 
HETATM   11  C11 8UH 61620     -37.402 133.556   9.842  1.00 97.95     0.001 C 
HETATM   12  C12 8UH 61620     -37.812 134.682   9.285  1.00 97.95     0.007 C 
HETATM   13  C13 8UH 61620     -38.723 135.627   9.941  1.00 97.95    -0.062 C 
HETATM   14  C14 8UH 61620     -39.291 136.523   9.136  1.00 97.95     0.007 C 
HETATM   15  C15 8UH 61620     -40.251 137.509   9.595  1.00 97.95     0.001 C 
HETATM   16  C16 8UH 61620     -34.831 126.784   7.184  1.00 97.95     0.020 C 
HETATM   17  C17 8UH 61620     -35.779 128.830   6.157  1.00 97.95     0.020 C 
HETATM   18  C18 8UH 61620     -31.751 130.068   8.574  1.00 97.95     0.044 C 
HETATM   19  C19 8UH 61620     -36.259 131.007  10.720  1.00 97.95     0.048 C 
HETATM   20  C20 8UH 61620     -39.011 135.576  11.410  1.00 97.95     0.048 C 
HETATM   21  O3  8UH 61620     -31.481 127.707   4.339  1.00 97.95    -0.395 OA
ATOM     22  H3  8UH 61620     -30.615 128.095   4.287  1.00  0.00     0.210 HD
HETATM   23  C21 8UH 61620     -49.654 144.551   9.630  1.00 22.99    -0.018 C 
HETATM   24  C22 8UH 61620     -49.708 144.373  11.133  1.00 22.99     0.045 C 
HETATM   25  C23 8UH 61620     -48.438 144.768  11.841  1.00 22.99     0.123 C 
HETATM   26  C24 8UH 61620     -48.200 146.207  11.483  1.00 22.99     0.066 C 
HETATM   27  C25 8UH 61620     -47.985 146.331  10.009  1.00 22.99    -0.074 C 
HETATM   28  C26 8UH 61620     -48.489 145.412   9.193  1.00 22.99    -0.048 C 
HETATM   29  C27 8UH 61620     -47.712 144.953   8.049  1.00 22.99     0.009 C 
HETATM   30  C28 8UH 61620     -46.873 144.009   8.490  1.00 22.99     0.007 C 
HETATM   31  C29 8UH 61620     -45.926 143.304   7.626  1.00 97.95    -0.062 C 
HETATM   32  C30 8UH 61620     -45.185 142.382   8.230  1.00 97.95     0.007 C 
HETATM   33  C31 8UH 61620     -44.192 141.550   7.579  1.00 97.95     0.001 C 
HETATM   34  C32 8UH 61620     -43.593 140.730   8.425  1.00 97.95     0.007 C 
HETATM   35  C33 8UH 61620     -42.563 139.779   8.018  1.00 97.95    -0.062 C 
HETATM   36  C34 8UH 61620     -42.021 139.024   8.973  1.00 97.95     0.007 C 
HETATM   37  C35 8UH 61620     -41.003 138.044   8.645  1.00 97.95     0.001 C 
HETATM   38  C36 8UH 61620     -51.009 145.108   9.244  1.00 22.99     0.020 C 
HETATM   39  C37 8UH 61620     -49.483 143.184   8.991  1.00 22.99     0.020 C 
HETATM   40  C38 8UH 61620     -46.609 146.898   9.878  1.00 22.99     0.044 C 
HETATM   41  C39 8UH 61620     -45.812 143.594   6.160  1.00 97.95     0.048 C 
HETATM   42  C40 8UH 61620     -42.143 139.669   6.586  1.00 97.95     0.048 C 
HETATM   43  O23 8UH 61620     -48.648 144.691  13.244  1.00 22.99    -0.395 OA
ATOM     44  H23 8UH 61620     -47.847 144.940  13.691  1.00  0.00     0.210 HD
ENDROOT
TORSDOF 12
