REMARK VINA RESULT:   -10.117      0.000      0.000
REMARK INTER + INTRA:         -14.121
REMARK INTER:                 -10.117
REMARK INTRA:                  -4.004
REMARK UNBOUND:                -4.004
REMARK  0 active torsions:
REMARK  status: ('A' for Active; 'I' for Inactive)
REMARK       I    between atoms: C3_3  and  O3_21 
REMARK       I    between atoms: C6_6  and  C7_7 
REMARK       I    between atoms: C8_8  and  C9_9 
REMARK       I    between atoms: C10_10  and  C11_11 
REMARK       I    between atoms: C12_12  and  C13_13 
REMARK       I    between atoms: C14_14  and  C15_15 
REMARK       I    between atoms: C23_25  and  O23_43 
REMARK       I    between atoms: C26_28  and  C27_29 
REMARK       I    between atoms: C28_30  and  C29_31 
REMARK       I    between atoms: C30_32  and  C31_33 
REMARK       I    between atoms: C32_34  and  C33_35 
REMARK       I    between atoms: C34_36  and  C35_37 
ROOT
HETATM    1  C1  8UH D3621     -47.685 145.596  12.607  1.00 23.41    -0.018 C 
HETATM    2  C2  8UH D3621     -48.574 146.167  13.725  1.00 23.79     0.045 C 
HETATM    3  C3  8UH D3621     -47.954 146.930  14.893  1.00 23.28     0.123 C 
HETATM    4  C4  8UH D3621     -46.543 147.470  14.611  1.00 23.70     0.066 C 
HETATM    5  C5  8UH D3621     -45.708 146.902  13.500  1.00 23.84    -0.074 C 
HETATM    6  C6  8UH D3621     -46.193 146.033  12.543  1.00 22.99    -0.048 C 
HETATM    7  C7  8UH D3621     -45.391 145.465  11.426  1.00 20.55     0.009 C 
HETATM    8  C8  8UH D3621     -44.561 144.406  11.534  1.00 19.35     0.007 C 
HETATM    9  C9  8UH D3621     -43.682 143.790  10.537  1.00 18.45    -0.062 C 
HETATM   10  C10 8UH D3621     -43.053 142.646  10.888  1.00 18.11     0.007 C 
HETATM   11  C11 8UH D3621     -42.223 141.826  10.052  1.00 18.44     0.001 C 
HETATM   12  C12 8UH D3621     -41.705 140.651  10.479  1.00 19.34     0.007 C 
HETATM   13  C13 8UH D3621     -40.929 139.699   9.662  1.00 20.12    -0.062 C 
HETATM   14  C14 8UH D3621     -40.505 138.549  10.239  1.00 19.73     0.007 C 
HETATM   15  C15 8UH D3621     -39.776 137.454   9.603  1.00 19.24     0.001 C 
HETATM   16  C16 8UH D3621     -48.436 146.056  11.352  1.00 23.73     0.020 C 
HETATM   17  C17 8UH D3621     -47.779 144.066  12.680  1.00 23.42     0.020 C 
HETATM   18  C18 8UH D3621     -44.331 147.452  13.594  1.00 22.78     0.044 C 
HETATM   19  C19 8UH D3621     -43.603 144.424   9.183  1.00 16.12     0.048 C 
HETATM   20  C20 8UH D3621     -40.686 140.070   8.225  1.00 17.75     0.048 C 
HETATM   21  O3  8UH D3621     -48.818 147.980  15.305  1.00 21.52    -0.395 OA
ATOM     22  H3  8UH D3621     -48.433 148.455  16.032  1.00  0.00     0.210 HD
HETATM   23  C21 8UH D3621     -33.298 126.417   6.800  1.00 38.90    -0.018 C 
HETATM   24  C22 8UH D3621     -33.985 125.896   5.540  1.00 38.90     0.045 C 
HETATM   25  C23 8UH D3621     -33.868 126.792   4.310  1.00 38.90     0.123 C 
HETATM   26  C24 8UH D3621     -32.677 127.721   4.446  1.00 38.90     0.066 C 
HETATM   27  C25 8UH D3621     -32.948 128.558   5.662  1.00 38.90    -0.074 C 
HETATM   28  C26 8UH D3621     -33.147 127.920   6.819  1.00 38.90    -0.048 C 
HETATM   29  C27 8UH D3621     -33.445 128.660   8.058  1.00 38.90     0.009 C 
HETATM   30  C28 8UH D3621     -34.382 129.591   7.890  1.00 38.90     0.007 C 
HETATM   31  C29 8UH D3621     -35.004 130.343   9.032  1.00 21.21    -0.062 C 
HETATM   32  C30 8UH D3621     -35.908 131.305   8.732  1.00 20.08     0.007 C 
HETATM   33  C31 8UH D3621     -36.607 132.146   9.678  1.00 17.89     0.001 C 
HETATM   34  C32 8UH D3621     -37.337 133.226   9.308  1.00 17.64     0.007 C 
HETATM   35  C33 8UH D3621     -38.050 134.194  10.177  1.00 17.45    -0.062 C 
HETATM   36  C34 8UH D3621     -38.621 135.274   9.591  1.00 15.95     0.007 C 
HETATM   37  C35 8UH D3621     -39.325 136.363  10.251  1.00 18.41     0.001 C 
HETATM   38  C36 8UH D3621     -31.880 125.850   6.859  1.00 38.90     0.020 C 
HETATM   39  C37 8UH D3621     -34.069 125.973   8.036  1.00 38.90     0.020 C 
HETATM   40  C38 8UH D3621     -32.452 129.982   5.571  1.00 38.90     0.044 C 
HETATM   41  C39 8UH D3621     -34.529 130.047  10.430  1.00 22.05     0.048 C 
HETATM   42  C40 8UH D3621     -38.025 133.945  11.664  1.00 11.49     0.048 C 
HETATM   43  O23 8UH D3621     -33.700 125.994   3.135  1.00 38.90    -0.395 OA
ATOM     44  H23 8UH D3621     -34.447 125.413   3.050  1.00  0.00     0.210 HD
ENDROOT
TORSDOF 12
