REMARK VINA RESULT:    -8.153      1.305     16.148
REMARK INTER + INTRA:          -8.399
REMARK INTER:                  -6.015
REMARK INTRA:                  -2.384
REMARK UNBOUND:                -0.246
REMARK  0 active torsions:
REMARK  status: ('A' for Active; 'I' for Inactive)
REMARK       I    between atoms: C3_3  and  O3_21 
REMARK       I    between atoms: C6_6  and  C7_7 
REMARK       I    between atoms: C8_8  and  C9_9 
REMARK       I    between atoms: C10_10  and  C11_11 
REMARK       I    between atoms: C12_12  and  C13_13 
REMARK       I    between atoms: C14_14  and  C15_15 
REMARK       I    between atoms: C23_25  and  O23_43 
REMARK       I    between atoms: C26_28  and  C27_29 
REMARK       I    between atoms: C28_30  and  C29_31 
REMARK       I    between atoms: C30_32  and  C31_33 
REMARK       I    between atoms: C32_34  and  C33_35 
REMARK       I    between atoms: C34_36  and  C35_37 
ROOT
HETATM    1  C1  8UH 5 620     -34.283 127.282   6.539  1.00 42.32    -0.018 C 
HETATM    2  C2  8UH 5 620     -34.473 127.940   5.176  1.00 42.32     0.045 C 
HETATM    3  C3  8UH 5 620     -33.400 128.956   4.801  1.00 42.32     0.123 C 
HETATM    4  C4  8UH 5 620     -32.053 128.528   5.351  1.00 42.32     0.066 C 
HETATM    5  C5  8UH 5 620     -32.152 128.460   6.851  1.00 42.32    -0.074 C 
HETATM    6  C6  8UH 5 620     -33.290 128.032   7.396  1.00 42.32    -0.048 C 
HETATM    7  C7  8UH 5 620     -33.789 128.608   8.648  1.00 42.32     0.009 C 
HETATM    8  C8  8UH 5 620     -34.345 129.785   8.320  1.00 42.32     0.007 C 
HETATM    9  C9  8UH 5 620     -35.020 130.677   9.296  1.00 42.32    -0.062 C 
HETATM   10  C10 8UH 5 620     -35.631 131.777   8.808  1.00 42.32     0.007 C 
HETATM   11  C11 8UH 5 620     -36.396 132.721   9.622  1.00 42.32     0.001 C 
HETATM   12  C12 8UH 5 620     -37.073 133.694   9.026  1.00 42.32     0.007 C 
HETATM   13  C13 8UH 5 620     -37.929 134.618   9.789  1.00 42.32    -0.062 C 
HETATM   14  C14 8UH 5 620     -38.705 135.427   9.054  1.00 42.32     0.007 C 
HETATM   15  C15 8UH 5 620     -39.677 136.388   9.559  1.00 42.32     0.001 C 
HETATM   16  C16 8UH 5 620     -33.813 125.851   6.321  1.00 42.32     0.020 C 
HETATM   17  C17 8UH 5 620     -35.611 127.275   7.282  1.00 42.32     0.020 C 
HETATM   18  C18 8UH 5 620     -31.253 129.480   7.486  1.00 42.32     0.044 C 
HETATM   19  C19 8UH 5 620     -35.027 130.341  10.763  1.00 42.32     0.048 C 
HETATM   20  C20 8UH 5 620     -37.949 134.582  11.289  1.00 42.32     0.048 C 
HETATM   21  O3  8UH 5 620     -33.305 129.043   3.375  1.00 42.32    -0.395 OA
ATOM     22  H3  8UH 5 620     -34.149 129.311   3.032  1.00  0.00     0.210 HD
HETATM   23  C21 8UH 5 620     -49.287 144.431   9.081  1.00 16.14    -0.018 C 
HETATM   24  C22 8UH 5 620     -50.100 145.195  10.125  1.00 16.14     0.045 C 
HETATM   25  C23 8UH 5 620     -49.349 146.222  10.954  1.00 16.14     0.123 C 
HETATM   26  C24 8UH 5 620     -48.403 147.014  10.085  1.00 16.14     0.066 C 
HETATM   27  C25 8UH 5 620     -47.431 146.056   9.466  1.00 16.14    -0.074 C 
HETATM   28  C26 8UH 5 620     -47.864 144.926   8.893  1.00 16.14    -0.048 C 
HETATM   29  C27 8UH 5 620     -46.945 144.155   8.024  1.00 16.14     0.009 C 
HETATM   30  C28 8UH 5 620     -46.073 143.254   8.488  1.00 16.14     0.007 C 
HETATM   31  C29 8UH 5 620     -45.175 142.522   7.579  1.00 42.32    -0.062 C 
HETATM   32  C30 8UH 5 620     -44.490 141.559   8.204  1.00 42.32     0.007 C 
HETATM   33  C31 8UH 5 620     -43.551 140.635   7.591  1.00 42.32     0.001 C 
HETATM   34  C32 8UH 5 620     -42.981 139.767   8.417  1.00 42.32     0.007 C 
HETATM   35  C33 8UH 5 620     -41.995 138.773   7.982  1.00 42.32    -0.062 C 
HETATM   36  C34 8UH 5 620     -41.368 138.051   8.935  1.00 42.32     0.007 C 
HETATM   37  C35 8UH 5 620     -40.351 137.052   8.628  1.00 42.32     0.001 C 
HETATM   38  C36 8UH 5 620     -50.073 144.483   7.775  1.00 16.14     0.020 C 
HETATM   39  C37 8UH 5 620     -49.185 142.980   9.526  1.00 16.14     0.020 C 
HETATM   40  C38 8UH 5 620     -46.153 146.733   9.065  1.00 16.14     0.044 C 
HETATM   41  C39 8UH 5 620     -45.133 142.795   6.104  1.00 42.32     0.048 C 
HETATM   42  C40 8UH 5 620     -41.755 138.637   6.509  1.00 42.32     0.048 C 
HETATM   43  O23 8UH 5 620     -50.284 147.124  11.550  1.00 16.14    -0.395 OA
ATOM     44  H23 8UH 5 620     -49.814 147.766  12.068  1.00  0.00     0.210 HD
ENDROOT
TORSDOF 12
