REMARK VINA RESULT:   -10.905      0.000      0.000
REMARK INTER + INTRA:         -13.106
REMARK INTER:                 -10.905
REMARK INTRA:                  -2.201
REMARK UNBOUND:                -2.201
REMARK  0 active torsions:
REMARK  status: ('A' for Active; 'I' for Inactive)
REMARK       I    between atoms: C3_3  and  O3_21 
REMARK       I    between atoms: C6_6  and  C7_7 
REMARK       I    between atoms: C8_8  and  C9_9 
REMARK       I    between atoms: C10_10  and  C11_11 
REMARK       I    between atoms: C12_12  and  C13_13 
REMARK       I    between atoms: C14_14  and  C15_15 
REMARK       I    between atoms: C23_25  and  O23_43 
REMARK       I    between atoms: C26_28  and  C27_29 
REMARK       I    between atoms: C28_30  and  C29_31 
REMARK       I    between atoms: C30_32  and  C31_33 
REMARK       I    between atoms: C32_34  and  C33_35 
REMARK       I    between atoms: C34_36  and  C35_37 
ROOT
HETATM    1  C1  8UH 8 314     -48.599 145.482  12.616  1.00 73.63    -0.018 C 
HETATM    2  C2  8UH 8 314     -49.304 146.097  13.821  1.00 75.58     0.045 C 
HETATM    3  C3  8UH 8 314     -48.383 146.728  14.852  1.00 77.85     0.123 C 
HETATM    4  C4  8UH 8 314     -47.453 147.718  14.171  1.00 76.46     0.066 C 
HETATM    5  C5  8UH 8 314     -46.690 147.046  13.056  1.00 74.82    -0.074 C 
HETATM    6  C6  8UH 8 314     -47.228 146.064  12.321  1.00 72.89    -0.048 C 
HETATM    7  C7  8UH 8 314     -46.486 145.500  11.167  1.00 69.76     0.009 C 
HETATM    8  C8  8UH 8 314     -45.516 144.602  11.354  1.00 67.74     0.007 C 
HETATM    9  C9  8UH 8 314     -44.762 143.993  10.240  1.00 67.19    -0.062 C 
HETATM   10  C10 8UH 8 314     -43.887 143.024  10.541  1.00 64.55     0.007 C 
HETATM   11  C11 8UH 8 314     -43.075 142.300   9.565  1.00 61.91     0.001 C 
HETATM   12  C12 8UH 8 314     -42.426 141.244  10.051  1.00 60.53     0.007 C 
HETATM   13  C13 8UH 8 314     -41.568 140.346   9.257  1.00 59.33    -0.062 C 
HETATM   14  C14 8UH 8 314     -41.102 139.242   9.865  1.00 60.00     0.007 C 
HETATM   15  C15 8UH 8 314     -40.266 138.248   9.196  1.00 60.35     0.001 C 
HETATM   16  C16 8UH 8 314     -49.501 145.669  11.402  1.00 75.09     0.020 C 
HETATM   17  C17 8UH 8 314     -48.416 143.993  12.875  1.00 73.62     0.020 C 
HETATM   18  C18 8UH 8 314     -45.381 147.669  12.669  1.00 74.16     0.044 C 
HETATM   19  C19 8UH 8 314     -44.977 144.433   8.821  1.00 68.15     0.048 C 
HETATM   20  C20 8UH 8 314     -41.243 140.649   7.824  1.00 57.80     0.048 C 
HETATM   21  O3  8UH 8 314     -49.180 147.419  15.823  1.00 79.25    -0.395 OA
ATOM     22  H3  8UH 8 314     -48.605 147.813  16.467  1.00  0.00     0.210 HD
HETATM   23  C21 8UH 8 314     -34.389 127.318   6.585  1.00 57.09    -0.018 C 
HETATM   24  C22 8UH 8 314     -33.852 126.698   5.303  1.00 57.09     0.045 C 
HETATM   25  C23 8UH 8 314     -32.675 127.385   4.636  1.00 57.09     0.123 C 
HETATM   26  C24 8UH 8 314     -31.723 127.937   5.676  1.00 57.09     0.066 C 
HETATM   27  C25 8UH 8 314     -32.475 128.891   6.556  1.00 57.09    -0.074 C 
HETATM   28  C26 8UH 8 314     -33.652 128.541   7.087  1.00 57.09    -0.048 C 
HETATM   29  C27 8UH 8 314     -34.268 129.319   8.196  1.00 57.09     0.009 C 
HETATM   30  C28 8UH 8 314     -34.955 130.444   7.973  1.00 57.09     0.007 C 
HETATM   31  C29 8UH 8 314     -35.593 131.231   9.035  1.00 75.56    -0.062 C 
HETATM   32  C30 8UH 8 314     -36.463 132.193   8.690  1.00 73.06     0.007 C 
HETATM   33  C31 8UH 8 314     -37.167 133.042   9.650  1.00 70.20     0.001 C 
HETATM   34  C32 8UH 8 314     -37.832 134.070   9.127  1.00 68.68     0.007 C 
HETATM   35  C33 8UH 8 314     -38.622 135.057   9.887  1.00 66.05    -0.062 C 
HETATM   36  C34 8UH 8 314     -39.101 136.125   9.226  1.00 63.06     0.007 C 
HETATM   37  C35 8UH 8 314     -39.911 137.153   9.869  1.00 60.73     0.001 C 
HETATM   38  C36 8UH 8 314     -34.398 126.220   7.639  1.00 57.09     0.020 C 
HETATM   39  C37 8UH 8 314     -35.812 127.753   6.313  1.00 57.09     0.020 C 
HETATM   40  C38 8UH 8 314     -31.559 129.884   7.209  1.00 57.09     0.044 C 
HETATM   41  C39 8UH 8 314     -35.270 130.966  10.476  1.00 73.18     0.048 C 
HETATM   42  C40 8UH 8 314     -38.889 134.872  11.351  1.00 66.25     0.048 C 
HETATM   43  O23 8UH 8 314     -31.986 126.409   3.854  1.00 57.09    -0.395 OA
ATOM     44  H23 8UH 8 314     -31.249 126.839   3.438  1.00  0.00     0.210 HD
ENDROOT
TORSDOF 12
