REMARK VINA RESULT:   -11.522      0.000      0.000
REMARK INTER + INTRA:         -14.241
REMARK INTER:                 -11.522
REMARK INTRA:                  -2.720
REMARK UNBOUND:                -2.720
REMARK  0 active torsions:
REMARK  status: ('A' for Active; 'I' for Inactive)
REMARK       I    between atoms: C3_3  and  O3_21 
REMARK       I    between atoms: C6_6  and  C7_7 
REMARK       I    between atoms: C8_8  and  C9_9 
REMARK       I    between atoms: C10_10  and  C11_11 
REMARK       I    between atoms: C12_12  and  C13_13 
REMARK       I    between atoms: C14_14  and  C15_15 
REMARK       I    between atoms: C23_25  and  O23_43 
REMARK       I    between atoms: C26_28  and  C27_29 
REMARK       I    between atoms: C28_30  and  C29_31 
REMARK       I    between atoms: C30_32  and  C31_33 
REMARK       I    between atoms: C32_34  and  C33_35 
REMARK       I    between atoms: C34_36  and  C35_37 
ROOT
HETATM    1  C1  8UH H7620     -49.262 144.894  12.608  1.00 19.07    -0.018 C 
HETATM    2  C2  8UH H7620     -49.895 145.765  13.709  1.00 18.69     0.045 C 
HETATM    3  C3  8UH H7620     -49.001 146.807  14.377  1.00 19.88     0.123 C 
HETATM    4  C4  8UH H7620     -47.990 147.462  13.421  1.00 19.59     0.066 C 
HETATM    5  C5  8UH H7620     -47.416 146.619  12.325  1.00 18.61    -0.074 C 
HETATM    6  C6  8UH H7620     -47.974 145.426  11.919  1.00 18.29    -0.048 C 
HETATM    7  C7  8UH H7620     -47.377 144.626  10.829  1.00 19.20     0.009 C 
HETATM    8  C8  8UH H7620     -46.287 143.819  10.883  1.00 18.47     0.007 C 
HETATM    9  C9  8UH H7620     -45.596 143.158   9.769  1.00 18.73    -0.062 C 
HETATM   10  C10 8UH H7620     -44.584 142.314  10.068  1.00 19.74     0.007 C 
HETATM   11  C11 8UH H7620     -43.773 141.550   9.135  1.00 21.97     0.001 C 
HETATM   12  C12 8UH H7620     -42.908 140.608   9.586  1.00 21.62     0.007 C 
HETATM   13  C13 8UH H7620     -42.030 139.704   8.820  1.00 22.34    -0.062 C 
HETATM   14  C14 8UH H7620     -41.335 138.775   9.515  1.00 21.69     0.007 C 
HETATM   15  C15 8UH H7620     -40.483 137.739   9.004  1.00 22.95     0.001 C 
HETATM   16  C16 8UH H7620     -50.409 144.794  11.586  1.00 17.04     0.020 C 
HETATM   17  C17 8UH H7620     -49.005 143.494  13.197  1.00 20.18     0.020 C 
HETATM   18  C18 8UH H7620     -46.212 147.323  11.815  1.00 19.93     0.044 C 
HETATM   19  C19 8UH H7620     -46.092 143.435   8.374  1.00 16.18     0.048 C 
HETATM   20  C20 8UH H7620     -42.019 139.833   7.326  1.00 18.83     0.048 C 
HETATM   21  O3  8UH H7620     -49.788 147.796  15.024  1.00 19.51    -0.395 OA
ATOM     22  H3  8UH H7620     -50.412 147.391  15.614  1.00  0.00     0.210 HD
HETATM   23  C21 8UH H7620     -34.228 127.050   6.552  1.00 97.95    -0.018 C 
HETATM   24  C22 8UH H7620     -33.905 126.574   5.139  1.00 97.95     0.045 C 
HETATM   25  C23 8UH H7620     -32.840 127.338   4.372  1.00 97.95     0.123 C 
HETATM   26  C24 8UH H7620     -31.723 127.799   5.279  1.00 97.95     0.066 C 
HETATM   27  C25 8UH H7620     -32.305 128.629   6.383  1.00 97.95    -0.074 C 
HETATM   28  C26 8UH H7620     -33.440 128.268   6.994  1.00 97.95    -0.048 C 
HETATM   29  C27 8UH H7620     -33.966 129.057   8.134  1.00 97.95     0.009 C 
HETATM   30  C28 8UH H7620     -34.793 130.083   7.944  1.00 97.95     0.007 C 
HETATM   31  C29 8UH H7620     -35.370 130.908   9.052  1.00 34.32    -0.062 C 
HETATM   32  C30 8UH H7620     -36.192 131.921   8.703  1.00 32.68     0.007 C 
HETATM   33  C31 8UH H7620     -36.883 132.814   9.598  1.00 31.36     0.001 C 
HETATM   34  C32 8UH H7620     -37.652 133.837   9.168  1.00 27.71     0.007 C 
HETATM   35  C33 8UH H7620     -38.402 134.821   9.964  1.00 25.49    -0.062 C 
HETATM   36  C34 8UH H7620     -39.077 135.783   9.294  1.00 25.45     0.007 C 
HETATM   37  C35 8UH H7620     -39.885 136.859   9.826  1.00 24.93     0.001 C 
HETATM   38  C36 8UH H7620     -33.990 125.863   7.482  1.00 97.95     0.020 C 
HETATM   39  C37 8UH H7620     -35.704 127.420   6.599  1.00 97.95     0.020 C 
HETATM   40  C38 8UH H7620     -31.471 129.792   6.832  1.00 97.95     0.044 C 
HETATM   41  C39 8UH H7620     -35.003 130.576  10.470  1.00 34.07     0.048 C 
HETATM   42  C40 8UH H7620     -38.351 134.693  11.457  1.00 21.83     0.048 C 
HETATM   43  O23 8UH H7620     -32.275 126.476   3.377  1.00 97.95    -0.395 OA
ATOM     44  H23 8UH H7620     -32.978 126.186   2.807  1.00  0.00     0.210 HD
ENDROOT
TORSDOF 12
