REMARK VINA RESULT:   -11.913      1.309     16.404
REMARK INTER + INTRA:         -11.904
REMARK INTER:                  -9.149
REMARK INTRA:                  -2.755
REMARK UNBOUND:                 0.009
REMARK  0 active torsions:
REMARK  status: ('A' for Active; 'I' for Inactive)
REMARK       I    between atoms: C3_3  and  O3_21 
REMARK       I    between atoms: C6_6  and  C7_7 
REMARK       I    between atoms: C8_8  and  C9_9 
REMARK       I    between atoms: C10_10  and  C11_11 
REMARK       I    between atoms: C12_12  and  C13_13 
REMARK       I    between atoms: C14_14  and  C15_15 
REMARK       I    between atoms: C23_25  and  O23_43 
REMARK       I    between atoms: C26_28  and  C27_29 
REMARK       I    between atoms: C28_30  and  C29_31 
REMARK       I    between atoms: C30_32  and  C31_33 
REMARK       I    between atoms: C32_34  and  C33_35 
REMARK       I    between atoms: C34_36  and  C35_37 
ROOT
HETATM    1  C1  8UH 61620     -34.486 128.085   6.535  1.00 97.95    -0.018 C 
HETATM    2  C2  8UH 61620     -33.683 127.809   5.268  1.00 97.95     0.045 C 
HETATM    3  C3  8UH 61620     -32.299 128.427   5.171  1.00 97.95     0.123 C 
HETATM    4  C4  8UH 61620     -31.600 128.442   6.511  1.00 97.95     0.066 C 
HETATM    5  C5  8UH 61620     -32.460 129.174   7.498  1.00 97.95    -0.074 C 
HETATM    6  C6  8UH 61620     -33.784 128.985   7.533  1.00 97.95    -0.048 C 
HETATM    7  C7  8UH 61620     -34.613 129.656   8.563  1.00 97.95     0.009 C 
HETATM    8  C8  8UH 61620     -35.131 130.865   8.355  1.00 97.95     0.007 C 
HETATM    9  C9  8UH 61620     -35.966 131.545   9.347  1.00 97.95    -0.062 C 
HETATM   10  C10 8UH 61620     -36.497 132.709   8.981  1.00 97.95     0.007 C 
HETATM   11  C11 8UH 61620     -37.359 133.502   9.837  1.00 97.95     0.001 C 
HETATM   12  C12 8UH 61620     -37.774 134.629   9.285  1.00 97.95     0.007 C 
HETATM   13  C13 8UH 61620     -38.677 135.574   9.951  1.00 97.95    -0.062 C 
HETATM   14  C14 8UH 61620     -39.253 136.472   9.153  1.00 97.95     0.007 C 
HETATM   15  C15 8UH 61620     -40.206 137.458   9.623  1.00 97.95     0.001 C 
HETATM   16  C16 8UH 61620     -34.825 126.729   7.147  1.00 97.95     0.020 C 
HETATM   17  C17 8UH 61620     -35.782 128.776   6.131  1.00 97.95     0.020 C 
HETATM   18  C18 8UH 61620     -31.727 130.008   8.506  1.00 97.95     0.044 C 
HETATM   19  C19 8UH 61620     -36.210 130.951  10.700  1.00 97.95     0.048 C 
HETATM   20  C20 8UH 61620     -38.949 135.523  11.424  1.00 97.95     0.048 C 
HETATM   21  O3  8UH 61620     -31.505 127.650   4.267  1.00 97.95    -0.395 OA
ATOM     22  H3  8UH 61620     -30.639 128.037   4.206  1.00  0.00     0.210 HD
HETATM   23  C21 8UH 61620     -50.024 145.069   9.206  1.00 73.24    -0.018 C 
HETATM   24  C22 8UH 61620     -50.827 145.625  10.385  1.00 72.84     0.045 C 
HETATM   25  C23 8UH 61620     -50.066 146.488  11.384  1.00 72.53     0.123 C 
HETATM   26  C24 8UH 61620     -49.127 147.428  10.654  1.00 72.61     0.066 C 
HETATM   27  C25 8UH 61620     -48.169 146.622   9.818  1.00 72.68    -0.074 C 
HETATM   28  C26 8UH 61620     -48.600 145.587   9.095  1.00 72.79    -0.048 C 
HETATM   29  C27 8UH 61620     -47.670 144.911   8.159  1.00 71.90     0.009 C 
HETATM   30  C28 8UH 61620     -46.833 143.967   8.600  1.00 71.51     0.007 C 
HETATM   31  C29 8UH 61620     -45.895 143.262   7.719  1.00 97.95    -0.062 C 
HETATM   32  C30 8UH 61620     -45.148 142.339   8.315  1.00 97.95     0.007 C 
HETATM   33  C31 8UH 61620     -44.164 141.505   7.653  1.00 97.95     0.001 C 
HETATM   34  C32 8UH 61620     -43.557 140.684   8.492  1.00 97.95     0.007 C 
HETATM   35  C33 8UH 61620     -42.532 139.732   8.073  1.00 97.95    -0.062 C 
HETATM   36  C34 8UH 61620     -41.981 138.976   9.022  1.00 97.95     0.007 C 
HETATM   37  C35 8UH 61620     -40.967 137.995   8.682  1.00 97.95     0.001 C 
HETATM   38  C36 8UH 61620     -50.767 145.420   7.923  1.00 72.68     0.020 C 
HETATM   39  C37 8UH 61620     -49.955 143.554   9.348  1.00 73.05     0.020 C 
HETATM   40  C38 8UH 61620     -46.818 147.225   9.559  1.00 72.13     0.044 C 
HETATM   41  C39 8UH 61620     -45.797 143.552   6.252  1.00 97.95     0.048 C 
HETATM   42  C40 8UH 61620     -42.127 139.623   6.637  1.00 97.95     0.048 C 
HETATM   43  O23 8UH 61620     -51.000 147.258  12.155  1.00 71.04    -0.395 OA
ATOM     44  H23 8UH 61620     -50.526 147.796  12.778  1.00  0.00     0.210 HD
ENDROOT
TORSDOF 12
