REMARK VINA RESULT:    -9.959      0.000      0.000
REMARK INTER + INTRA:         -14.320
REMARK INTER:                  -9.959
REMARK INTRA:                  -4.360
REMARK UNBOUND:                -4.360
REMARK  0 active torsions:
REMARK  status: ('A' for Active; 'I' for Inactive)
REMARK       I    between atoms: C3_3  and  O3_21 
REMARK       I    between atoms: C6_6  and  C7_7 
REMARK       I    between atoms: C8_8  and  C9_9 
REMARK       I    between atoms: C10_10  and  C11_11 
REMARK       I    between atoms: C12_12  and  C13_13 
REMARK       I    between atoms: C14_14  and  C15_15 
REMARK       I    between atoms: C23_25  and  O23_43 
REMARK       I    between atoms: C26_28  and  C27_29 
REMARK       I    between atoms: C28_30  and  C29_31 
REMARK       I    between atoms: C30_32  and  C31_33 
REMARK       I    between atoms: C32_34  and  C33_35 
REMARK       I    between atoms: C34_36  and  C35_37 
ROOT
HETATM    1  C1  8UH J9621     -48.115 144.998  12.206  1.00 21.11    -0.018 C 
HETATM    2  C2  8UH J9621     -48.947 145.379  13.443  1.00 20.11     0.045 C 
HETATM    3  C3  8UH J9621     -48.459 146.484  14.379  1.00 19.41     0.123 C 
HETATM    4  C4  8UH J9621     -47.079 147.078  14.059  1.00 18.39     0.066 C 
HETATM    5  C5  8UH J9621     -46.194 146.498  13.006  1.00 18.34    -0.074 C 
HETATM    6  C6  8UH J9621     -46.640 145.544  12.120  1.00 19.81    -0.048 C 
HETATM    7  C7  8UH J9621     -45.838 144.960  11.021  1.00 19.02     0.009 C 
HETATM    8  C8  8UH J9621     -44.941 143.966  11.165  1.00 17.97     0.007 C 
HETATM    9  C9  8UH J9621     -44.116 143.340  10.126  1.00 18.85    -0.062 C 
HETATM   10  C10 8UH J9621     -43.374 142.266  10.482  1.00 18.38     0.007 C 
HETATM   11  C11 8UH J9621     -42.559 141.440   9.623  1.00 18.57     0.001 C 
HETATM   12  C12 8UH J9621     -41.926 140.338  10.080  1.00 17.11     0.007 C 
HETATM   13  C13 8UH J9621     -41.138 139.367   9.305  1.00 20.42    -0.062 C 
HETATM   14  C14 8UH J9621     -40.616 138.305   9.960  1.00 20.50     0.007 C 
HETATM   15  C15 8UH J9621     -39.858 137.221   9.383  1.00 20.22     0.001 C 
HETATM   16  C16 8UH J9621     -48.964 145.519  11.020  1.00 19.56     0.020 C 
HETATM   17  C17 8UH J9621     -48.128 143.456  12.159  1.00 18.49     0.020 C 
HETATM   18  C18 8UH J9621     -44.878 147.181  13.060  1.00 16.89     0.044 C 
HETATM   19  C19 8UH J9621     -44.215 143.890   8.731  1.00 14.61     0.048 C 
HETATM   20  C20 8UH J9621     -40.990 139.596   7.818  1.00 17.59     0.048 C 
HETATM   21  O3  8UH J9621     -49.427 147.514  14.466  1.00 18.27    -0.395 OA
ATOM     22  H3  8UH J9621     -49.124 148.201  15.047  1.00  0.00     0.210 HD
HETATM   23  C21 8UH J9621     -33.275 126.588   6.711  1.00 15.23    -0.018 C 
HETATM   24  C22 8UH J9621     -33.875 126.112   5.403  1.00 15.23     0.045 C 
HETATM   25  C23 8UH J9621     -34.102 127.197   4.383  1.00 15.23     0.123 C 
HETATM   26  C24 8UH J9621     -32.856 128.027   4.314  1.00 15.23     0.066 C 
HETATM   27  C25 8UH J9621     -32.596 128.689   5.633  1.00 15.23    -0.074 C 
HETATM   28  C26 8UH J9621     -32.902 128.047   6.762  1.00 15.23    -0.048 C 
HETATM   29  C27 8UH J9621     -33.183 128.766   8.008  1.00 15.23     0.009 C 
HETATM   30  C28 8UH J9621     -34.143 129.682   7.848  1.00 15.23     0.007 C 
HETATM   31  C29 8UH J9621     -34.766 130.414   8.999  1.00 19.55    -0.062 C 
HETATM   32  C30 8UH J9621     -35.696 131.353   8.713  1.00 17.66     0.007 C 
HETATM   33  C31 8UH J9621     -36.408 132.172   9.663  1.00 19.12     0.001 C 
HETATM   34  C32 8UH J9621     -37.198 133.203   9.285  1.00 19.40     0.007 C 
HETATM   35  C33 8UH J9621     -37.961 134.152  10.116  1.00 19.31    -0.062 C 
HETATM   36  C34 8UH J9621     -38.598 135.165   9.490  1.00 17.72     0.007 C 
HETATM   37  C35 8UH J9621     -39.348 136.224  10.106  1.00 19.92     0.001 C 
HETATM   38  C36 8UH J9621     -31.959 125.850   6.869  1.00 15.23     0.020 C 
HETATM   39  C37 8UH J9621     -34.237 126.232   7.829  1.00 15.23     0.020 C 
HETATM   40  C38 8UH J9621     -32.320 130.161   5.542  1.00 15.23     0.044 C 
HETATM   41  C39 8UH J9621     -34.279 130.117  10.392  1.00 18.53     0.048 C 
HETATM   42  C40 8UH J9621     -37.922 133.970  11.609  1.00 15.86     0.048 C 
HETATM   43  O23 8UH J9621     -34.278 126.607   3.100  1.00 15.23    -0.395 OA
ATOM     44  H23 8UH J9621     -34.422 127.291   2.456  1.00  0.00     0.210 HD
ENDROOT
TORSDOF 12
