REMARK VINA RESULT:    -8.484      1.123     16.550
REMARK INTER + INTRA:         -10.973
REMARK INTER:                 -10.797
REMARK INTRA:                  -0.176
REMARK UNBOUND:                -2.490
REMARK  0 active torsions:
REMARK  status: ('A' for Active; 'I' for Inactive)
REMARK       I    between atoms: C3_3  and  O3_21 
REMARK       I    between atoms: C6_6  and  C7_7 
REMARK       I    between atoms: C8_8  and  C9_9 
REMARK       I    between atoms: C10_10  and  C11_11 
REMARK       I    between atoms: C12_12  and  C13_13 
REMARK       I    between atoms: C14_14  and  C15_15 
REMARK       I    between atoms: C23_25  and  O23_43 
REMARK       I    between atoms: C26_28  and  C27_29 
REMARK       I    between atoms: C28_30  and  C29_31 
REMARK       I    between atoms: C30_32  and  C31_33 
REMARK       I    between atoms: C32_34  and  C33_35 
REMARK       I    between atoms: C34_36  and  C35_37 
ROOT
HETATM    1  C1  8UH y1620     -49.828 144.894  11.628  1.00 32.28    -0.018 C 
HETATM    2  C2  8UH y1620     -50.423 145.248  12.980  1.00 32.10     0.045 C 
HETATM    3  C3  8UH y1620     -49.590 146.127  13.886  1.00 30.03     0.123 C 
HETATM    4  C4  8UH y1620     -48.951 147.266  13.144  1.00 27.01     0.066 C 
HETATM    5  C5  8UH y1620     -48.203 146.786  11.940  1.00 26.85    -0.074 C 
HETATM    6  C6  8UH y1620     -48.572 145.684  11.268  1.00 32.38    -0.048 C 
HETATM    7  C7  8UH y1620     -47.747 145.210  10.130  1.00 31.45     0.009 C 
HETATM    8  C8  8UH y1620     -46.786 144.305  10.313  1.00 30.07     0.007 C 
HETATM    9  C9  8UH y1620     -45.933 143.793   9.244  1.00 31.62    -0.062 C 
HETATM   10  C10 8UH y1620     -44.923 143.017   9.642  1.00 26.80     0.007 C 
HETATM   11  C11 8UH y1620     -43.960 142.391   8.764  1.00 22.84     0.001 C 
HETATM   12  C12 8UH y1620     -43.318 141.408   9.358  1.00 24.53     0.007 C 
HETATM   13  C13 8UH y1620     -42.326 140.571   8.692  1.00 24.57    -0.062 C 
HETATM   14  C14 8UH y1620     -41.803 139.587   9.416  1.00 24.07     0.007 C 
HETATM   15  C15 8UH y1620     -40.846 138.645   8.880  1.00 24.13     0.001 C 
HETATM   16  C16 8UH y1620     -50.972 145.105  10.640  1.00 30.09     0.020 C 
HETATM   17  C17 8UH y1620     -49.454 143.420  11.644  1.00 35.00     0.020 C 
HETATM   18  C18 8UH y1620     -46.925 147.524  11.680  1.00 25.72     0.044 C 
HETATM   19  C19 8UH y1620     -46.180 144.153   7.813  1.00 32.28     0.048 C 
HETATM   20  C20 8UH y1620     -41.962 140.796   7.262  1.00 25.14     0.048 C 
HETATM   21  O3  8UH y1620     -50.454 146.702  14.870  1.00 33.60    -0.395 OA
ATOM     22  H3  8UH y1620     -50.859 145.981  15.339  1.00  0.00     0.210 HD
HETATM   23  C21 8UH y1620     -34.065 128.103   7.133  1.00 19.07    -0.018 C 
HETATM   24  C22 8UH y1620     -33.123 127.357   6.170  1.00 18.69     0.045 C 
HETATM   25  C23 8UH y1620     -32.024 128.173   5.494  1.00 19.88     0.123 C 
HETATM   26  C24 8UH y1620     -31.428 129.273   6.388  1.00 19.59     0.066 C 
HETATM   27  C25 8UH y1620     -32.343 129.960   7.354  1.00 18.61    -0.074 C 
HETATM   28  C26 8UH y1620     -33.570 129.452   7.725  1.00 18.29    -0.048 C 
HETATM   29  C27 8UH y1620     -34.441 130.162   8.685  1.00 19.20     0.009 C 
HETATM   30  C28 8UH y1620     -35.228 131.245   8.461  1.00 18.47     0.007 C 
HETATM   31  C29 8UH y1620     -35.931 132.010   9.450  1.00 31.74    -0.062 C 
HETATM   32  C30 8UH y1620     -36.807 132.886   8.995  1.00 30.48     0.007 C 
HETATM   33  C31 8UH y1620     -37.623 133.726   9.842  1.00 30.78     0.001 C 
HETATM   34  C32 8UH y1620     -38.261 134.672   9.184  1.00 30.06     0.007 C 
HETATM   35  C33 8UH y1620     -39.155 135.613   9.848  1.00 27.63    -0.062 C 
HETATM   36  C34 8UH y1620     -39.667 136.586   9.098  1.00 25.49     0.007 C 
HETATM   37  C35 8UH y1620     -40.591 137.574   9.611  1.00 24.60     0.001 C 
HETATM   38  C36 8UH y1620     -34.254 127.068   8.256  1.00 17.04     0.020 C 
HETATM   39  C37 8UH y1620     -35.415 128.305   6.418  1.00 20.18     0.020 C 
HETATM   40  C38 8UH y1620     -31.664 131.207   7.790  1.00 19.93     0.044 C 
HETATM   41  C39 8UH y1620     -35.684 131.819  10.910  1.00 33.51     0.048 C 
HETATM   42  C40 8UH y1620     -39.471 135.452  11.299  1.00 28.91     0.048 C 
HETATM   43  O23 8UH y1620     -31.000 127.319   5.006  1.00 19.51    -0.395 OA
ATOM     44  H23 8UH y1620     -30.317 127.827   4.585  1.00  0.00     0.210 HD
ENDROOT
TORSDOF 12
