REMARK VINA RESULT:    -9.514      1.549     16.575
REMARK INTER + INTRA:         -12.498
REMARK INTER:                  -9.359
REMARK INTRA:                  -3.139
REMARK UNBOUND:                -2.983
REMARK  0 active torsions:
REMARK  status: ('A' for Active; 'I' for Inactive)
REMARK       I    between atoms: C3_3  and  O3_21 
REMARK       I    between atoms: C6_6  and  C7_7 
REMARK       I    between atoms: C8_8  and  C9_9 
REMARK       I    between atoms: C10_10  and  C11_11 
REMARK       I    between atoms: C12_12  and  C13_13 
REMARK       I    between atoms: C14_14  and  C15_15 
REMARK       I    between atoms: C23_25  and  O23_43 
REMARK       I    between atoms: C26_28  and  C27_29 
REMARK       I    between atoms: C28_30  and  C29_31 
REMARK       I    between atoms: C30_32  and  C31_33 
REMARK       I    between atoms: C32_34  and  C33_35 
REMARK       I    between atoms: C34_36  and  C35_37 
ROOT
HETATM    1  C1  8UH n1621     -34.475 126.901   6.180  1.00 48.43    -0.018 C 
HETATM    2  C2  8UH n1621     -34.042 126.175   4.914  1.00 44.61     0.045 C 
HETATM    3  C3  8UH n1621     -32.957 126.846   4.094  1.00 44.41     0.123 C 
HETATM    4  C4  8UH n1621     -31.886 127.420   4.988  1.00 41.53     0.066 C 
HETATM    5  C5  8UH n1621     -32.528 128.429   5.886  1.00 37.72    -0.074 C 
HETATM    6  C6  8UH n1621     -33.651 128.126   6.536  1.00 43.52    -0.048 C 
HETATM    7  C7  8UH n1621     -34.140 128.950   7.666  1.00 44.60     0.009 C 
HETATM    8  C8  8UH n1621     -34.827 130.070   7.480  1.00 43.22     0.007 C 
HETATM    9  C9  8UH n1621     -35.337 130.840   8.613  1.00 45.04    -0.062 C 
HETATM   10  C10 8UH n1621     -36.200 131.797   8.299  1.00 43.71     0.007 C 
HETATM   11  C11 8UH n1621     -36.879 132.650   9.245  1.00 42.87     0.001 C 
HETATM   12  C12 8UH n1621     -37.772 133.421   8.657  1.00 44.70     0.007 C 
HETATM   13  C13 8UH n1621     -38.653 134.327   9.388  1.00 42.63    -0.062 C 
HETATM   14  C14 8UH n1621     -39.550 135.001   8.667  1.00 42.62     0.007 C 
HETATM   15  C15 8UH n1621     -40.500 135.892   9.299  1.00 44.33     0.001 C 
HETATM   16  C16 8UH n1621     -34.463 125.851   7.285  1.00 47.48     0.020 C 
HETATM   17  C17 8UH n1621     -35.887 127.428   6.000  1.00 54.25     0.020 C 
HETATM   18  C18 8UH n1621     -31.549 129.432   6.398  1.00 37.77     0.044 C 
HETATM   19  C19 8UH n1621     -34.926 130.540  10.019  1.00 46.17     0.048 C 
HETATM   20  C20 8UH n1621     -38.574 134.432  10.880  1.00 40.87     0.048 C 
HETATM   21  O3  8UH n1621     -32.363 125.876   3.231  1.00 48.83    -0.395 OA
ATOM     22  H3  8UH n1621     -33.038 125.515   2.668  1.00  0.00     0.210 HD
HETATM   23  C21 8UH n1621     -50.153 143.781  11.286  1.00 25.46    -0.018 C 
HETATM   24  C22 8UH n1621     -50.941 144.206  12.523  1.00 25.46     0.045 C 
HETATM   25  C23 8UH n1621     -50.151 144.787  13.682  1.00 25.46     0.123 C 
HETATM   26  C24 8UH n1621     -49.040 145.670  13.163  1.00 25.46     0.066 C 
HETATM   27  C25 8UH n1621     -48.147 144.818  12.312  1.00 25.46    -0.074 C 
HETATM   28  C26 8UH n1621     -48.661 144.058  11.338  1.00 25.46    -0.048 C 
HETATM   29  C27 8UH n1621     -47.789 143.505  10.263  1.00 25.46     0.009 C 
HETATM   30  C28 8UH n1621     -47.123 142.356  10.411  1.00 25.46     0.007 C 
HETATM   31  C29 8UH n1621     -46.270 141.776   9.392  1.00 54.19    -0.062 C 
HETATM   32  C30 8UH n1621     -45.854 140.527   9.605  1.00 54.84     0.007 C 
HETATM   33  C31 8UH n1621     -45.004 139.788   8.695  1.00 51.40     0.001 C 
HETATM   34  C32 8UH n1621     -44.135 138.984   9.284  1.00 48.08     0.007 C 
HETATM   35  C33 8UH n1621     -43.196 138.163   8.522  1.00 45.58    -0.062 C 
HETATM   36  C34 8UH n1621     -42.316 137.420   9.195  1.00 47.58     0.007 C 
HETATM   37  C35 8UH n1621     -41.353 136.557   8.537  1.00 48.15     0.001 C 
HETATM   38  C36 8UH n1621     -50.808 144.446  10.080  1.00 25.46     0.020 C 
HETATM   39  C37 8UH n1621     -50.290 142.277  11.158  1.00 25.46     0.020 C 
HETATM   40  C38 8UH n1621     -46.780 145.416  12.219  1.00 25.46     0.044 C 
HETATM   41  C39 8UH n1621     -45.937 142.564   8.165  1.00 53.01     0.048 C 
HETATM   42  C40 8UH n1621     -43.244 138.179   7.033  1.00 46.34     0.048 C 
HETATM   43  O23 8UH n1621     -51.037 145.570  14.486  1.00 25.46    -0.395 OA
ATOM     44  H23 8UH n1621     -51.735 145.015  14.812  1.00  0.00     0.210 HD
ENDROOT
TORSDOF 12
