REMARK VINA RESULT:   -11.390      0.997      1.175
REMARK INTER + INTRA:         -11.742
REMARK INTER:                  -9.249
REMARK INTRA:                  -2.494
REMARK UNBOUND:                -0.352
REMARK  0 active torsions:
REMARK  status: ('A' for Active; 'I' for Inactive)
REMARK       I    between atoms: C3_3  and  O3_21 
REMARK       I    between atoms: C6_6  and  C7_7 
REMARK       I    between atoms: C8_8  and  C9_9 
REMARK       I    between atoms: C10_10  and  C11_11 
REMARK       I    between atoms: C12_12  and  C13_13 
REMARK       I    between atoms: C14_14  and  C15_15 
REMARK       I    between atoms: C23_25  and  O23_43 
REMARK       I    between atoms: C26_28  and  C27_29 
REMARK       I    between atoms: C28_30  and  C29_31 
REMARK       I    between atoms: C30_32  and  C31_33 
REMARK       I    between atoms: C32_34  and  C33_35 
REMARK       I    between atoms: C34_36  and  C35_37 
ROOT
HETATM    1  C1  8UH G1620     -34.294 127.362   6.636  1.00 66.29    -0.018 C 
HETATM    2  C2  8UH G1620     -33.794 126.849   5.291  1.00 66.29     0.045 C 
HETATM    3  C3  8UH G1620     -32.562 127.503   4.684  1.00 66.29     0.123 C 
HETATM    4  C4  8UH G1620     -31.600 127.975   5.753  1.00 66.29     0.066 C 
HETATM    5  C5  8UH G1620     -32.323 128.882   6.703  1.00 66.29    -0.074 C 
HETATM    6  C6  8UH G1620     -33.533 128.562   7.173  1.00 66.29    -0.048 C 
HETATM    7  C7  8UH G1620     -34.161 129.367   8.251  1.00 66.29     0.009 C 
HETATM    8  C8  8UH G1620     -34.892 130.451   7.979  1.00 66.29     0.007 C 
HETATM    9  C9  8UH G1620     -35.533 131.257   9.026  1.00 66.29    -0.062 C 
HETATM   10  C10 8UH G1620     -36.167 132.368   8.642  1.00 66.29     0.007 C 
HETATM   11  C11 8UH G1620     -36.857 133.251   9.567  1.00 66.29     0.001 C 
HETATM   12  C12 8UH G1620     -37.611 134.183   9.003  1.00 66.29     0.007 C 
HETATM   13  C13 8UH G1620     -38.399 135.157   9.771  1.00 66.29    -0.062 C 
HETATM   14  C14 8UH G1620     -39.218 135.962   9.087  1.00 66.29     0.007 C 
HETATM   15  C15 8UH G1620     -40.064 136.946   9.742  1.00 66.29     0.001 C 
HETATM   16  C16 8UH G1620     -34.242 126.199   7.619  1.00 66.29     0.020 C 
HETATM   17  C17 8UH G1620     -35.747 127.773   6.455  1.00 66.29     0.020 C 
HETATM   18  C18 8UH G1620     -31.468 129.944   7.331  1.00 66.29     0.044 C 
HETATM   19  C19 8UH G1620     -35.481 130.835  10.463  1.00 66.29     0.048 C 
HETATM   20  C20 8UH G1620     -38.293 135.234  11.263  1.00 66.29     0.048 C 
HETATM   21  O3  8UH G1620     -31.896 126.540   3.863  1.00 66.29    -0.395 OA
ATOM     22  H3  8UH G1620     -32.499 126.244   3.191  1.00  0.00     0.210 HD
HETATM   23  C21 8UH G1620     -49.775 144.683  11.209  1.00 25.46    -0.018 C 
HETATM   24  C22 8UH G1620     -50.461 145.363  12.390  1.00 25.46     0.045 C 
HETATM   25  C23 8UH G1620     -49.739 146.536  13.029  1.00 25.46     0.123 C 
HETATM   26  C24 8UH G1620     -49.073 147.380  11.966  1.00 25.46     0.066 C 
HETATM   27  C25 8UH G1620     -48.090 146.503  11.249  1.00 25.46    -0.074 C 
HETATM   28  C26 8UH G1620     -48.467 145.315  10.765  1.00 25.46    -0.048 C 
HETATM   29  C27 8UH G1620     -47.636 144.608   9.748  1.00 25.46     0.009 C 
HETATM   30  C28 8UH G1620     -46.615 143.817  10.094  1.00 25.46     0.007 C 
HETATM   31  C29 8UH G1620     -45.774 143.097   9.142  1.00 66.29    -0.062 C 
HETATM   32  C30 8UH G1620     -45.062 142.070   9.611  1.00 66.29     0.007 C 
HETATM   33  C31 8UH G1620     -44.193 141.230   8.799  1.00 66.29     0.001 C 
HETATM   34  C32 8UH G1620     -43.477 140.334   9.465  1.00 66.29     0.007 C 
HETATM   35  C33 8UH G1620     -42.566 139.391   8.807  1.00 66.29    -0.062 C 
HETATM   36  C34 8UH G1620     -41.852 138.566   9.579  1.00 66.29     0.007 C 
HETATM   37  C35 8UH G1620     -40.949 137.588   8.990  1.00 66.29     0.001 C 
HETATM   38  C36 8UH G1620     -50.786 144.624  10.068  1.00 25.46     0.020 C 
HETATM   39  C37 8UH G1620     -49.427 143.272  11.639  1.00 25.46     0.020 C 
HETATM   40  C38 8UH G1620     -47.026 147.328  10.599  1.00 25.46     0.044 C 
HETATM   41  C39 8UH G1620     -45.729 143.501   7.698  1.00 66.29     0.048 C 
HETATM   42  C40 8UH G1620     -42.468 139.354   7.311  1.00 66.29     0.048 C 
HETATM   43  O23 8UH G1620     -50.701 147.333  13.727  1.00 25.46    -0.395 OA
ATOM     44  H23 8UH G1620     -51.119 146.803  14.395  1.00  0.00     0.210 HD
ENDROOT
TORSDOF 12
