REMARK VINA RESULT:   -11.788      0.000      0.000
REMARK INTER + INTRA:         -11.981
REMARK INTER:                 -11.788
REMARK INTRA:                  -0.193
REMARK UNBOUND:                -0.193
REMARK  0 active torsions:
REMARK  status: ('A' for Active; 'I' for Inactive)
REMARK       I    between atoms: C3_3  and  O3_21 
REMARK       I    between atoms: C6_6  and  C7_7 
REMARK       I    between atoms: C8_8  and  C9_9 
REMARK       I    between atoms: C10_10  and  C11_11 
REMARK       I    between atoms: C12_12  and  C13_13 
REMARK       I    between atoms: C14_14  and  C15_15 
REMARK       I    between atoms: C23_25  and  O23_43 
REMARK       I    between atoms: C26_28  and  C27_29 
REMARK       I    between atoms: C28_30  and  C29_31 
REMARK       I    between atoms: C30_32  and  C31_33 
REMARK       I    between atoms: C32_34  and  C33_35 
REMARK       I    between atoms: C34_36  and  C35_37 
ROOT
HETATM    1  C1  8UH g1620     -34.165 128.037   6.981  1.00 66.61    -0.018 C 
HETATM    2  C2  8UH g1620     -33.491 127.567   5.697  1.00 66.61     0.045 C 
HETATM    3  C3  8UH g1620     -32.206 128.259   5.267  1.00 66.61     0.123 C 
HETATM    4  C4  8UH g1620     -31.395 128.717   6.459  1.00 66.61     0.066 C 
HETATM    5  C5  8UH g1620     -32.251 129.588   7.332  1.00 66.61    -0.074 C 
HETATM    6  C6  8UH g1620     -33.503 129.234   7.639  1.00 66.61    -0.048 C 
HETATM    7  C7  8UH g1620     -34.277 129.998   8.650  1.00 66.61     0.009 C 
HETATM    8  C8  8UH g1620     -34.988 131.077   8.317  1.00 66.61     0.007 C 
HETATM    9  C9  8UH g1620     -35.771 131.843   9.296  1.00 66.61    -0.062 C 
HETATM   10  C10 8UH g1620     -36.375 132.953   8.864  1.00 66.61     0.007 C 
HETATM   11  C11 8UH g1620     -37.193 133.797   9.720  1.00 66.61     0.001 C 
HETATM   12  C12 8UH g1620     -37.890 134.733   9.091  1.00 66.61     0.007 C 
HETATM   13  C13 8UH g1620     -38.787 135.670   9.779  1.00 66.61    -0.062 C 
HETATM   14  C14 8UH g1620     -39.529 136.481   9.020  1.00 66.61     0.007 C 
HETATM   15  C15 8UH g1620     -40.470 137.432   9.590  1.00 66.61     0.001 C 
HETATM   16  C16 8UH g1620     -34.211 126.848   7.935  1.00 66.61     0.020 C 
HETATM   17  C17 8UH g1620     -35.592 128.427   6.631  1.00 66.61     0.020 C 
HETATM   18  C18 8UH g1620     -31.501 130.645   8.090  1.00 66.61     0.044 C 
HETATM   19  C19 8UH g1620     -35.891 131.381  10.717  1.00 66.61     0.048 C 
HETATM   20  C20 8UH g1620     -38.868 135.707  11.275  1.00 66.61     0.048 C 
HETATM   21  O3  8UH g1620     -31.423 127.328   4.514  1.00 66.61    -0.395 OA
ATOM     22  H3  8UH g1620     -31.932 127.041   3.765  1.00  0.00     0.210 HD
HETATM   23  C21 8UH g1620     -50.523 144.957   9.991  1.00 21.58    -0.018 C 
HETATM   24  C22 8UH g1620     -51.508 145.542  11.023  1.00 21.20     0.045 C 
HETATM   25  C23 8UH g1620     -51.122 146.776  11.846  1.00 20.61     0.123 C 
HETATM   26  C24 8UH g1620     -49.824 147.475  11.414  1.00 19.82     0.066 C 
HETATM   27  C25 8UH g1620     -48.841 146.810  10.500  1.00 19.81    -0.074 C 
HETATM   28  C26 8UH g1620     -49.115 145.647   9.809  1.00 19.95    -0.048 C 
HETATM   29  C27 8UH g1620     -48.166 144.978   8.872  1.00 17.10     0.009 C 
HETATM   30  C28 8UH g1620     -47.149 144.176   9.261  1.00 17.58     0.007 C 
HETATM   31  C29 8UH g1620     -46.186 143.500   8.441  1.00 66.61    -0.062 C 
HETATM   32  C30 8UH g1620     -45.517 142.471   8.969  1.00 66.61     0.007 C 
HETATM   33  C31 8UH g1620     -44.536 141.670   8.251  1.00 66.61     0.001 C 
HETATM   34  C32 8UH g1620     -43.891 140.768   8.977  1.00 66.61     0.007 C 
HETATM   35  C33 8UH g1620     -42.887 139.859   8.413  1.00 66.61    -0.062 C 
HETATM   36  C34 8UH g1620     -42.256 139.026   9.247  1.00 66.61     0.007 C 
HETATM   37  C35 8UH g1620     -41.268 138.080   8.751  1.00 66.61     0.001 C 
HETATM   38  C36 8UH g1620     -51.342 145.036   8.682  1.00 19.38     0.020 C 
HETATM   39  C37 8UH g1620     -50.343 143.463  10.350  1.00 19.65     0.020 C 
HETATM   40  C38 8UH g1620     -47.612 147.643  10.451  1.00 20.06     0.044 C 
HETATM   41  C39 8UH g1620     -45.972 143.945   7.025  1.00 66.61     0.048 C 
HETATM   42  C40 8UH g1620     -42.604 139.865   6.940  1.00 66.61     0.048 C 
HETATM   43  O23 8UH g1620     -52.193 147.706  11.868  1.00 18.88    -0.395 OA
ATOM     44  H23 8UH g1620     -51.953 148.471  12.378  1.00  0.00     0.210 HD
ENDROOT
TORSDOF 12
