REMARK VINA RESULT:    -9.721      1.606     16.615
REMARK INTER + INTRA:         -12.004
REMARK INTER:                 -11.637
REMARK INTRA:                  -0.367
REMARK UNBOUND:                -2.283
REMARK  0 active torsions:
REMARK  status: ('A' for Active; 'I' for Inactive)
REMARK       I    between atoms: C3_3  and  O3_21 
REMARK       I    between atoms: C6_6  and  C7_7 
REMARK       I    between atoms: C8_8  and  C9_9 
REMARK       I    between atoms: C10_10  and  C11_11 
REMARK       I    between atoms: C12_12  and  C13_13 
REMARK       I    between atoms: C14_14  and  C15_15 
REMARK       I    between atoms: C23_25  and  O23_43 
REMARK       I    between atoms: C26_28  and  C27_29 
REMARK       I    between atoms: C28_30  and  C29_31 
REMARK       I    between atoms: C30_32  and  C31_33 
REMARK       I    between atoms: C32_34  and  C33_35 
REMARK       I    between atoms: C34_36  and  C35_37 
ROOT
HETATM    1  C1  8UH G1620     -34.171 128.184   6.952  1.00 66.29    -0.018 C 
HETATM    2  C2  8UH G1620     -33.435 127.767   5.685  1.00 66.29     0.045 C 
HETATM    3  C3  8UH G1620     -32.128 128.468   5.347  1.00 66.29     0.123 C 
HETATM    4  C4  8UH G1620     -31.376 128.873   6.597  1.00 66.29     0.066 C 
HETATM    5  C5  8UH G1620     -32.270 129.710   7.463  1.00 66.29    -0.074 C 
HETATM    6  C6  8UH G1620     -33.538 129.350   7.692  1.00 66.29    -0.048 C 
HETATM    7  C7  8UH G1620     -34.359 130.076   8.694  1.00 66.29     0.009 C 
HETATM    8  C8  8UH G1620     -35.051 131.171   8.369  1.00 66.29     0.007 C 
HETATM    9  C9  8UH G1620     -35.879 131.900   9.338  1.00 66.29    -0.062 C 
HETATM   10  C10 8UH G1620     -36.457 133.030   8.923  1.00 66.29     0.007 C 
HETATM   11  C11 8UH G1620     -37.314 133.844   9.768  1.00 66.29     0.001 C 
HETATM   12  C12 8UH G1620     -37.975 134.806   9.143  1.00 66.29     0.007 C 
HETATM   13  C13 8UH G1620     -38.902 135.721   9.823  1.00 66.29    -0.062 C 
HETATM   14  C14 8UH G1620     -39.605 136.565   9.061  1.00 66.29     0.007 C 
HETATM   15  C15 8UH G1620     -40.570 137.497   9.621  1.00 66.29     0.001 C 
HETATM   16  C16 8UH G1620     -34.269 126.958   7.851  1.00 66.29     0.020 C 
HETATM   17  C17 8UH G1620     -35.578 128.596   6.548  1.00 66.29     0.020 C 
HETATM   18  C18 8UH G1620     -31.557 130.732   8.299  1.00 66.29     0.044 C 
HETATM   19  C19 8UH G1620     -36.071 131.382  10.732  1.00 66.29     0.048 C 
HETATM   20  C20 8UH G1620     -39.060 135.698  11.313  1.00 66.29     0.048 C 
HETATM   21  O3  8UH G1620     -31.312 127.568   4.594  1.00 66.29    -0.395 OA
ATOM     22  H3  8UH G1620     -31.783 127.314   3.810  1.00  0.00     0.210 HD
HETATM   23  C21 8UH G1620     -50.672 145.368   9.045  1.00 27.99    -0.018 C 
HETATM   24  C22 8UH G1620     -51.806 145.206  10.067  1.00 27.99     0.045 C 
HETATM   25  C23 8UH G1620     -51.371 145.185  11.526  1.00 27.99     0.123 C 
HETATM   26  C24 8UH G1620     -50.299 146.239  11.726  1.00 27.99     0.066 C 
HETATM   27  C25 8UH G1620     -49.116 145.763  10.934  1.00 27.99    -0.074 C 
HETATM   28  C26 8UH G1620     -49.273 145.490   9.633  1.00 27.99    -0.048 C 
HETATM   29  C27 8UH G1620     -48.141 145.073   8.775  1.00 27.99     0.009 C 
HETATM   30  C28 8UH G1620     -47.208 144.276   9.313  1.00 27.99     0.007 C 
HETATM   31  C29 8UH G1620     -46.201 143.635   8.434  1.00 66.29    -0.062 C 
HETATM   32  C30 8UH G1620     -45.562 142.583   8.952  1.00 66.29     0.007 C 
HETATM   33  C31 8UH G1620     -44.550 141.806   8.252  1.00 66.29     0.001 C 
HETATM   34  C32 8UH G1620     -43.945 140.872   8.973  1.00 66.29     0.007 C 
HETATM   35  C33 8UH G1620     -42.916 139.982   8.424  1.00 66.29    -0.062 C 
HETATM   36  C34 8UH G1620     -42.332 139.112   9.254  1.00 66.29     0.007 C 
HETATM   37  C35 8UH G1620     -41.323 138.182   8.769  1.00 66.29     0.001 C 
HETATM   38  C36 8UH G1620     -50.876 146.708   8.336  1.00 27.99     0.020 C 
HETATM   39  C37 8UH G1620     -50.768 144.226   8.036  1.00 27.99     0.020 C 
HETATM   40  C38 8UH G1620     -47.836 146.312  11.503  1.00 27.99     0.044 C 
HETATM   41  C39 8UH G1620     -45.913 144.136   7.049  1.00 66.29     0.048 C 
HETATM   42  C40 8UH G1620     -42.558 140.048   6.969  1.00 66.29     0.048 C 
HETATM   43  O23 8UH G1620     -52.491 145.445  12.382  1.00 27.99    -0.395 OA
ATOM     44  H23 8UH G1620     -53.162 144.785  12.256  1.00  0.00     0.210 HD
ENDROOT
TORSDOF 12
