REMARK VINA RESULT:    -7.118      0.000      0.000
REMARK INTER + INTRA:         -11.002
REMARK INTER:                  -7.118
REMARK INTRA:                  -3.883
REMARK UNBOUND:                -3.883
REMARK  0 active torsions:
REMARK  status: ('A' for Active; 'I' for Inactive)
REMARK       I    between atoms: C3_3  and  O3_21 
REMARK       I    between atoms: C6_6  and  C7_7 
REMARK       I    between atoms: C8_8  and  C9_9 
REMARK       I    between atoms: C10_10  and  C11_11 
REMARK       I    between atoms: C12_12  and  C13_13 
REMARK       I    between atoms: C14_14  and  C15_15 
REMARK       I    between atoms: C23_25  and  O23_43 
REMARK       I    between atoms: C26_28  and  C27_29 
REMARK       I    between atoms: C28_30  and  C29_31 
REMARK       I    between atoms: C30_32  and  C31_33 
REMARK       I    between atoms: C32_34  and  C33_35 
REMARK       I    between atoms: C34_36  and  C35_37 
ROOT
HETATM    1  C1  8UH 2 617     -50.856 144.471  10.868  1.00 73.56    -0.018 C 
HETATM    2  C2  8UH 2 617     -51.834 144.719  12.018  1.00 73.56     0.045 C 
HETATM    3  C3  8UH 2 617     -51.407 145.657  13.146  1.00 73.56     0.123 C 
HETATM    4  C4  8UH 2 617     -50.464 146.740  12.642  1.00 73.56     0.066 C 
HETATM    5  C5  8UH 2 617     -49.294 146.052  11.993  1.00 73.56    -0.074 C 
HETATM    6  C6  8UH 2 617     -49.498 145.136  11.040  1.00 73.56    -0.048 C 
HETATM    7  C7  8UH 2 617     -48.402 144.778  10.106  1.00 73.56     0.009 C 
HETATM    8  C8  8UH 2 617     -47.470 143.867  10.401  1.00 73.56     0.007 C 
HETATM    9  C9  8UH 2 617     -46.394 143.532   9.449  1.00 73.56    -0.062 C 
HETATM   10  C10 8UH 2 617     -45.662 142.431   9.671  1.00 73.56     0.007 C 
HETATM   11  C11 8UH 2 617     -44.571 142.005   8.799  1.00 73.56     0.001 C 
HETATM   12  C12 8UH 2 617     -43.742 141.074   9.266  1.00 73.56     0.007 C 
HETATM   13  C13 8UH 2 617     -42.606 140.543   8.491  1.00 73.56    -0.062 C 
HETATM   14  C14 8UH 2 617     -42.112 139.352   8.853  1.00 73.56     0.007 C 
HETATM   15  C15 8UH 2 617     -41.007 138.688   8.171  1.00 73.56     0.001 C 
HETATM   16  C16 8UH 2 617     -51.533 144.940   9.581  1.00 73.56     0.020 C 
HETATM   17  C17 8UH 2 617     -50.605 142.972  10.770  1.00 73.56     0.020 C 
HETATM   18  C18 8UH 2 617     -48.149 147.022  11.919  1.00 73.56     0.044 C 
HETATM   19  C19 8UH 2 617     -46.128 144.410   8.264  1.00 73.56     0.048 C 
HETATM   20  C20 8UH 2 617     -42.022 141.310   7.340  1.00 73.56     0.048 C 
HETATM   21  O3  8UH 2 617     -52.572 146.272  13.707  1.00 73.56    -0.395 OA
ATOM     22  H3  8UH 2 617     -53.161 145.596  14.023  1.00  0.00     0.210 HD
HETATM   23  C21 8UH 2 617     -35.731 126.649   6.637  1.00 20.50    -0.018 C 
HETATM   24  C22 8UH 2 617     -35.346 126.085   5.275  1.00 20.50     0.045 C 
HETATM   25  C23 8UH 2 617     -34.280 126.831   4.500  1.00 20.50     0.123 C 
HETATM   26  C24 8UH 2 617     -33.409 127.616   5.450  1.00 20.50     0.066 C 
HETATM   27  C25 8UH 2 617     -34.322 128.560   6.160  1.00 20.50    -0.074 C 
HETATM   28  C26 8UH 2 617     -35.313 128.071   6.881  1.00 20.50    -0.048 C 
HETATM   29  C27 8UH 2 617     -36.159 128.895   7.755  1.00 20.50     0.009 C 
HETATM   30  C28 8UH 2 617     -36.439 130.143   7.390  1.00 20.50     0.007 C 
HETATM   31  C29 8UH 2 617     -37.484 130.912   8.126  1.00 73.56    -0.062 C 
HETATM   32  C30 8UH 2 617     -37.699 132.168   7.712  1.00 73.56     0.007 C 
HETATM   33  C31 8UH 2 617     -38.685 133.061   8.310  1.00 73.56     0.001 C 
HETATM   34  C32 8UH 2 617     -38.777 134.303   7.837  1.00 73.56     0.007 C 
HETATM   35  C33 8UH 2 617     -39.758 135.258   8.378  1.00 73.56    -0.062 C 
HETATM   36  C34 8UH 2 617     -39.861 136.508   7.891  1.00 73.56     0.007 C 
HETATM   37  C35 8UH 2 617     -40.872 137.399   8.460  1.00 73.56     0.001 C 
HETATM   38  C36 8UH 2 617     -35.043 125.850   7.729  1.00 20.50     0.020 C 
HETATM   39  C37 8UH 2 617     -37.222 126.490   6.796  1.00 20.50     0.020 C 
HETATM   40  C38 8UH 2 617     -33.493 129.696   6.642  1.00 20.50     0.044 C 
HETATM   41  C39 8UH 2 617     -38.261 130.323   9.266  1.00 73.56     0.048 C 
HETATM   42  C40 8UH 2 617     -40.653 134.804   9.489  1.00 73.56     0.048 C 
HETATM   43  O23 8UH 2 617     -33.503 125.850   3.826  1.00 20.50    -0.395 OA
ATOM     44  H23 8UH 2 617     -32.834 126.318   3.340  1.00  0.00     0.210 HD
ENDROOT
TORSDOF 12
