REMARK VINA RESULT:   -12.026      0.000      0.000
REMARK INTER + INTRA:         -14.512
REMARK INTER:                 -12.026
REMARK INTRA:                  -2.486
REMARK UNBOUND:                -2.486
REMARK  0 active torsions:
REMARK  status: ('A' for Active; 'I' for Inactive)
REMARK       I    between atoms: C3_3  and  O3_21 
REMARK       I    between atoms: C6_6  and  C7_7 
REMARK       I    between atoms: C8_8  and  C9_9 
REMARK       I    between atoms: C10_10  and  C11_11 
REMARK       I    between atoms: C12_12  and  C13_13 
REMARK       I    between atoms: C14_14  and  C15_15 
REMARK       I    between atoms: C23_25  and  O23_43 
REMARK       I    between atoms: C26_28  and  C27_29 
REMARK       I    between atoms: C28_30  and  C29_31 
REMARK       I    between atoms: C30_32  and  C31_33 
REMARK       I    between atoms: C32_34  and  C33_35 
REMARK       I    between atoms: C34_36  and  C35_37 
ROOT
HETATM    1  C1  8UH Y1621     -47.824 145.338  12.370  1.00 37.60    -0.018 C 
HETATM    2  C2  8UH Y1621     -48.819 145.937  13.349  1.00 37.60     0.045 C 
HETATM    3  C3  8UH Y1621     -48.235 146.587  14.582  1.00 37.60     0.123 C 
HETATM    4  C4  8UH Y1621     -47.145 147.544  14.173  1.00 37.60     0.066 C 
HETATM    5  C5  8UH Y1621     -46.119 146.901  13.291  1.00 37.60    -0.074 C 
HETATM    6  C6  8UH Y1621     -46.434 145.943  12.407  1.00 37.60    -0.048 C 
HETATM    7  C7  8UH Y1621     -45.448 145.471  11.397  1.00 37.60     0.009 C 
HETATM    8  C8  8UH Y1621     -44.506 144.560  11.657  1.00 37.60     0.007 C 
HETATM    9  C9  8UH Y1621     -43.555 144.103  10.640  1.00 37.60    -0.062 C 
HETATM   10  C10 8UH Y1621     -43.046 142.884  10.811  1.00 37.60     0.007 C 
HETATM   11  C11 8UH Y1621     -42.106 142.237   9.912  1.00 37.60     0.001 C 
HETATM   12  C12 8UH Y1621     -41.856 140.982  10.250  1.00 37.60     0.007 C 
HETATM   13  C13 8UH Y1621     -40.982 140.048   9.534  1.00 37.60    -0.062 C 
HETATM   14  C14 8UH Y1621     -40.733 138.868  10.106  1.00 37.60     0.007 C 
HETATM   15  C15 8UH Y1621     -39.908 137.881   9.431  1.00 37.60     0.001 C 
HETATM   16  C16 8UH Y1621     -48.475 145.433  10.999  1.00 37.60     0.020 C 
HETATM   17  C17 8UH Y1621     -47.645 143.876  12.703  1.00 37.60     0.020 C 
HETATM   18  C18 8UH Y1621     -44.822 147.649  13.259  1.00 37.60     0.044 C 
HETATM   19  C19 8UH Y1621     -43.180 144.963   9.480  1.00 37.60     0.048 C 
HETATM   20  C20 8UH Y1621     -40.408 140.397   8.199  1.00 37.60     0.048 C 
HETATM   21  O3  8UH Y1621     -49.258 147.359  15.206  1.00 37.60    -0.395 OA
ATOM     22  H3  8UH Y1621     -48.890 147.768  15.982  1.00  0.00     0.210 HD
HETATM   23  C21 8UH Y1621     -34.236 127.125   6.620  1.00 79.00    -0.018 C 
HETATM   24  C22 8UH Y1621     -33.933 126.842   5.149  1.00 79.55     0.045 C 
HETATM   25  C23 8UH Y1621     -32.868 127.705   4.485  1.00 80.08     0.123 C 
HETATM   26  C24 8UH Y1621     -31.741 128.042   5.451  1.00 79.64     0.066 C 
HETATM   27  C25 8UH Y1621     -32.300 128.688   6.691  1.00 79.19    -0.074 C 
HETATM   28  C26 8UH Y1621     -33.479 128.305   7.185  1.00 79.31    -0.048 C 
HETATM   29  C27 8UH Y1621     -34.096 129.055   8.300  1.00 78.64     0.009 C 
HETATM   30  C28 8UH Y1621     -34.932 130.057   8.039  1.00 77.62     0.007 C 
HETATM   31  C29 8UH Y1621     -35.577 130.825   9.110  1.00 37.60    -0.062 C 
HETATM   32  C30 8UH Y1621     -36.565 131.639   8.748  1.00 37.60     0.007 C 
HETATM   33  C31 8UH Y1621     -37.320 132.479   9.660  1.00 37.60     0.001 C 
HETATM   34  C32 8UH Y1621     -37.660 133.656   9.160  1.00 37.60     0.007 C 
HETATM   35  C33 8UH Y1621     -38.434 134.637   9.919  1.00 37.60    -0.062 C 
HETATM   36  C34 8UH Y1621     -38.720 135.809   9.355  1.00 37.60     0.007 C 
HETATM   37  C35 8UH Y1621     -39.513 136.795  10.072  1.00 37.60     0.001 C 
HETATM   38  C36 8UH Y1621     -33.889 125.890   7.445  1.00 78.31     0.020 C 
HETATM   39  C37 8UH Y1621     -35.725 127.426   6.748  1.00 77.27     0.020 C 
HETATM   40  C38 8UH Y1621     -31.638 129.945   7.177  1.00 78.52     0.044 C 
HETATM   41  C39 8UH Y1621     -35.133 130.690  10.529  1.00 37.60     0.048 C 
HETATM   42  C40 8UH Y1621     -38.908 134.304  11.293  1.00 37.60     0.048 C 
HETATM   43  O23 8UH Y1621     -32.319 126.973   3.382  1.00 80.30    -0.395 OA
ATOM     44  H23 8UH Y1621     -31.654 127.511   2.968  1.00  0.00     0.210 HD
ENDROOT
TORSDOF 12
