REMARK VINA RESULT:   -11.250      0.000      0.000
REMARK INTER + INTRA:         -13.565
REMARK INTER:                 -11.250
REMARK INTRA:                  -2.314
REMARK UNBOUND:                -2.314
REMARK  0 active torsions:
REMARK  status: ('A' for Active; 'I' for Inactive)
REMARK       I    between atoms: C3_3  and  O3_21 
REMARK       I    between atoms: C6_6  and  C7_7 
REMARK       I    between atoms: C8_8  and  C9_9 
REMARK       I    between atoms: C10_10  and  C11_11 
REMARK       I    between atoms: C12_12  and  C13_13 
REMARK       I    between atoms: C14_14  and  C15_15 
REMARK       I    between atoms: C23_25  and  O23_43 
REMARK       I    between atoms: C26_28  and  C27_29 
REMARK       I    between atoms: C28_30  and  C29_31 
REMARK       I    between atoms: C30_32  and  C31_33 
REMARK       I    between atoms: C32_34  and  C33_35 
REMARK       I    between atoms: C34_36  and  C35_37 
ROOT
HETATM    1  C1  8UH G1620     -48.771 144.884  12.460  1.00 59.27    -0.018 C 
HETATM    2  C2  8UH G1620     -49.562 145.450  13.628  1.00 64.60     0.045 C 
HETATM    3  C3  8UH G1620     -48.728 146.123  14.697  1.00 63.28     0.123 C 
HETATM    4  C4  8UH G1620     -47.861 147.187  14.077  1.00 61.00     0.066 C 
HETATM    5  C5  8UH G1620     -47.009 146.593  12.991  1.00 64.87    -0.074 C 
HETATM    6  C6  8UH G1620     -47.431 145.566  12.226  1.00 63.96    -0.048 C 
HETATM    7  C7  8UH G1620     -46.612 145.086  11.081  1.00 64.82     0.009 C 
HETATM    8  C8  8UH G1620     -45.622 144.199  11.221  1.00 58.91     0.007 C 
HETATM    9  C9  8UH G1620     -44.825 143.718  10.092  1.00 59.76    -0.062 C 
HETATM   10  C10 8UH G1620     -43.930 142.769  10.381  1.00 59.44     0.007 C 
HETATM   11  C11 8UH G1620     -43.035 142.127   9.436  1.00 53.66     0.001 C 
HETATM   12  C12 8UH G1620     -42.390 141.096   9.956  1.00 59.47     0.007 C 
HETATM   13  C13 8UH G1620     -41.450 140.264   9.198  1.00 64.69    -0.062 C 
HETATM   14  C14 8UH G1620     -40.997 139.157   9.793  1.00 66.67     0.007 C 
HETATM   15  C15 8UH G1620     -40.090 138.235   9.127  1.00 73.65     0.001 C 
HETATM   16  C16 8UH G1620     -49.703 144.974  11.257  1.00 56.55     0.020 C 
HETATM   17  C17 8UH G1620     -48.472 143.419  12.744  1.00 59.14     0.020 C 
HETATM   18  C18 8UH G1620     -45.731 147.342  12.735  1.00 61.00     0.044 C 
HETATM   19  C19 8UH G1620     -45.012 144.288   8.719  1.00 55.95     0.048 C 
HETATM   20  C20 8UH G1620     -41.036 140.645   7.810  1.00 67.83     0.048 C 
HETATM   21  O3  8UH G1620     -49.598 146.731  15.654  1.00 73.40    -0.395 OA
ATOM     22  H3  8UH G1620     -49.074 147.154  16.325  1.00  0.00     0.210 HD
HETATM   23  C21 8UH G1620     -34.279 127.281   6.683  1.00 57.09    -0.018 C 
HETATM   24  C22 8UH G1620     -33.795 126.672   5.374  1.00 57.09     0.045 C 
HETATM   25  C23 8UH G1620     -32.735 127.434   4.601  1.00 57.09     0.123 C 
HETATM   26  C24 8UH G1620     -31.754 128.089   5.546  1.00 57.09     0.066 C 
HETATM   27  C25 8UH G1620     -32.509 129.003   6.465  1.00 57.09    -0.074 C 
HETATM   28  C26 8UH G1620     -33.608 128.574   7.097  1.00 57.09    -0.048 C 
HETATM   29  C27 8UH G1620     -34.196 129.332   8.235  1.00 57.09     0.009 C 
HETATM   30  C28 8UH G1620     -34.990 130.390   8.044  1.00 57.09     0.007 C 
HETATM   31  C29 8UH G1620     -35.608 131.156   9.129  1.00 93.82    -0.062 C 
HETATM   32  C30 8UH G1620     -36.392 132.156   8.734  1.00 83.29     0.007 C 
HETATM   33  C31 8UH G1620     -37.132 133.026   9.626  1.00 75.18     0.001 C 
HETATM   34  C32 8UH G1620     -37.712 134.052   9.027  1.00 71.38     0.007 C 
HETATM   35  C33 8UH G1620     -38.538 135.017   9.757  1.00 70.67    -0.062 C 
HETATM   36  C34 8UH G1620     -39.001 136.079   9.089  1.00 74.09     0.007 C 
HETATM   37  C35 8UH G1620     -39.863 137.068   9.717  1.00 74.87     0.001 C 
HETATM   38  C36 8UH G1620     -34.113 126.217   7.757  1.00 57.09     0.020 C 
HETATM   39  C37 8UH G1620     -35.750 127.593   6.517  1.00 57.09     0.020 C 
HETATM   40  C38 8UH G1620     -31.632 130.085   7.020  1.00 57.09     0.044 C 
HETATM   41  C39 8UH G1620     -35.382 130.830  10.574  1.00 99.93     0.048 C 
HETATM   42  C40 8UH G1620     -38.865 134.785  11.197  1.00 65.73     0.048 C 
HETATM   43  O23 8UH G1620     -32.033 126.493   3.786  1.00 57.09    -0.395 OA
ATOM     44  H23 8UH G1620     -31.368 126.970   3.302  1.00  0.00     0.210 HD
ENDROOT
TORSDOF 12
