REMARK VINA RESULT:    -8.594      1.046     16.759
REMARK INTER + INTRA:         -11.303
REMARK INTER:                 -10.674
REMARK INTRA:                  -0.629
REMARK UNBOUND:                -2.709
REMARK  0 active torsions:
REMARK  status: ('A' for Active; 'I' for Inactive)
REMARK       I    between atoms: C3_3  and  O3_21 
REMARK       I    between atoms: C6_6  and  C7_7 
REMARK       I    between atoms: C8_8  and  C9_9 
REMARK       I    between atoms: C10_10  and  C11_11 
REMARK       I    between atoms: C12_12  and  C13_13 
REMARK       I    between atoms: C14_14  and  C15_15 
REMARK       I    between atoms: C23_25  and  O23_43 
REMARK       I    between atoms: C26_28  and  C27_29 
REMARK       I    between atoms: C28_30  and  C29_31 
REMARK       I    between atoms: C30_32  and  C31_33 
REMARK       I    between atoms: C32_34  and  C33_35 
REMARK       I    between atoms: C34_36  and  C35_37 
ROOT
HETATM    1  C1  8UH 31621     -50.624 144.792  10.496  1.00 71.39    -0.018 C 
HETATM    2  C2  8UH 31621     -51.397 144.914  11.803  1.00 71.39     0.045 C 
HETATM    3  C3  8UH 31621     -50.856 145.860  12.868  1.00 71.39     0.123 C 
HETATM    4  C4  8UH 31621     -50.092 147.011  12.253  1.00 71.39     0.066 C 
HETATM    5  C5  8UH 31621     -49.010 146.414  11.405  1.00 71.39    -0.074 C 
HETATM    6  C6  8UH 31621     -49.277 145.478  10.497  1.00 71.39    -0.048 C 
HETATM    7  C7  8UH 31621     -48.286 145.071   9.463  1.00 71.39     0.009 C 
HETATM    8  C8  8UH 31621     -47.325 144.184   9.728  1.00 71.39     0.007 C 
HETATM    9  C9  8UH 31621     -46.326 143.709   8.754  1.00 71.39    -0.062 C 
HETATM   10  C10 8UH 31621     -45.571 142.676   9.138  1.00 71.39     0.007 C 
HETATM   11  C11 8UH 31621     -44.538 142.004   8.358  1.00 71.39     0.001 C 
HETATM   12  C12 8UH 31621     -43.975 140.967   8.978  1.00 71.39     0.007 C 
HETATM   13  C13 8UH 31621     -42.933 140.101   8.406  1.00 71.39    -0.062 C 
HETATM   14  C14 8UH 31621     -42.492 139.077   9.147  1.00 71.39     0.007 C 
HETATM   15  C15 8UH 31621     -41.496 138.141   8.645  1.00 71.39     0.001 C 
HETATM   16  C16 8UH 31621     -51.507 145.319   9.370  1.00 71.39     0.020 C 
HETATM   17  C17 8UH 31621     -50.375 143.320  10.237  1.00 71.39     0.020 C 
HETATM   18  C18 8UH 31621     -47.843 147.333  11.286  1.00 71.39     0.044 C 
HETATM   19  C19 8UH 31621     -46.169 144.328   7.400  1.00 71.39     0.048 C 
HETATM   20  C20 8UH 31621     -42.401 140.340   7.029  1.00 71.39     0.048 C 
HETATM   21  O3  8UH 31621     -51.953 146.407  13.606  1.00 71.39    -0.395 OA
ATOM     22  H3  8UH 31621     -51.616 146.997  14.270  1.00  0.00     0.210 HD
HETATM   23  C21 8UH 31621     -34.049 128.139   6.994  1.00 70.34    -0.018 C 
HETATM   24  C22 8UH 31621     -33.484 127.596   5.697  1.00 70.34     0.045 C 
HETATM   25  C23 8UH 31621     -31.996 127.798   5.472  1.00 70.34     0.123 C 
HETATM   26  C24 8UH 31621     -31.529 129.195   5.834  1.00 70.34     0.066 C 
HETATM   27  C25 8UH 31621     -32.297 129.909   6.907  1.00 70.34    -0.074 C 
HETATM   28  C26 8UH 31621     -33.471 129.482   7.379  1.00 70.34    -0.048 C 
HETATM   29  C27 8UH 31621     -34.242 130.301   8.344  1.00 70.34     0.009 C 
HETATM   30  C28 8UH 31621     -35.198 131.144   7.968  1.00 70.34     0.007 C 
HETATM   31  C29 8UH 31621     -35.969 131.930   8.934  1.00 71.39    -0.062 C 
HETATM   32  C30 8UH 31621     -37.079 132.526   8.489  1.00 71.39     0.007 C 
HETATM   33  C31 8UH 31621     -37.955 133.336   9.324  1.00 71.39     0.001 C 
HETATM   34  C32 8UH 31621     -38.569 134.353   8.736  1.00 71.39     0.007 C 
HETATM   35  C33 8UH 31621     -39.484 135.244   9.455  1.00 71.39    -0.062 C 
HETATM   36  C34 8UH 31621     -40.039 136.268   8.803  1.00 71.39     0.007 C 
HETATM   37  C35 8UH 31621     -40.985 137.188   9.421  1.00 71.39     0.001 C 
HETATM   38  C36 8UH 31621     -33.831 127.106   8.092  1.00 70.34     0.020 C 
HETATM   39  C37 8UH 31621     -35.545 128.324   6.768  1.00 70.34     0.020 C 
HETATM   40  C38 8UH 31621     -31.794 131.301   7.163  1.00 70.34     0.044 C 
HETATM   41  C39 8UH 31621     -35.521 132.051  10.355  1.00 71.39     0.048 C 
HETATM   42  C40 8UH 31621     -39.764 134.981  10.892  1.00 71.39     0.048 C 
HETATM   43  O23 8UH 31621     -31.224 126.822   6.174  1.00 70.34    -0.395 OA
ATOM     44  H23 8UH 31621     -30.293 126.950   6.033  1.00  0.00     0.210 HD
ENDROOT
TORSDOF 12
