REMARK VINA RESULT:   -11.530      0.000      0.000
REMARK INTER + INTRA:         -12.027
REMARK INTER:                 -11.530
REMARK INTRA:                  -0.497
REMARK UNBOUND:                -0.497
REMARK  0 active torsions:
REMARK  status: ('A' for Active; 'I' for Inactive)
REMARK       I    between atoms: C3_3  and  O3_21 
REMARK       I    between atoms: C6_6  and  C7_7 
REMARK       I    between atoms: C8_8  and  C9_9 
REMARK       I    between atoms: C10_10  and  C11_11 
REMARK       I    between atoms: C12_12  and  C13_13 
REMARK       I    between atoms: C14_14  and  C15_15 
REMARK       I    between atoms: C23_25  and  O23_43 
REMARK       I    between atoms: C26_28  and  C27_29 
REMARK       I    between atoms: C28_30  and  C29_31 
REMARK       I    between atoms: C30_32  and  C31_33 
REMARK       I    between atoms: C32_34  and  C33_35 
REMARK       I    between atoms: C34_36  and  C35_37 
ROOT
HETATM    1  C1  8UH g1620     -34.123 128.120   6.984  1.00 66.61    -0.018 C 
HETATM    2  C2  8UH g1620     -33.388 127.684   5.721  1.00 66.61     0.045 C 
HETATM    3  C3  8UH g1620     -32.093 128.395   5.362  1.00 66.61     0.123 C 
HETATM    4  C4  8UH g1620     -31.339 128.835   6.598  1.00 66.61     0.066 C 
HETATM    5  C5  8UH g1620     -32.241 129.679   7.452  1.00 66.61    -0.074 C 
HETATM    6  C6  8UH g1620     -33.502 129.307   7.695  1.00 66.61    -0.048 C 
HETATM    7  C7  8UH g1620     -34.326 130.043   8.687  1.00 66.61     0.009 C 
HETATM    8  C8  8UH g1620     -35.032 131.123   8.346  1.00 66.61     0.007 C 
HETATM    9  C9  8UH g1620     -35.864 131.861   9.306  1.00 66.61    -0.062 C 
HETATM   10  C10 8UH g1620     -36.459 132.975   8.872  1.00 66.61     0.007 C 
HETATM   11  C11 8UH g1620     -37.322 133.793   9.708  1.00 66.61     0.001 C 
HETATM   12  C12 8UH g1620     -37.999 134.737   9.069  1.00 66.61     0.007 C 
HETATM   13  C13 8UH g1620     -38.934 135.651   9.737  1.00 66.61    -0.062 C 
HETATM   14  C14 8UH g1620     -39.650 136.473   8.964  1.00 66.61     0.007 C 
HETATM   15  C15 8UH g1620     -40.624 137.403   9.512  1.00 66.61     0.001 C 
HETATM   16  C16 8UH g1620     -34.200 126.910   7.908  1.00 66.61     0.020 C 
HETATM   17  C17 8UH g1620     -35.537 128.505   6.579  1.00 66.61     0.020 C 
HETATM   18  C18 8UH g1620     -31.535 130.725   8.264  1.00 66.61     0.044 C 
HETATM   19  C19 8UH g1620     -36.042 131.367  10.710  1.00 66.61     0.048 C 
HETATM   20  C20 8UH g1620     -39.081 135.655  11.229  1.00 66.61     0.048 C 
HETATM   21  O3  8UH g1620     -31.269 127.488   4.625  1.00 66.61    -0.395 OA
ATOM     22  H3  8UH g1620     -31.742 127.212   3.849  1.00  0.00     0.210 HD
HETATM   23  C21 8UH g1620     -50.722 145.063   9.649  1.00 17.81    -0.018 C 
HETATM   24  C22 8UH g1620     -51.692 145.942  10.466  1.00 18.03     0.045 C 
HETATM   25  C23 8UH g1620     -51.052 146.895  11.472  1.00 19.41     0.123 C 
HETATM   26  C24 8UH g1620     -49.873 147.663  10.879  1.00 18.47     0.066 C 
HETATM   27  C25 8UH g1620     -48.939 146.867  10.028  1.00 18.29    -0.074 C 
HETATM   28  C26 8UH g1620     -49.294 145.657   9.443  1.00 18.07    -0.048 C 
HETATM   29  C27 8UH g1620     -48.339 144.891   8.609  1.00 17.25     0.009 C 
HETATM   30  C28 8UH g1620     -47.345 144.096   9.047  1.00 17.01     0.007 C 
HETATM   31  C29 8UH g1620     -46.340 143.446   8.242  1.00 66.61    -0.062 C 
HETATM   32  C30 8UH g1620     -45.685 142.412   8.777  1.00 66.61     0.007 C 
HETATM   33  C31 8UH g1620     -44.667 141.634   8.085  1.00 66.61     0.001 C 
HETATM   34  C32 8UH g1620     -44.045 140.723   8.820  1.00 66.61     0.007 C 
HETATM   35  C33 8UH g1620     -43.009 139.834   8.282  1.00 66.61    -0.062 C 
HETATM   36  C34 8UH g1620     -42.407 138.989   9.125  1.00 66.61     0.007 C 
HETATM   37  C35 8UH g1620     -41.390 138.062   8.652  1.00 66.61     0.001 C 
HETATM   38  C36 8UH g1620     -51.446 144.901   8.312  1.00 16.04     0.020 C 
HETATM   39  C37 8UH g1620     -50.630 143.668  10.283  1.00 17.79     0.020 C 
HETATM   40  C38 8UH g1620     -47.655 147.621   9.974  1.00 17.18     0.044 C 
HETATM   41  C39 8UH g1620     -46.068 143.924   6.847  1.00 66.61     0.048 C 
HETATM   42  C40 8UH g1620     -42.662 139.875   6.823  1.00 66.61     0.048 C 
HETATM   43  O23 8UH g1620     -52.018 147.796  11.997  1.00 19.31    -0.395 OA
ATOM     44  H23 8UH g1620     -51.619 148.388  12.624  1.00  0.00     0.210 HD
ENDROOT
TORSDOF 12
