REMARK VINA RESULT:   -10.068      1.410     16.700
REMARK INTER + INTRA:         -12.683
REMARK INTER:                  -9.490
REMARK INTRA:                  -3.193
REMARK UNBOUND:                -2.615
REMARK  0 active torsions:
REMARK  status: ('A' for Active; 'I' for Inactive)
REMARK       I    between atoms: C3_3  and  O3_21 
REMARK       I    between atoms: C6_6  and  C7_7 
REMARK       I    between atoms: C8_8  and  C9_9 
REMARK       I    between atoms: C10_10  and  C11_11 
REMARK       I    between atoms: C12_12  and  C13_13 
REMARK       I    between atoms: C14_14  and  C15_15 
REMARK       I    between atoms: C23_25  and  O23_43 
REMARK       I    between atoms: C26_28  and  C27_29 
REMARK       I    between atoms: C28_30  and  C29_31 
REMARK       I    between atoms: C30_32  and  C31_33 
REMARK       I    between atoms: C32_34  and  C33_35 
REMARK       I    between atoms: C34_36  and  C35_37 
ROOT
HETATM    1  C1  8UH 21621     -34.448 126.953   6.211  1.00 90.34    -0.018 C 
HETATM    2  C2  8UH 21621     -34.076 126.327   4.871  1.00 90.34     0.045 C 
HETATM    3  C3  8UH 21621     -32.926 126.945   4.094  1.00 90.34     0.123 C 
HETATM    4  C4  8UH 21621     -31.872 127.518   5.021  1.00 90.34     0.066 C 
HETATM    5  C5  8UH 21621     -32.549 128.509   5.921  1.00 90.34    -0.074 C 
HETATM    6  C6  8UH 21621     -33.640 128.171   6.606  1.00 90.34    -0.048 C 
HETATM    7  C7  8UH 21621     -34.092 128.953   7.784  1.00 90.34     0.009 C 
HETATM    8  C8  8UH 21621     -34.780 130.088   7.632  1.00 90.34     0.007 C 
HETATM    9  C9  8UH 21621     -35.289 130.905   8.741  1.00 90.34    -0.062 C 
HETATM   10  C10 8UH 21621     -36.208 131.812   8.409  1.00 90.34     0.007 C 
HETATM   11  C11 8UH 21621     -36.900 132.730   9.298  1.00 90.34     0.001 C 
HETATM   12  C12 8UH 21621     -37.765 133.531   8.683  1.00 90.34     0.007 C 
HETATM   13  C13 8UH 21621     -38.588 134.505   9.408  1.00 90.34    -0.062 C 
HETATM   14  C14 8UH 21621     -39.460 135.243   8.714  1.00 90.34     0.007 C 
HETATM   15  C15 8UH 21621     -40.338 136.201   9.372  1.00 90.34     0.001 C 
HETATM   16  C16 8UH 21621     -34.326 125.850   7.255  1.00 90.34     0.020 C 
HETATM   17  C17 8UH 21621     -35.893 127.407   6.134  1.00 90.34     0.020 C 
HETATM   18  C18 8UH 21621     -31.506 129.418   6.492  1.00 90.34     0.044 C 
HETATM   19  C19 8UH 21621     -34.818 130.725  10.151  1.00 90.34     0.048 C 
HETATM   20  C20 8UH 21621     -38.465 134.648  10.894  1.00 90.34     0.048 C 
HETATM   21  O3  8UH 21621     -32.321 125.919   3.308  1.00 90.34    -0.395 OA
ATOM     22  H3  8UH 21621     -31.602 126.305   2.822  1.00  0.00     0.210 HD
HETATM   23  C21 8UH 21621     -50.187 144.089  11.208  1.00 71.46    -0.018 C 
HETATM   24  C22 8UH 21621     -50.966 144.757  12.326  1.00 75.98     0.045 C 
HETATM   25  C23 8UH 21621     -50.189 145.228  13.536  1.00 84.37     0.123 C 
HETATM   26  C24 8UH 21621     -48.942 145.958  13.125  1.00 79.68     0.066 C 
HETATM   27  C25 8UH 21621     -48.123 145.084  12.225  1.00 81.86    -0.074 C 
HETATM   28  C26 8UH 21621     -48.684 144.331  11.266  1.00 72.92    -0.048 C 
HETATM   29  C27 8UH 21621     -47.833 143.740  10.206  1.00 76.42     0.009 C 
HETATM   30  C28 8UH 21621     -47.186 142.593  10.398  1.00 69.46     0.007 C 
HETATM   31  C29 8UH 21621     -46.338 141.986   9.365  1.00 90.34    -0.062 C 
HETATM   32  C30 8UH 21621     -45.853 140.781   9.657  1.00 90.34     0.007 C 
HETATM   33  C31 8UH 21621     -45.011 139.978   8.783  1.00 90.34     0.001 C 
HETATM   34  C32 8UH 21621     -44.072 139.254   9.380  1.00 90.34     0.007 C 
HETATM   35  C33 8UH 21621     -43.165 138.370   8.640  1.00 90.34    -0.062 C 
HETATM   36  C34 8UH 21621     -42.165 137.770   9.302  1.00 90.34     0.007 C 
HETATM   37  C35 8UH 21621     -41.248 136.845   8.646  1.00 90.34     0.001 C 
HETATM   38  C36 8UH 21621     -50.823 144.581   9.917  1.00 75.59     0.020 C 
HETATM   39  C37 8UH 21621     -50.432 142.590  11.277  1.00 74.59     0.020 C 
HETATM   40  C38 8UH 21621     -46.712 145.584  12.142  1.00 90.73     0.044 C 
HETATM   41  C39 8UH 21621     -46.051 142.662   8.060  1.00 90.34     0.048 C 
HETATM   42  C40 8UH 21621     -43.394 138.138   7.182  1.00 90.34     0.048 C 
HETATM   43  O23 8UH 21621     -51.006 146.141  14.268  1.00 94.57    -0.395 OA
ATOM     44  H23 8UH 21621     -51.795 145.679  14.528  1.00  0.00     0.210 HD
ENDROOT
TORSDOF 12
