REMARK VINA RESULT:    -8.993      1.277     16.326
REMARK INTER + INTRA:         -11.625
REMARK INTER:                 -11.183
REMARK INTRA:                  -0.442
REMARK UNBOUND:                -2.631
REMARK  0 active torsions:
REMARK  status: ('A' for Active; 'I' for Inactive)
REMARK       I    between atoms: C3_3  and  O3_21 
REMARK       I    between atoms: C6_6  and  C7_7 
REMARK       I    between atoms: C8_8  and  C9_9 
REMARK       I    between atoms: C10_10  and  C11_11 
REMARK       I    between atoms: C12_12  and  C13_13 
REMARK       I    between atoms: C14_14  and  C15_15 
REMARK       I    between atoms: C23_25  and  O23_43 
REMARK       I    between atoms: C26_28  and  C27_29 
REMARK       I    between atoms: C28_30  and  C29_31 
REMARK       I    between atoms: C30_32  and  C31_33 
REMARK       I    between atoms: C32_34  and  C33_35 
REMARK       I    between atoms: C34_36  and  C35_37 
ROOT
HETATM    1  C1  8UH U1620     -50.259 144.460  10.489  1.00 22.99    -0.018 C 
HETATM    2  C2  8UH U1620     -50.339 144.316  11.994  1.00 22.99     0.045 C 
HETATM    3  C3  8UH U1620     -49.145 144.867  12.725  1.00 22.99     0.123 C 
HETATM    4  C4  8UH U1620     -49.056 146.314  12.332  1.00 22.99     0.066 C 
HETATM    5  C5  8UH U1620     -48.810 146.422  10.863  1.00 22.99    -0.074 C 
HETATM    6  C6  8UH U1620     -49.183 145.433  10.060  1.00 22.99    -0.048 C 
HETATM    7  C7  8UH U1620     -48.324 145.034   8.951  1.00 22.99     0.009 C 
HETATM    8  C8  8UH U1620     -47.401 144.201   9.443  1.00 22.99     0.007 C 
HETATM    9  C9  8UH U1620     -46.346 143.576   8.626  1.00 22.99    -0.062 C 
HETATM   10  C10 8UH U1620     -45.513 142.718   9.240  1.00 22.99     0.007 C 
HETATM   11  C11 8UH U1620     -44.451 142.002   8.545  1.00 22.99     0.001 C 
HETATM   12  C12 8UH U1620     -43.698 141.125   9.198  1.00 22.99     0.007 C 
HETATM   13  C13 8UH U1620     -42.678 140.361   8.472  1.00 22.99    -0.062 C 
HETATM   14  C14 8UH U1620     -42.068 139.378   9.140  1.00 22.99     0.007 C 
HETATM   15  C15 8UH U1620     -41.088 138.459   8.578  1.00 22.99     0.001 C 
HETATM   16  C16 8UH U1620     -51.655 144.852  10.049  1.00 22.99     0.020 C 
HETATM   17  C17 8UH U1620     -49.918 143.104   9.894  1.00 22.99     0.020 C 
HETATM   18  C18 8UH U1620     -47.501 147.136  10.753  1.00 22.99     0.044 C 
HETATM   19  C19 8UH U1620     -46.244 143.899   7.165  1.00 22.99     0.048 C 
HETATM   20  C20 8UH U1620     -42.447 140.662   7.027  1.00 22.99     0.048 C 
HETATM   21  O3  8UH U1620     -49.388 144.804  14.124  1.00 22.99    -0.395 OA
ATOM     22  H3  8UH U1620     -48.634 145.153  14.585  1.00  0.00     0.210 HD
HETATM   23  C21 8UH U1620     -34.059 128.085   7.063  1.00 48.43    -0.018 C 
HETATM   24  C22 8UH U1620     -33.265 127.450   5.931  1.00 44.61     0.045 C 
HETATM   25  C23 8UH U1620     -32.065 128.234   5.434  1.00 44.41     0.123 C 
HETATM   26  C24 8UH U1620     -31.303 128.838   6.588  1.00 41.53     0.066 C 
HETATM   27  C25 8UH U1620     -32.230 129.758   7.319  1.00 37.72    -0.074 C 
HETATM   28  C26 8UH U1620     -33.452 129.346   7.652  1.00 43.52    -0.048 C 
HETATM   29  C27 8UH U1620     -34.275 130.081   8.642  1.00 44.60     0.009 C 
HETATM   30  C28 8UH U1620     -34.979 131.157   8.316  1.00 43.22     0.007 C 
HETATM   31  C29 8UH U1620     -35.833 131.855   9.305  1.00 22.99    -0.062 C 
HETATM   32  C30 8UH U1620     -36.574 132.864   8.815  1.00 22.99     0.007 C 
HETATM   33  C31 8UH U1620     -37.517 133.683   9.575  1.00 22.99     0.001 C 
HETATM   34  C32 8UH U1620     -38.171 134.653   8.938  1.00 22.99     0.007 C 
HETATM   35  C33 8UH U1620     -39.140 135.536   9.610  1.00 22.99    -0.062 C 
HETATM   36  C34 8UH U1620     -39.688 136.513   8.868  1.00 22.99     0.007 C 
HETATM   37  C35 8UH U1620     -40.652 137.486   9.369  1.00 22.99     0.001 C 
HETATM   38  C36 8UH U1620     -34.244 126.988   8.106  1.00 47.48     0.020 C 
HETATM   39  C37 8UH U1620     -35.418 128.520   6.543  1.00 54.25     0.020 C 
HETATM   40  C38 8UH U1620     -31.495 130.801   8.091  1.00 37.77     0.044 C 
HETATM   41  C39 8UH U1620     -35.880 131.391  10.732  1.00 22.99     0.048 C 
HETATM   42  C40 8UH U1620     -39.481 135.293  11.050  1.00 22.99     0.048 C 
HETATM   43  O23 8UH U1620     -31.197 127.349   4.726  1.00 48.83    -0.395 OA
ATOM     44  H23 8UH U1620     -30.445 127.840   4.414  1.00  0.00     0.210 HD
ENDROOT
TORSDOF 12
