REMARK VINA RESULT:   -10.576      0.000      0.000
REMARK INTER + INTRA:         -12.715
REMARK INTER:                 -10.576
REMARK INTRA:                  -2.138
REMARK UNBOUND:                -2.138
REMARK  0 active torsions:
REMARK  status: ('A' for Active; 'I' for Inactive)
REMARK       I    between atoms: C3_3  and  O3_21 
REMARK       I    between atoms: C6_6  and  C7_7 
REMARK       I    between atoms: C8_8  and  C9_9 
REMARK       I    between atoms: C10_10  and  C11_11 
REMARK       I    between atoms: C12_12  and  C13_13 
REMARK       I    between atoms: C14_14  and  C15_15 
REMARK       I    between atoms: C23_25  and  O23_43 
REMARK       I    between atoms: C26_28  and  C27_29 
REMARK       I    between atoms: C28_30  and  C29_31 
REMARK       I    between atoms: C30_32  and  C31_33 
REMARK       I    between atoms: C32_34  and  C33_35 
REMARK       I    between atoms: C34_36  and  C35_37 
ROOT
HETATM    1  C1  8UH Z 619     -34.503 126.902   6.417  1.00 43.24    -0.018 C 
HETATM    2  C2  8UH Z 619     -34.148 126.296   5.057  1.00 43.24     0.045 C 
HETATM    3  C3  8UH Z 619     -33.047 126.961   4.233  1.00 43.24     0.123 C 
HETATM    4  C4  8UH Z 619     -32.027 127.677   5.096  1.00 43.24     0.066 C 
HETATM    5  C5  8UH Z 619     -32.748 128.631   6.005  1.00 43.24    -0.074 C 
HETATM    6  C6  8UH Z 619     -33.814 128.229   6.707  1.00 43.24    -0.048 C 
HETATM    7  C7  8UH Z 619     -34.319 129.098   7.800  1.00 43.24     0.009 C 
HETATM    8  C8  8UH Z 619     -35.254 130.021   7.565  1.00 43.24     0.007 C 
HETATM    9  C9  8UH Z 619     -35.783 130.927   8.597  1.00 43.24    -0.062 C 
HETATM   10  C10 8UH Z 619     -36.690 131.823   8.197  1.00 43.24     0.007 C 
HETATM   11  C11 8UH Z 619     -37.297 132.811   9.075  1.00 43.24     0.001 C 
HETATM   12  C12 8UH Z 619     -38.068 133.708   8.472  1.00 43.24     0.007 C 
HETATM   13  C13 8UH Z 619     -38.741 134.786   9.207  1.00 43.24    -0.062 C 
HETATM   14  C14 8UH Z 619     -39.650 135.531   8.563  1.00 43.24     0.007 C 
HETATM   15  C15 8UH Z 619     -40.336 136.623   9.238  1.00 43.24     0.001 C 
HETATM   16  C16 8UH Z 619     -34.168 125.850   7.471  1.00 43.24     0.020 C 
HETATM   17  C17 8UH Z 619     -36.004 127.148   6.464  1.00 43.24     0.020 C 
HETATM   18  C18 8UH Z 619     -31.888 129.779   6.453  1.00 43.24     0.044 C 
HETATM   19  C19 8UH Z 619     -35.315 130.864  10.019  1.00 43.24     0.048 C 
HETATM   20  C20 8UH Z 619     -38.395 135.049  10.642  1.00 43.24     0.048 C 
HETATM   21  O3  8UH Z 619     -32.365 125.957   3.473  1.00 43.24    -0.395 OA
ATOM     22  H3  8UH Z 619     -33.005 125.508   2.933  1.00  0.00     0.210 HD
HETATM   23  C21 8UH Z 619     -48.805 145.890  11.102  1.00 51.52    -0.018 C 
HETATM   24  C22 8UH Z 619     -49.184 146.871  12.202  1.00 51.52     0.045 C 
HETATM   25  C23 8UH Z 619     -48.228 148.015  12.455  1.00 51.52     0.123 C 
HETATM   26  C24 8UH Z 619     -47.708 148.547  11.142  1.00 51.52     0.066 C 
HETATM   27  C25 8UH Z 619     -47.000 147.446  10.411  1.00 51.52    -0.074 C 
HETATM   28  C26 8UH Z 619     -47.541 146.228  10.332  1.00 51.52    -0.048 C 
HETATM   29  C27 8UH Z 619     -46.954 145.151   9.492  1.00 51.52     0.009 C 
HETATM   30  C28 8UH Z 619     -45.954 144.377   9.922  1.00 51.52     0.007 C 
HETATM   31  C29 8UH Z 619     -45.396 143.287   9.137  1.00 43.24    -0.062 C 
HETATM   32  C30 8UH Z 619     -44.732 142.290   9.738  1.00 43.24     0.007 C 
HETATM   33  C31 8UH Z 619     -44.168 141.196   8.955  1.00 43.24     0.001 C 
HETATM   34  C32 8UH Z 619     -43.481 140.236   9.562  1.00 43.24     0.007 C 
HETATM   35  C33 8UH Z 619     -42.897 139.139   8.775  1.00 43.24    -0.062 C 
HETATM   36  C34 8UH Z 619     -41.899 138.431   9.315  1.00 43.24     0.007 C 
HETATM   37  C35 8UH Z 619     -41.254 137.338   8.600  1.00 43.24     0.001 C 
HETATM   38  C36 8UH Z 619     -50.000 145.753  10.172  1.00 51.52     0.020 C 
HETATM   39  C37 8UH Z 619     -48.584 144.547  11.760  1.00 51.52     0.020 C 
HETATM   40  C38 8UH Z 619     -45.848 147.879   9.560  1.00 51.52     0.044 C 
HETATM   41  C39 8UH Z 619     -45.573 143.302   7.646  1.00 43.24     0.048 C 
HETATM   42  C40 8UH Z 619     -43.415 138.826   7.401  1.00 43.24     0.048 C 
HETATM   43  O23 8UH Z 619     -48.936 149.070  13.112  1.00 51.52    -0.395 OA
ATOM     44  H23 8UH Z 619     -48.335 149.788  13.271  1.00  0.00     0.210 HD
ENDROOT
TORSDOF 12
