REMARK VINA RESULT:    -9.228      1.455      2.008
REMARK INTER + INTRA:         -12.136
REMARK INTER:                 -11.912
REMARK INTRA:                  -0.225
REMARK UNBOUND:                -2.909
REMARK  0 active torsions:
REMARK  status: ('A' for Active; 'I' for Inactive)
REMARK       I    between atoms: C3_3  and  O3_21 
REMARK       I    between atoms: C6_6  and  C7_7 
REMARK       I    between atoms: C8_8  and  C9_9 
REMARK       I    between atoms: C10_10  and  C11_11 
REMARK       I    between atoms: C12_12  and  C13_13 
REMARK       I    between atoms: C14_14  and  C15_15 
REMARK       I    between atoms: C23_25  and  O23_43 
REMARK       I    between atoms: C26_28  and  C27_29 
REMARK       I    between atoms: C28_30  and  C29_31 
REMARK       I    between atoms: C30_32  and  C31_33 
REMARK       I    between atoms: C32_34  and  C33_35 
REMARK       I    between atoms: C34_36  and  C35_37 
ROOT
HETATM    1  C1  8UH s1620     -50.321 144.801   9.767  1.00 51.12    -0.018 C 
HETATM    2  C2  8UH s1620     -51.195 145.125  10.970  1.00 51.12     0.045 C 
HETATM    3  C3  8UH s1620     -50.829 146.300  11.864  1.00 51.12     0.123 C 
HETATM    4  C4  8UH s1620     -49.837 147.247  11.224  1.00 51.12     0.066 C 
HETATM    5  C5  8UH s1620     -48.706 146.465  10.643  1.00 51.12    -0.074 C 
HETATM    6  C6  8UH s1620     -48.965 145.472   9.800  1.00 51.12    -0.048 C 
HETATM    7  C7  8UH s1620     -47.940 145.006   8.849  1.00 51.12     0.009 C 
HETATM    8  C8  8UH s1620     -46.989 144.175   9.249  1.00 51.12     0.007 C 
HETATM    9  C9  8UH s1620     -45.979 143.675   8.320  1.00 51.12    -0.062 C 
HETATM   10  C10 8UH s1620     -45.059 142.872   8.849  1.00 51.12     0.007 C 
HETATM   11  C11 8UH s1620     -43.981 142.226   8.127  1.00 51.12     0.001 C 
HETATM   12  C12 8UH s1620     -43.440 141.247   8.828  1.00 51.12     0.007 C 
HETATM   13  C13 8UH s1620     -42.357 140.393   8.347  1.00 51.12    -0.062 C 
HETATM   14  C14 8UH s1620     -42.004 139.370   9.127  1.00 51.12     0.007 C 
HETATM   15  C15 8UH s1620     -40.976 138.424   8.735  1.00 51.12     0.001 C 
HETATM   16  C16 8UH s1620     -51.109 145.149   8.509  1.00 51.12     0.020 C 
HETATM   17  C17 8UH s1620     -50.074 143.303   9.761  1.00 51.12     0.020 C 
HETATM   18  C18 8UH s1620     -47.611 147.459  10.407  1.00 51.12     0.044 C 
HETATM   19  C19 8UH s1620     -46.019 144.050   6.873  1.00 51.12     0.048 C 
HETATM   20  C20 8UH s1620     -41.698 140.656   7.035  1.00 51.12     0.048 C 
HETATM   21  O3  8UH s1620     -52.016 147.052  12.130  1.00 51.12    -0.395 OA
ATOM     22  H3  8UH s1620     -52.638 146.457  12.532  1.00  0.00     0.210 HD
HETATM   23  C21 8UH s1620     -34.163 128.243   6.964  1.00 57.09    -0.018 C 
HETATM   24  C22 8UH s1620     -33.440 127.651   5.761  1.00 57.09     0.045 C 
HETATM   25  C23 8UH s1620     -32.154 128.325   5.320  1.00 57.09     0.123 C 
HETATM   26  C24 8UH s1620     -31.370 128.812   6.518  1.00 57.09     0.066 C 
HETATM   27  C25 8UH s1620     -32.233 129.760   7.302  1.00 57.09    -0.074 C 
HETATM   28  C26 8UH s1620     -33.488 129.427   7.623  1.00 57.09    -0.048 C 
HETATM   29  C27 8UH s1620     -34.257 130.186   8.646  1.00 57.09     0.009 C 
HETATM   30  C28 8UH s1620     -34.871 131.337   8.358  1.00 57.09     0.007 C 
HETATM   31  C29 8UH s1620     -35.646 132.095   9.330  1.00 51.12    -0.062 C 
HETATM   32  C30 8UH s1620     -36.646 132.853   8.875  1.00 51.12     0.007 C 
HETATM   33  C31 8UH s1620     -37.522 133.638   9.728  1.00 51.12     0.001 C 
HETATM   34  C32 8UH s1620     -38.238 134.567   9.113  1.00 51.12     0.007 C 
HETATM   35  C33 8UH s1620     -39.201 135.439   9.797  1.00 51.12    -0.062 C 
HETATM   36  C34 8UH s1620     -39.707 136.440   9.075  1.00 51.12     0.007 C 
HETATM   37  C35 8UH s1620     -40.705 137.393   9.530  1.00 51.12     0.001 C 
HETATM   38  C36 8UH s1620     -34.369 127.112   7.959  1.00 57.09     0.020 C 
HETATM   39  C37 8UH s1620     -35.512 128.729   6.481  1.00 57.09     0.020 C 
HETATM   40  C38 8UH s1620     -31.412 130.702   8.131  1.00 57.09     0.044 C 
HETATM   41  C39 8UH s1620     -35.325 132.012  10.789  1.00 51.12     0.048 C 
HETATM   42  C40 8UH s1620     -39.608 135.188  11.215  1.00 51.12     0.048 C 
HETATM   43  O23 8UH s1620     -31.372 127.354   4.623  1.00 57.09    -0.395 OA
ATOM     44  H23 8UH s1620     -30.567 127.775   4.346  1.00  0.00     0.210 HD
ENDROOT
TORSDOF 12
