REMARK VINA RESULT:    -8.513      1.957     16.600
REMARK INTER + INTRA:         -11.603
REMARK INTER:                 -10.538
REMARK INTRA:                  -1.064
REMARK UNBOUND:                -3.089
REMARK  0 active torsions:
REMARK  status: ('A' for Active; 'I' for Inactive)
REMARK       I    between atoms: C3_3  and  O3_21 
REMARK       I    between atoms: C6_6  and  C7_7 
REMARK       I    between atoms: C8_8  and  C9_9 
REMARK       I    between atoms: C10_10  and  C11_11 
REMARK       I    between atoms: C12_12  and  C13_13 
REMARK       I    between atoms: C14_14  and  C15_15 
REMARK       I    between atoms: C23_25  and  O23_43 
REMARK       I    between atoms: C26_28  and  C27_29 
REMARK       I    between atoms: C28_30  and  C29_31 
REMARK       I    between atoms: C30_32  and  C31_33 
REMARK       I    between atoms: C32_34  and  C33_35 
REMARK       I    between atoms: C34_36  and  C35_37 
ROOT
HETATM    1  C1  8UH 31620     -34.297 128.736   6.656  1.00 70.34    -0.018 C 
HETATM    2  C2  8UH 31620     -33.413 128.543   5.440  1.00 70.34     0.045 C 
HETATM    3  C3  8UH 31620     -31.936 128.319   5.709  1.00 70.34     0.123 C 
HETATM    4  C4  8UH 31620     -31.377 129.260   6.759  1.00 70.34     0.066 C 
HETATM    5  C5  8UH 31620     -32.332 129.749   7.808  1.00 70.34    -0.074 C 
HETATM    6  C6  8UH 31620     -33.656 129.586   7.729  1.00 70.34    -0.048 C 
HETATM    7  C7  8UH 31620     -34.555 130.207   8.731  1.00 70.34     0.009 C 
HETATM    8  C8  8UH 31620     -35.131 131.390   8.543  1.00 70.34     0.007 C 
HETATM    9  C9  8UH 31620     -36.035 131.977   9.531  1.00 70.34    -0.062 C 
HETATM   10  C10 8UH 31620     -36.518 133.178   9.229  1.00 70.34     0.007 C 
HETATM   11  C11 8UH 31620     -37.447 133.933  10.041  1.00 70.34     0.001 C 
HETATM   12  C12 8UH 31620     -38.078 134.861   9.341  1.00 70.34     0.007 C 
HETATM   13  C13 8UH 31620     -39.088 135.763   9.893  1.00 70.34    -0.062 C 
HETATM   14  C14 8UH 31620     -39.660 136.603   9.038  1.00 70.34     0.007 C 
HETATM   15  C15 8UH 31620     -40.689 137.537   9.451  1.00 70.34     0.001 C 
HETATM   16  C16 8UH 31620     -34.693 127.367   7.195  1.00 70.34     0.020 C 
HETATM   17  C17 8UH 31620     -35.545 129.464   6.170  1.00 70.34     0.020 C 
HETATM   18  C18 8UH 31620     -31.704 130.712   8.772  1.00 70.34     0.044 C 
HETATM   19  C19 8UH 31620     -36.390 131.241  10.782  1.00 70.34     0.048 C 
HETATM   20  C20 8UH 31620     -39.460 135.737  11.342  1.00 70.34     0.048 C 
HETATM   21  O3  8UH 31620     -31.671 126.962   6.071  1.00 70.34    -0.395 OA
ATOM     22  H3  8UH 31620     -32.020 126.373   5.413  1.00  0.00     0.210 HD
HETATM   23  C21 8UH 31620     -50.479 145.036   9.834  1.00 16.14    -0.018 C 
HETATM   24  C22 8UH 31620     -51.346 145.675  10.918  1.00 16.14     0.045 C 
HETATM   25  C23 8UH 31620     -50.688 146.743  11.774  1.00 16.14     0.123 C 
HETATM   26  C24 8UH 31620     -49.843 147.658  10.921  1.00 16.14     0.066 C 
HETATM   27  C25 8UH 31620     -48.790 146.825  10.253  1.00 16.14    -0.074 C 
HETATM   28  C26 8UH 31620     -49.118 145.680   9.642  1.00 16.14    -0.048 C 
HETATM   29  C27 8UH 31620     -48.142 145.038   8.732  1.00 16.14     0.009 C 
HETATM   30  C28 8UH 31620     -47.176 144.215   9.148  1.00 16.14     0.007 C 
HETATM   31  C29 8UH 31620     -46.233 143.616   8.196  1.00 70.34    -0.062 C 
HETATM   32  C30 8UH 31620     -45.461 142.654   8.687  1.00 70.34     0.007 C 
HETATM   33  C31 8UH 31620     -44.465 141.927   7.920  1.00 70.34     0.001 C 
HETATM   34  C32 8UH 31620     -43.836 141.010   8.635  1.00 70.34     0.007 C 
HETATM   35  C33 8UH 31620     -42.789 140.138   8.104  1.00 70.34    -0.062 C 
HETATM   36  C34 8UH 31620     -42.295 139.219   8.931  1.00 70.34     0.007 C 
HETATM   37  C35 8UH 31620     -41.256 138.294   8.522  1.00 70.34     0.001 C 
HETATM   38  C36 8UH 31620     -51.290 145.055   8.543  1.00 16.14     0.020 C 
HETATM   39  C37 8UH 31620     -50.224 143.588  10.222  1.00 16.14     0.020 C 
HETATM   40  C38 8UH 31620     -47.596 147.644   9.858  1.00 16.14     0.044 C 
HETATM   41  C39 8UH 31620     -46.149 144.058   6.768  1.00 70.34     0.048 C 
HETATM   42  C40 8UH 31620     -42.298 140.288   6.702  1.00 70.34     0.048 C 
HETATM   43  O23 8UH 31620     -51.698 147.523  12.417  1.00 16.14    -0.395 OA
ATOM     44  H23 8UH 31620     -51.286 148.191  12.953  1.00  0.00     0.210 HD
ENDROOT
TORSDOF 12
