REMARK VINA RESULT:   -10.342      1.247     16.638
REMARK INTER + INTRA:         -10.664
REMARK INTER:                  -7.939
REMARK INTRA:                  -2.725
REMARK UNBOUND:                -0.322
REMARK  0 active torsions:
REMARK  status: ('A' for Active; 'I' for Inactive)
REMARK       I    between atoms: C3_3  and  O3_21 
REMARK       I    between atoms: C6_6  and  C7_7 
REMARK       I    between atoms: C8_8  and  C9_9 
REMARK       I    between atoms: C10_10  and  C11_11 
REMARK       I    between atoms: C12_12  and  C13_13 
REMARK       I    between atoms: C14_14  and  C15_15 
REMARK       I    between atoms: C23_25  and  O23_43 
REMARK       I    between atoms: C26_28  and  C27_29 
REMARK       I    between atoms: C28_30  and  C29_31 
REMARK       I    between atoms: C30_32  and  C31_33 
REMARK       I    between atoms: C32_34  and  C33_35 
REMARK       I    between atoms: C34_36  and  C35_37 
ROOT
HETATM    1  C1  8UH N1620     -34.510 126.807   6.144  1.00 57.79    -0.018 C 
HETATM    2  C2  8UH N1620     -33.810 125.946   5.107  1.00 59.26     0.045 C 
HETATM    3  C3  8UH N1620     -32.941 126.738   4.157  1.00 62.25     0.123 C 
HETATM    4  C4  8UH N1620     -31.872 127.449   4.949  1.00 57.83     0.066 C 
HETATM    5  C5  8UH N1620     -32.465 128.265   6.063  1.00 54.66    -0.074 C 
HETATM    6  C6  8UH N1620     -33.661 127.981   6.624  1.00 55.29    -0.048 C 
HETATM    7  C7  8UH N1620     -34.159 128.785   7.771  1.00 55.61     0.009 C 
HETATM    8  C8  8UH N1620     -34.826 129.930   7.618  1.00 56.19     0.007 C 
HETATM    9  C9  8UH N1620     -35.322 130.720   8.742  1.00 61.49    -0.062 C 
HETATM   10  C10 8UH N1620     -36.032 131.793   8.408  1.00 57.47     0.007 C 
HETATM   11  C11 8UH N1620     -36.630 132.712   9.352  1.00 53.29     0.001 C 
HETATM   12  C12 8UH N1620     -37.385 133.629   8.778  1.00 52.45     0.007 C 
HETATM   13  C13 8UH N1620     -38.109 134.632   9.553  1.00 52.04    -0.062 C 
HETATM   14  C14 8UH N1620     -39.030 135.337   8.898  1.00 54.29     0.007 C 
HETATM   15  C15 8UH N1620     -39.855 136.339   9.539  1.00 53.12     0.001 C 
HETATM   16  C16 8UH N1620     -34.926 125.850   7.257  1.00 58.39     0.020 C 
HETATM   17  C17 8UH N1620     -35.773 127.386   5.526  1.00 64.45     0.020 C 
HETATM   18  C18 8UH N1620     -31.580 129.396   6.503  1.00 58.11     0.044 C 
HETATM   19  C19 8UH N1620     -35.019 130.346  10.163  1.00 70.55     0.048 C 
HETATM   20  C20 8UH N1620     -37.831 134.824  11.009  1.00 53.04     0.048 C 
HETATM   21  O3  8UH N1620     -32.300 125.854   3.236  1.00 65.91    -0.395 OA
ATOM     22  H3  8UH N1620     -31.754 126.351   2.639  1.00  0.00     0.210 HD
HETATM   23  C21 8UH N1620     -49.779 144.000  10.951  1.00 26.19    -0.018 C 
HETATM   24  C22 8UH N1620     -50.610 144.641  12.055  1.00 26.65     0.045 C 
HETATM   25  C23 8UH N1620     -49.866 145.433  13.113  1.00 28.07     0.123 C 
HETATM   26  C24 8UH N1620     -48.732 146.227  12.518  1.00 30.07     0.066 C 
HETATM   27  C25 8UH N1620     -47.820 145.299  11.785  1.00 28.83    -0.074 C 
HETATM   28  C26 8UH N1620     -48.315 144.415  10.914  1.00 27.49    -0.048 C 
HETATM   29  C27 8UH N1620     -47.469 143.796   9.863  1.00 29.45     0.009 C 
HETATM   30  C28 8UH N1620     -46.564 142.853  10.133  1.00 27.83     0.007 C 
HETATM   31  C29 8UH N1620     -45.758 142.213   9.093  1.00 71.47    -0.062 C 
HETATM   32  C30 8UH N1620     -45.045 141.162   9.488  1.00 69.97     0.007 C 
HETATM   33  C31 8UH N1620     -44.199 140.357   8.629  1.00 65.68     0.001 C 
HETATM   34  C32 8UH N1620     -43.466 139.474   9.281  1.00 62.75     0.007 C 
HETATM   35  C33 8UH N1620     -42.567 138.537   8.603  1.00 61.08    -0.062 C 
HETATM   36  C34 8UH N1620     -41.729 137.832   9.365  1.00 59.90     0.007 C 
HETATM   37  C35 8UH N1620     -40.827 136.848   8.798  1.00 55.64     0.001 C 
HETATM   38  C36 8UH N1620     -50.478 144.384   9.659  1.00 26.46     0.020 C 
HETATM   39  C37 8UH N1620     -49.815 142.488  11.121  1.00 26.61     0.020 C 
HETATM   40  C38 8UH N1620     -46.558 146.062  11.548  1.00 29.43     0.044 C 
HETATM   41  C39 8UH N1620     -45.746 142.708   7.681  1.00 74.91     0.048 C 
HETATM   42  C40 8UH N1620     -42.622 138.372   7.116  1.00 55.73     0.048 C 
HETATM   43  O23 8UH N1620     -50.777 146.330  13.742  1.00 27.44    -0.395 OA
ATOM     44  H23 8UH N1620     -50.311 146.826  14.405  1.00  0.00     0.210 HD
ENDROOT
TORSDOF 12
