REMARK VINA RESULT:    -9.211      0.680     16.820
REMARK INTER + INTRA:          -9.404
REMARK INTER:                  -8.968
REMARK INTRA:                  -0.435
REMARK UNBOUND:                -0.193
REMARK  0 active torsions:
REMARK  status: ('A' for Active; 'I' for Inactive)
REMARK       I    between atoms: C3_3  and  O3_21 
REMARK       I    between atoms: C6_6  and  C7_7 
REMARK       I    between atoms: C8_8  and  C9_9 
REMARK       I    between atoms: C10_10  and  C11_11 
REMARK       I    between atoms: C12_12  and  C13_13 
REMARK       I    between atoms: C14_14  and  C15_15 
REMARK       I    between atoms: C23_25  and  O23_43 
REMARK       I    between atoms: C26_28  and  C27_29 
REMARK       I    between atoms: C28_30  and  C29_31 
REMARK       I    between atoms: C30_32  and  C31_33 
REMARK       I    between atoms: C32_34  and  C33_35 
REMARK       I    between atoms: C34_36  and  C35_37 
ROOT
HETATM    1  C1  8UH g1620     -50.803 145.030  10.540  1.00 66.61    -0.018 C 
HETATM    2  C2  8UH g1620     -51.676 145.269  11.767  1.00 66.61     0.045 C 
HETATM    3  C3  8UH g1620     -51.156 146.204  12.848  1.00 66.61     0.123 C 
HETATM    4  C4  8UH g1620     -50.301 147.308  12.265  1.00 66.61     0.066 C 
HETATM    5  C5  8UH g1620     -49.195 146.697  11.451  1.00 66.61    -0.074 C 
HETATM    6  C6  8UH g1620     -49.443 145.700  10.596  1.00 66.61    -0.048 C 
HETATM    7  C7  8UH g1620     -48.388 145.230   9.661  1.00 66.61     0.009 C 
HETATM    8  C8  8UH g1620     -47.503 144.298  10.018  1.00 66.61     0.007 C 
HETATM    9  C9  8UH g1620     -46.459 143.808   9.108  1.00 66.61    -0.062 C 
HETATM   10  C10 8UH g1620     -45.576 142.936   9.601  1.00 66.61     0.007 C 
HETATM   11  C11 8UH g1620     -44.502 142.359   8.809  1.00 66.61     0.001 C 
HETATM   12  C12 8UH g1620     -43.852 141.356   9.384  1.00 66.61     0.007 C 
HETATM   13  C13 8UH g1620     -42.749 140.634   8.737  1.00 66.61    -0.062 C 
HETATM   14  C14 8UH g1620     -42.262 139.562   9.368  1.00 66.61     0.007 C 
HETATM   15  C15 8UH g1620     -41.188 138.755   8.811  1.00 66.61     0.001 C 
HETATM   16  C16 8UH g1620     -51.591 145.497   9.321  1.00 66.61     0.020 C 
HETATM   17  C17 8UH g1620     -50.582 143.531  10.424  1.00 66.61     0.020 C 
HETATM   18  C18 8UH g1620     -47.931 147.504  11.410  1.00 66.61     0.044 C 
HETATM   19  C19 8UH g1620     -46.404 144.266   7.681  1.00 66.61     0.048 C 
HETATM   20  C20 8UH g1620     -42.200 141.081   7.417  1.00 66.61     0.048 C 
HETATM   21  O3  8UH g1620     -52.276 146.798  13.510  1.00 66.61    -0.395 OA
ATOM     22  H3  8UH g1620     -52.812 146.105  13.877  1.00  0.00     0.210 HD
HETATM   23  C21 8UH g1620     -34.151 128.508   6.988  1.00 21.58    -0.018 C 
HETATM   24  C22 8UH g1620     -33.261 127.876   5.898  1.00 21.20     0.045 C 
HETATM   25  C23 8UH g1620     -31.813 128.344   5.716  1.00 20.61     0.123 C 
HETATM   26  C24 8UH g1620     -31.285 129.290   6.806  1.00 19.82     0.066 C 
HETATM   27  C25 8UH g1620     -32.209 129.973   7.767  1.00 19.81    -0.074 C 
HETATM   28  C26 8UH g1620     -33.543 129.645   7.899  1.00 19.95    -0.048 C 
HETATM   29  C27 8UH g1620     -34.478 130.289   8.866  1.00 17.10     0.009 C 
HETATM   30  C28 8UH g1620     -35.081 131.483   8.665  1.00 17.58     0.007 C 
HETATM   31  C29 8UH g1620     -35.983 132.182   9.533  1.00 66.61    -0.062 C 
HETATM   32  C30 8UH g1620     -36.755 133.137   9.006  1.00 66.61     0.007 C 
HETATM   33  C31 8UH g1620     -37.740 133.907   9.754  1.00 66.61     0.001 C 
HETATM   34  C32 8UH g1620     -38.324 134.891   9.086  1.00 66.61     0.007 C 
HETATM   35  C33 8UH g1620     -39.356 135.752   9.674  1.00 66.61    -0.062 C 
HETATM   36  C34 8UH g1620     -39.839 136.751   8.928  1.00 66.61     0.007 C 
HETATM   37  C35 8UH g1620     -40.883 137.627   9.441  1.00 66.61     0.001 C 
HETATM   38  C36 8UH g1620     -34.541 127.278   7.839  1.00 19.38     0.020 C 
HETATM   39  C37 8UH g1620     -35.426 129.019   6.276  1.00 19.65     0.020 C 
HETATM   40  C38 8UH g1620     -31.424 130.970   8.539  1.00 20.06     0.044 C 
HETATM   41  C39 8UH g1620     -36.051 131.816  10.985  1.00 66.61     0.048 C 
HETATM   42  C40 8UH g1620     -39.854 135.493  11.065  1.00 66.61     0.048 C 
HETATM   43  O23 8UH g1620     -30.950 127.227   5.580  1.00 18.88    -0.395 OA
ATOM     44  H23 8UH g1620     -30.052 127.517   5.468  1.00  0.00     0.210 HD
ENDROOT
TORSDOF 12
