REMARK VINA RESULT:    -8.581      1.260     16.371
REMARK INTER + INTRA:         -11.384
REMARK INTER:                 -10.833
REMARK INTRA:                  -0.551
REMARK UNBOUND:                -2.803
REMARK  0 active torsions:
REMARK  status: ('A' for Active; 'I' for Inactive)
REMARK       I    between atoms: C3_3  and  O3_21 
REMARK       I    between atoms: C6_6  and  C7_7 
REMARK       I    between atoms: C8_8  and  C9_9 
REMARK       I    between atoms: C10_10  and  C11_11 
REMARK       I    between atoms: C12_12  and  C13_13 
REMARK       I    between atoms: C14_14  and  C15_15 
REMARK       I    between atoms: C23_25  and  O23_43 
REMARK       I    between atoms: C26_28  and  C27_29 
REMARK       I    between atoms: C28_30  and  C29_31 
REMARK       I    between atoms: C30_32  and  C31_33 
REMARK       I    between atoms: C32_34  and  C33_35 
REMARK       I    between atoms: C34_36  and  C35_37 
ROOT
HETATM    1  C1  8UH X1620     -50.245 144.755  10.418  1.00 33.88    -0.022 C 
HETATM    2  C2  8UH X1620     -50.208 144.660  11.937  1.00 33.88     0.045 C 
HETATM    3  C3  8UH X1620     -49.032 145.360  12.582  1.00 33.88     0.119 C 
HETATM    4  C4  8UH X1620     -49.060 146.799  12.117  1.00 33.88     0.040 C 
HETATM    5  C5  8UH X1620     -48.914 146.844  10.617  1.00 33.88     0.013 C 
HETATM    6  C6  8UH X1620     -49.225 145.763   9.893  1.00 33.88    -0.068 C 
HETATM    7  C7  8UH X1620     -48.381 145.355   8.762  1.00 33.88     0.004 C 
HETATM    8  C8  8UH X1620     -47.498 144.456   9.216  1.00 33.88     0.007 C 
HETATM    9  C9  8UH X1620     -46.431 143.857   8.373  1.00 33.88    -0.062 C 
HETATM   10  C10 8UH X1620     -45.613 142.966   8.983  1.00 33.88     0.007 C 
HETATM   11  C11 8UH X1620     -44.536 142.254   8.305  1.00 33.88     0.001 C 
HETATM   12  C12 8UH X1620     -43.812 141.355   8.954  1.00 33.88     0.007 C 
HETATM   13  C13 8UH X1620     -42.772 140.576   8.259  1.00 33.88    -0.062 C 
HETATM   14  C14 8UH X1620     -42.211 139.585   8.971  1.00 33.88     0.007 C 
HETATM   15  C15 8UH X1620     -41.212 138.645   8.464  1.00 33.88     0.001 C 
HETATM   16  C16 8UH X1620     -51.707 145.026  10.073  1.00 33.88     0.019 C 
HETATM   17  C17 8UH X1620     -49.858 143.377   9.886  1.00 33.88     0.019 C 
HETATM   18  C18 8UH X1620     -47.579 147.539  10.530  1.00 33.88     0.015 C 
HETATM   19  C19 8UH X1620     -46.302 144.230   6.911  1.00 33.88     0.048 C 
HETATM   20  C20 8UH X1620     -42.468 140.858   6.811  1.00 33.88     0.048 C 
HETATM   21  O3  8UH X1620     -49.229 145.291  13.998  1.00 33.88    -0.396 OA
ATOM     22  H3  8UH X1620     -48.490 145.731  14.403  1.00  0.00     0.210 HD
HETATM   23  C21 8UH X1620     -34.121 128.258   7.039  1.00 23.68    -0.018 C 
HETATM   24  C22 8UH X1620     -33.307 127.739   5.857  1.00 23.68     0.045 C 
HETATM   25  C23 8UH X1620     -31.959 128.385   5.561  1.00 23.68     0.123 C 
HETATM   26  C24 8UH X1620     -31.325 128.969   6.809  1.00 23.68     0.066 C 
HETATM   27  C25 8UH X1620     -32.312 129.903   7.452  1.00 23.68    -0.074 C 
HETATM   28  C26 8UH X1620     -33.557 129.497   7.714  1.00 23.68    -0.048 C 
HETATM   29  C27 8UH X1620     -34.403 130.225   8.698  1.00 23.68     0.009 C 
HETATM   30  C28 8UH X1620     -35.122 131.307   8.385  1.00 23.68     0.007 C 
HETATM   31  C29 8UH X1620     -35.973 132.028   9.365  1.00 33.88    -0.062 C 
HETATM   32  C30 8UH X1620     -36.708 133.036   8.846  1.00 33.88     0.007 C 
HETATM   33  C31 8UH X1620     -37.652 133.874   9.589  1.00 33.88     0.001 C 
HETATM   34  C32 8UH X1620     -38.304 134.834   8.923  1.00 33.88     0.007 C 
HETATM   35  C33 8UH X1620     -39.283 135.733   9.576  1.00 33.88    -0.062 C 
HETATM   36  C34 8UH X1620     -39.810 136.715   8.817  1.00 33.88     0.007 C 
HETATM   37  C35 8UH X1620     -40.792 137.690   9.291  1.00 33.88     0.001 C 
HETATM   38  C36 8UH X1620     -34.235 127.102   8.017  1.00 23.68     0.020 C 
HETATM   39  C37 8UH X1620     -35.513 128.612   6.537  1.00 23.68     0.020 C 
HETATM   40  C38 8UH X1620     -31.584 130.833   8.372  1.00 23.68     0.044 C 
HETATM   41  C39 8UH X1620     -36.032 131.597  10.811  1.00 33.88     0.048 C 
HETATM   42  C40 8UH X1620     -39.665 135.482  11.011  1.00 33.88     0.048 C 
HETATM   43  O23 8UH X1620     -31.091 127.387   5.022  1.00 23.68    -0.395 OA
ATOM     44  H23 8UH X1620     -30.250 127.789   4.838  1.00  0.00     0.210 HD
ENDROOT
TORSDOF 12
