REMARK VINA RESULT:    -8.540      2.157      3.202
REMARK INTER + INTRA:         -11.573
REMARK INTER:                  -8.569
REMARK INTRA:                  -3.004
REMARK UNBOUND:                -3.033
REMARK  0 active torsions:
REMARK  status: ('A' for Active; 'I' for Inactive)
REMARK       I    between atoms: C3_3  and  O3_21 
REMARK       I    between atoms: C6_6  and  C7_7 
REMARK       I    between atoms: C8_8  and  C9_9 
REMARK       I    between atoms: C10_10  and  C11_11 
REMARK       I    between atoms: C12_12  and  C13_13 
REMARK       I    between atoms: C14_14  and  C15_15 
REMARK       I    between atoms: C23_25  and  O23_43 
REMARK       I    between atoms: C26_28  and  C27_29 
REMARK       I    between atoms: C28_30  and  C29_31 
REMARK       I    between atoms: C30_32  and  C31_33 
REMARK       I    between atoms: C32_34  and  C33_35 
REMARK       I    between atoms: C34_36  and  C35_37 
ROOT
HETATM    1  C1  8UH 1 316     -48.953 147.712   8.746  1.00 73.24    -0.018 C 
HETATM    2  C2  8UH 1 316     -50.481 147.768   8.670  1.00 72.84     0.045 C 
HETATM    3  C3  8UH 1 316     -51.245 147.379   9.930  1.00 72.53     0.123 C 
HETATM    4  C4  8UH 1 316     -50.569 147.968  11.153  1.00 72.61     0.066 C 
HETATM    5  C5  8UH 1 316     -49.149 147.473  11.222  1.00 72.68    -0.074 C 
HETATM    6  C6  8UH 1 316     -48.388 147.430  10.127  1.00 72.79    -0.048 C 
HETATM    7  C7  8UH 1 316     -46.950 147.091  10.249  1.00 71.90     0.009 C 
HETATM    8  C8  8UH 1 316     -46.557 145.815  10.301  1.00 71.51     0.007 C 
HETATM    9  C9  8UH 1 316     -45.138 145.415  10.417  1.00 70.48    -0.062 C 
HETATM   10  C10 8UH 1 316     -44.849 144.105  10.400  1.00 69.46     0.007 C 
HETATM   11  C11 8UH 1 316     -43.501 143.550  10.499  1.00 69.85     0.001 C 
HETATM   12  C12 8UH 1 316     -43.402 142.223  10.433  1.00 72.15     0.007 C 
HETATM   13  C13 8UH 1 316     -42.129 141.473  10.496  1.00 73.74    -0.062 C 
HETATM   14  C14 8UH 1 316     -42.154 140.170  10.164  1.00 74.04     0.007 C 
HETATM   15  C15 8UH 1 316     -40.965 139.320  10.159  1.00 74.62     0.001 C 
HETATM   16  C16 8UH 1 316     -48.408 149.051   8.265  1.00 72.68     0.020 C 
HETATM   17  C17 8UH 1 316     -48.470 146.607   7.814  1.00 73.05     0.020 C 
HETATM   18  C18 8UH 1 316     -48.531 147.368  12.587  1.00 72.13     0.044 C 
HETATM   19  C19 8UH 1 316     -44.058 146.447  10.559  1.00 70.45     0.048 C 
HETATM   20  C20 8UH 1 316     -40.853 142.147  10.918  1.00 72.89     0.048 C 
HETATM   21  O3  8UH 1 316     -52.587 147.877   9.846  1.00 71.04    -0.395 OA
ATOM     22  H3  8UH 1 316     -53.010 147.507   9.080  1.00  0.00     0.210 HD
HETATM   23  C21 8UH 1 316     -33.544 129.391   6.870  1.00 32.96    -0.018 C 
HETATM   24  C22 8UH 1 316     -32.327 130.093   6.270  1.00 32.96     0.045 C 
HETATM   25  C23 8UH 1 316     -31.481 130.901   7.245  1.00 32.96     0.123 C 
HETATM   26  C24 8UH 1 316     -31.635 130.362   8.651  1.00 32.96     0.066 C 
HETATM   27  C25 8UH 1 316     -33.086 130.476   9.026  1.00 32.96    -0.074 C 
HETATM   28  C26 8UH 1 316     -33.993 129.965   8.188  1.00 32.96    -0.048 C 
HETATM   29  C27 8UH 1 316     -35.435 130.173   8.382  1.00 32.96     0.009 C 
HETATM   30  C28 8UH 1 316     -35.744 131.449   8.619  1.00 32.96     0.007 C 
HETATM   31  C29 8UH 1 316     -37.147 131.914   8.634  1.00 94.72    -0.062 C 
HETATM   32  C30 8UH 1 316     -37.366 133.215   8.864  1.00 91.32     0.007 C 
HETATM   33  C31 8UH 1 316     -38.693 133.828   8.889  1.00 87.88     0.001 C 
HETATM   34  C32 8UH 1 316     -38.744 135.109   9.243  1.00 84.19     0.007 C 
HETATM   35  C33 8UH 1 316     -39.985 135.902   9.298  1.00 80.79    -0.062 C 
HETATM   36  C34 8UH 1 316     -39.910 137.178   9.720  1.00 78.84     0.007 C 
HETATM   37  C35 8UH 1 316     -41.084 138.047   9.773  1.00 76.79     0.001 C 
HETATM   38  C36 8UH 1 316     -33.183 127.940   7.164  1.00 32.96     0.020 C 
HETATM   39  C37 8UH 1 316     -34.708 129.436   5.891  1.00 32.96     0.020 C 
HETATM   40  C38 8UH 1 316     -33.384 130.886  10.446  1.00 32.96     0.044 C 
HETATM   41  C39 8UH 1 316     -38.282 130.967   8.389  1.00 95.37     0.048 C 
HETATM   42  C40 8UH 1 316     -41.289 135.301   8.868  1.00 90.13     0.048 C 
HETATM   43  O23 8UH 1 316     -30.101 130.807   6.878  1.00 32.96    -0.395 OA
ATOM     44  H23 8UH 1 316     -30.004 131.145   5.996  1.00  0.00     0.210 HD
ENDROOT
TORSDOF 12
