REMARK VINA RESULT:   -11.469      0.000      0.000
REMARK INTER + INTRA:         -14.175
REMARK INTER:                 -11.469
REMARK INTRA:                  -2.706
REMARK UNBOUND:                -2.706
REMARK  0 active torsions:
REMARK  status: ('A' for Active; 'I' for Inactive)
REMARK       I    between atoms: C3_3  and  O3_21 
REMARK       I    between atoms: C6_6  and  C7_7 
REMARK       I    between atoms: C8_8  and  C9_9 
REMARK       I    between atoms: C10_10  and  C11_11 
REMARK       I    between atoms: C12_12  and  C13_13 
REMARK       I    between atoms: C14_14  and  C15_15 
REMARK       I    between atoms: C23_25  and  O23_43 
REMARK       I    between atoms: C26_28  and  C27_29 
REMARK       I    between atoms: C28_30  and  C29_31 
REMARK       I    between atoms: C30_32  and  C31_33 
REMARK       I    between atoms: C32_34  and  C33_35 
REMARK       I    between atoms: C34_36  and  C35_37 
ROOT
HETATM    1  C1  8UH V1621     -49.227 144.797  10.773  1.00 16.22    -0.018 C 
HETATM    2  C2  8UH V1621     -49.664 144.817  12.221  1.00 16.22     0.045 C 
HETATM    3  C3  8UH V1621     -48.668 145.420  13.167  1.00 16.22     0.123 C 
HETATM    4  C4  8UH V1621     -48.157 146.677  12.517  1.00 16.22     0.066 C 
HETATM    5  C5  8UH V1621     -47.334 146.214  11.359  1.00 16.22    -0.074 C 
HETATM    6  C6  8UH V1621     -47.869 145.365  10.486  1.00 16.22    -0.048 C 
HETATM    7  C7  8UH V1621     -47.123 144.753   9.378  1.00 16.22     0.009 C 
HETATM    8  C8  8UH V1621     -45.907 144.313   9.678  1.00 16.22     0.007 C 
HETATM    9  C9  8UH V1621     -45.187 143.461   8.715  1.00 16.22    -0.062 C 
HETATM   10  C10 8UH V1621     -44.293 142.597   9.213  1.00 16.22     0.007 C 
HETATM   11  C11 8UH V1621     -43.611 141.586   8.413  1.00 16.22     0.001 C 
HETATM   12  C12 8UH V1621     -42.882 140.656   9.020  1.00 16.22     0.007 C 
HETATM   13  C13 8UH V1621     -42.228 139.574   8.263  1.00 16.22    -0.062 C 
HETATM   14  C14 8UH V1621     -41.607 138.607   8.957  1.00 16.22     0.007 C 
HETATM   15  C15 8UH V1621     -40.931 137.466   8.345  1.00 16.22     0.001 C 
HETATM   16  C16 8UH V1621     -50.172 145.680   9.977  1.00 16.22     0.020 C 
HETATM   17  C17 8UH V1621     -49.301 143.362  10.334  1.00 16.22     0.020 C 
HETATM   18  C18 8UH V1621     -46.146 147.063  11.050  1.00 16.22     0.044 C 
HETATM   19  C19 8UH V1621     -45.541 143.511   7.257  1.00 16.22     0.048 C 
HETATM   20  C20 8UH V1621     -42.310 139.596   6.768  1.00 16.22     0.048 C 
HETATM   21  O3  8UH V1621     -49.373 145.693  14.373  1.00 16.22    -0.395 OA
ATOM     22  H3  8UH V1621     -48.741 146.076  14.972  1.00  0.00     0.210 HD
HETATM   23  C21 8UH V1621     -34.266 126.819   6.523  1.00 94.67    -0.018 C 
HETATM   24  C22 8UH V1621     -33.882 126.139   5.215  1.00 94.67     0.045 C 
HETATM   25  C23 8UH V1621     -33.062 126.960   4.242  1.00 94.67     0.123 C 
HETATM   26  C24 8UH V1621     -31.977 127.678   4.999  1.00 94.67     0.066 C 
HETATM   27  C25 8UH V1621     -32.590 128.584   6.021  1.00 94.67    -0.074 C 
HETATM   28  C26 8UH V1621     -33.643 128.185   6.736  1.00 94.67    -0.048 C 
HETATM   29  C27 8UH V1621     -34.234 129.064   7.774  1.00 94.67     0.009 C 
HETATM   30  C28 8UH V1621     -35.185 129.945   7.473  1.00 94.67     0.007 C 
HETATM   31  C29 8UH V1621     -35.808 130.816   8.468  1.00 16.22    -0.062 C 
HETATM   32  C30 8UH V1621     -36.787 131.631   8.046  1.00 16.22     0.007 C 
HETATM   33  C31 8UH V1621     -37.488 132.581   8.896  1.00 16.22     0.001 C 
HETATM   34  C32 8UH V1621     -38.315 133.455   8.340  1.00 16.22     0.007 C 
HETATM   35  C33 8UH V1621     -38.987 134.488   9.143  1.00 16.22    -0.062 C 
HETATM   36  C34 8UH V1621     -39.669 135.437   8.484  1.00 16.22     0.007 C 
HETATM   37  C35 8UH V1621     -40.350 136.562   9.114  1.00 16.22     0.001 C 
HETATM   38  C36 8UH V1621     -33.866 125.850   7.632  1.00 94.67     0.020 C 
HETATM   39  C37 8UH V1621     -35.775 127.011   6.516  1.00 94.67     0.020 C 
HETATM   40  C38 8UH V1621     -31.920 129.912   6.220  1.00 94.67     0.044 C 
HETATM   41  C39 8UH V1621     -35.349 130.706   9.886  1.00 16.22     0.048 C 
HETATM   42  C40 8UH V1621     -38.836 134.448  10.632  1.00 16.22     0.048 C 
HETATM   43  O23 8UH V1621     -32.442 126.076   3.309  1.00 94.67    -0.395 OA
ATOM     44  H23 8UH V1621     -31.928 126.591   2.699  1.00  0.00     0.210 HD
ENDROOT
TORSDOF 12
