REMARK VINA RESULT:   -12.695      0.000      0.000
REMARK INTER + INTRA:         -12.968
REMARK INTER:                 -12.695
REMARK INTRA:                  -0.274
REMARK UNBOUND:                -0.274
REMARK  0 active torsions:
REMARK  status: ('A' for Active; 'I' for Inactive)
REMARK       I    between atoms: C3_3  and  O3_21 
REMARK       I    between atoms: C6_6  and  C7_7 
REMARK       I    between atoms: C8_8  and  C9_9 
REMARK       I    between atoms: C10_10  and  C11_11 
REMARK       I    between atoms: C12_12  and  C13_13 
REMARK       I    between atoms: C14_14  and  C15_15 
REMARK       I    between atoms: C23_25  and  O23_43 
REMARK       I    between atoms: C26_28  and  C27_29 
REMARK       I    between atoms: C28_30  and  C29_31 
REMARK       I    between atoms: C30_32  and  C31_33 
REMARK       I    between atoms: C32_34  and  C33_35 
REMARK       I    between atoms: C34_36  and  C35_37 
ROOT
HETATM    1  C1  8UH 6 621     -50.133 144.275  12.961  1.00 27.76    -0.018 C 
HETATM    2  C2  8UH 6 621     -50.617 144.574  14.377  1.00 27.76     0.045 C 
HETATM    3  C3  8UH 6 621     -49.982 145.718  15.160  1.00 27.76     0.123 C 
HETATM    4  C4  8UH 6 621     -49.412 146.788  14.256  1.00 27.76     0.066 C 
HETATM    5  C5  8UH 6 621     -48.512 146.142  13.239  1.00 27.76    -0.074 C 
HETATM    6  C6  8UH 6 621     -48.897 145.056  12.565  1.00 27.76    -0.048 C 
HETATM    7  C7  8UH 6 621     -48.108 144.620  11.386  1.00 27.76     0.009 C 
HETATM    8  C8  8UH 6 621     -47.124 143.717  11.464  1.00 27.76     0.007 C 
HETATM    9  C9  8UH 6 621     -46.354 143.315  10.275  1.00 27.76    -0.062 C 
HETATM   10  C10 8UH 6 621     -45.403 142.371  10.415  1.00 27.76     0.007 C 
HETATM   11  C11 8UH 6 621     -44.523 141.856   9.365  1.00 27.76     0.001 C 
HETATM   12  C12 8UH 6 621     -43.546 141.050   9.770  1.00 27.76     0.007 C 
HETATM   13  C13 8UH 6 621     -42.532 140.375   8.939  1.00 27.76    -0.062 C 
HETATM   14  C14 8UH 6 621     -41.866 139.364   9.515  1.00 27.76     0.007 C 
HETATM   15  C15 8UH 6 621     -40.854 138.550   8.853  1.00 27.76     0.001 C 
HETATM   16  C16 8UH 6 621     -51.302 144.545  12.018  1.00 27.76     0.020 C 
HETATM   17  C17 8UH 6 621     -49.778 142.800  12.876  1.00 27.76     0.020 C 
HETATM   18  C18 8UH 6 621     -47.450 147.059  12.706  1.00 27.76     0.044 C 
HETATM   19  C19 8UH 6 621     -46.650 143.970   8.964  1.00 27.76     0.048 C 
HETATM   20  C20 8UH 6 621     -42.254 140.781   7.527  1.00 27.76     0.048 C 
HETATM   21  O3  8UH 6 621     -50.966 146.317  16.008  1.00 27.76    -0.395 OA
ATOM     22  H3  8UH 6 621     -50.570 147.030  16.495  1.00  0.00     0.210 HD
HETATM   23  C21 8UH 6 621     -34.155 128.069   7.025  1.00 56.99    -0.018 C 
HETATM   24  C22 8UH 6 621     -33.583 127.684   5.662  1.00 56.99     0.045 C 
HETATM   25  C23 8UH 6 621     -32.326 128.404   5.190  1.00 56.99     0.123 C 
HETATM   26  C24 8UH 6 621     -31.446 128.819   6.351  1.00 56.99     0.066 C 
HETATM   27  C25 8UH 6 621     -32.261 129.642   7.308  1.00 56.99    -0.074 C 
HETATM   28  C26 8UH 6 621     -33.490 129.272   7.665  1.00 56.99    -0.048 C 
HETATM   29  C27 8UH 6 621     -34.214 130.037   8.716  1.00 56.99     0.009 C 
HETATM   30  C28 8UH 6 621     -35.052 131.028   8.406  1.00 56.99     0.007 C 
HETATM   31  C29 8UH 6 621     -35.794 131.815   9.398  1.00 27.76    -0.062 C 
HETATM   32  C30 8UH 6 621     -36.725 132.640   8.911  1.00 27.76     0.007 C 
HETATM   33  C31 8UH 6 621     -37.596 133.497   9.702  1.00 27.76     0.001 C 
HETATM   34  C32 8UH 6 621     -38.220 134.442   9.011  1.00 27.76     0.007 C 
HETATM   35  C33 8UH 6 621     -39.168 135.395   9.598  1.00 27.76    -0.062 C 
HETATM   36  C34 8UH 6 621     -39.603 136.437   8.869  1.00 27.76     0.007 C 
HETATM   37  C35 8UH 6 621     -40.571 137.380   9.424  1.00 27.76     0.001 C 
HETATM   38  C36 8UH 6 621     -34.093 126.840   7.929  1.00 56.99     0.020 C 
HETATM   39  C37 8UH 6 621     -35.612 128.429   6.818  1.00 56.99     0.020 C 
HETATM   40  C38 8UH 6 621     -31.529 130.735   8.019  1.00 56.99     0.044 C 
HETATM   41  C39 8UH 6 621     -35.523 131.686  10.867  1.00 27.76     0.048 C 
HETATM   42  C40 8UH 6 621     -39.657 135.163  10.989  1.00 27.76     0.048 C 
HETATM   43  O23 8UH 6 621     -31.575 127.518   4.355  1.00 56.99    -0.395 OA
ATOM     44  H23 8UH 6 621     -30.791 127.967   4.060  1.00  0.00     0.210 HD
ENDROOT
TORSDOF 12
