REMARK VINA RESULT:   -10.208      0.000      0.000
REMARK INTER + INTRA:         -12.662
REMARK INTER:                 -10.208
REMARK INTRA:                  -2.453
REMARK UNBOUND:                -2.453
REMARK  0 active torsions:
REMARK  status: ('A' for Active; 'I' for Inactive)
REMARK       I    between atoms: C3_3  and  O3_21 
REMARK       I    between atoms: C6_6  and  C7_7 
REMARK       I    between atoms: C8_8  and  C9_9 
REMARK       I    between atoms: C10_10  and  C11_11 
REMARK       I    between atoms: C12_12  and  C13_13 
REMARK       I    between atoms: C14_14  and  C15_15 
REMARK       I    between atoms: C23_25  and  O23_43 
REMARK       I    between atoms: C26_28  and  C27_29 
REMARK       I    between atoms: C28_30  and  C29_31 
REMARK       I    between atoms: C30_32  and  C31_33 
REMARK       I    between atoms: C32_34  and  C33_35 
REMARK       I    between atoms: C34_36  and  C35_37 
ROOT
HETATM    1  C1  8UH Z 618     -47.983 145.547  12.678  1.00 27.67    -0.018 C 
HETATM    2  C2  8UH Z 618     -48.834 145.858  13.907  1.00 27.67     0.045 C 
HETATM    3  C3  8UH Z 618     -48.182 146.673  15.014  1.00 27.67     0.123 C 
HETATM    4  C4  8UH Z 618     -47.272 147.735  14.436  1.00 27.67     0.066 C 
HETATM    5  C5  8UH Z 618     -46.223 147.022  13.636  1.00 27.67    -0.074 C 
HETATM    6  C6  8UH Z 618     -46.584 146.140  12.701  1.00 27.67    -0.048 C 
HETATM    7  C7  8UH Z 618     -45.638 145.730  11.635  1.00 27.67     0.009 C 
HETATM    8  C8  8UH Z 618     -44.692 144.812  11.841  1.00 27.67     0.007 C 
HETATM    9  C9  8UH Z 618     -43.773 144.399  10.772  1.00 27.67    -0.062 C 
HETATM   10  C10 8UH Z 618     -43.175 143.214  10.919  1.00 27.67     0.007 C 
HETATM   11  C11 8UH Z 618     -42.256 142.606   9.966  1.00 27.67     0.001 C 
HETATM   12  C12 8UH Z 618     -41.938 141.359  10.289  1.00 27.67     0.007 C 
HETATM   13  C13 8UH Z 618     -41.073 140.448   9.530  1.00 27.67    -0.062 C 
HETATM   14  C14 8UH Z 618     -40.852 139.239  10.065  1.00 27.67     0.007 C 
HETATM   15  C15 8UH Z 618     -40.064 138.214   9.397  1.00 27.67     0.001 C 
HETATM   16  C16 8UH Z 618     -48.759 146.024  11.455  1.00 27.67     0.020 C 
HETATM   17  C17 8UH Z 618     -47.822 144.036  12.588  1.00 27.67     0.020 C 
HETATM   18  C18 8UH Z 618     -45.036 147.923  13.479  1.00 27.67     0.044 C 
HETATM   19  C19 8UH Z 618     -43.524 145.273   9.582  1.00 27.67     0.048 C 
HETATM   20  C20 8UH Z 618     -40.492 140.840   8.207  1.00 27.67     0.048 C 
HETATM   21  O3  8UH Z 618     -49.204 147.301  15.789  1.00 27.67    -0.395 OA
ATOM     22  H3  8UH Z 618     -49.775 146.634  16.151  1.00  0.00     0.210 HD
HETATM   23  C21 8UH Z 618     -34.592 127.270   6.258  1.00 17.54    -0.018 C 
HETATM   24  C22 8UH Z 618     -34.334 126.994   4.787  1.00 17.54     0.045 C 
HETATM   25  C23 8UH Z 618     -32.904 127.130   4.272  1.00 17.54     0.123 C 
HETATM   26  C24 8UH Z 618     -32.053 128.156   5.007  1.00 17.54     0.066 C 
HETATM   27  C25 8UH Z 618     -32.820 128.986   6.003  1.00 17.54    -0.074 C 
HETATM   28  C26 8UH Z 618     -33.922 128.565   6.641  1.00 17.54    -0.048 C 
HETATM   29  C27 8UH Z 618     -34.479 129.355   7.764  1.00 17.54     0.009 C 
HETATM   30  C28 8UH Z 618     -35.467 130.234   7.612  1.00 17.54     0.007 C 
HETATM   31  C29 8UH Z 618     -35.989 131.005   8.762  1.00 27.67    -0.062 C 
HETATM   32  C30 8UH Z 618     -36.998 131.844   8.511  1.00 27.67     0.007 C 
HETATM   33  C31 8UH Z 618     -37.644 132.683   9.510  1.00 27.67     0.001 C 
HETATM   34  C32 8UH Z 618     -38.012 133.888   9.089  1.00 27.67     0.007 C 
HETATM   35  C33 8UH Z 618     -38.692 134.887   9.926  1.00 27.67    -0.062 C 
HETATM   36  C34 8UH Z 618     -39.126 136.000   9.323  1.00 27.67     0.007 C 
HETATM   37  C35 8UH Z 618     -39.859 137.053  10.014  1.00 27.67     0.001 C 
HETATM   38  C36 8UH Z 618     -34.143 126.115   7.151  1.00 17.54     0.020 C 
HETATM   39  C37 8UH Z 618     -36.093 127.403   6.425  1.00 17.54     0.020 C 
HETATM   40  C38 8UH Z 618     -32.055 130.163   6.498  1.00 17.54     0.044 C 
HETATM   41  C39 8UH Z 618     -35.412 130.851  10.136  1.00 27.67     0.048 C 
HETATM   42  C40 8UH Z 618     -38.886 134.674  11.393  1.00 27.67     0.048 C 
HETATM   43  O23 8UH Z 618     -32.270 125.850   4.362  1.00 17.54    -0.395 OA
ATOM     44  H23 8UH Z 618     -32.801 125.210   3.903  1.00  0.00     0.210 HD
ENDROOT
TORSDOF 12
