REMARK VINA RESULT:    -9.459      0.000      0.000
REMARK INTER + INTRA:         -12.614
REMARK INTER:                  -9.459
REMARK INTRA:                  -3.155
REMARK UNBOUND:                -3.155
REMARK  0 active torsions:
REMARK  status: ('A' for Active; 'I' for Inactive)
REMARK       I    between atoms: C3_3  and  O3_21 
REMARK       I    between atoms: C6_6  and  C7_7 
REMARK       I    between atoms: C8_8  and  C9_9 
REMARK       I    between atoms: C10_10  and  C11_11 
REMARK       I    between atoms: C12_12  and  C13_13 
REMARK       I    between atoms: C14_14  and  C15_15 
REMARK       I    between atoms: C23_25  and  O23_43 
REMARK       I    between atoms: C26_28  and  C27_29 
REMARK       I    between atoms: C28_30  and  C29_31 
REMARK       I    between atoms: C30_32  and  C31_33 
REMARK       I    between atoms: C32_34  and  C33_35 
REMARK       I    between atoms: C34_36  and  C35_37 
ROOT
HETATM    1  C1  8UH 3 622     -34.667 127.593   5.972  1.00 17.54    -0.018 C 
HETATM    2  C2  8UH 3 622     -34.229 127.472   4.522  1.00 17.54     0.045 C 
HETATM    3  C3  8UH 3 622     -32.745 127.258   4.237  1.00 17.54     0.123 C 
HETATM    4  C4  8UH 3 622     -31.801 127.871   5.261  1.00 17.54     0.066 C 
HETATM    5  C5  8UH 3 622     -32.488 128.734   6.287  1.00 17.54    -0.074 C 
HETATM    6  C6  8UH 3 622     -33.759 128.566   6.681  1.00 17.54    -0.048 C 
HETATM    7  C7  8UH 3 622     -34.281 129.311   7.850  1.00 17.54     0.009 C 
HETATM    8  C8  8UH 3 622     -34.957 130.453   7.740  1.00 17.54     0.007 C 
HETATM    9  C9  8UH 3 622     -35.449 131.154   8.939  1.00 17.54    -0.062 C 
HETATM   10  C10 8UH 3 622     -36.125 132.297   8.765  1.00 17.54     0.007 C 
HETATM   11  C11 8UH 3 622     -36.680 133.105   9.848  1.00 17.54     0.001 C 
HETATM   12  C12 8UH 3 622     -37.511 134.061   9.451  1.00 17.54     0.007 C 
HETATM   13  C13 8UH 3 622     -38.232 135.034  10.288  1.00 17.54    -0.062 C 
HETATM   14  C14 8UH 3 622     -38.879 136.007   9.633  1.00 17.54     0.007 C 
HETATM   15  C15 8UH 3 622     -39.658 137.040  10.297  1.00 17.54     0.001 C 
HETATM   16  C16 8UH 3 622     -34.709 126.240   6.678  1.00 17.54     0.020 C 
HETATM   17  C17 8UH 3 622     -36.084 128.133   5.960  1.00 17.54     0.020 C 
HETATM   18  C18 8UH 3 622     -31.541 129.551   7.096  1.00 17.54     0.044 C 
HETATM   19  C19 8UH 3 622     -35.197 130.597  10.305  1.00 17.54     0.048 C 
HETATM   20  C20 8UH 3 622     -38.255 134.951  11.783  1.00 17.54     0.048 C 
HETATM   21  O3  8UH 3 622     -32.500 125.850   4.164  1.00 17.54    -0.395 OA
ATOM     22  H3  8UH 3 622     -33.089 125.467   3.525  1.00  0.00     0.210 HD
HETATM   23  C21 8UH 3 622     -47.437 146.532  13.443  1.00 20.77    -0.018 C 
HETATM   24  C22 8UH 3 622     -48.237 146.847  14.718  1.00 19.21     0.045 C 
HETATM   25  C23 8UH 3 622     -47.526 147.359  15.968  1.00 20.68     0.123 C 
HETATM   26  C24 8UH 3 622     -46.003 147.496  15.860  1.00 17.77     0.066 C 
HETATM   27  C25 8UH 3 622     -45.256 146.961  14.681  1.00 19.05    -0.074 C 
HETATM   28  C26 8UH 3 622     -45.877 146.501  13.535  1.00 19.48    -0.048 C 
HETATM   29  C27 8UH 3 622     -45.172 145.951  12.345  1.00 16.56     0.009 C 
HETATM   30  C28 8UH 3 622     -44.680 144.688  12.240  1.00 15.55     0.007 C 
HETATM   31  C29 8UH 3 622     -43.958 144.115  11.136  1.00 17.54    -0.062 C 
HETATM   32  C30 8UH 3 622     -43.611 142.829  11.213  1.00 17.54     0.007 C 
HETATM   33  C31 8UH 3 622     -42.883 142.107  10.181  1.00 17.54     0.001 C 
HETATM   34  C32 8UH 3 622     -42.321 140.976  10.582  1.00 17.54     0.007 C 
HETATM   35  C33 8UH 3 622     -41.537 140.089   9.708  1.00 17.54    -0.062 C 
HETATM   36  C34 8UH 3 622     -41.057 138.971  10.266  1.00 17.54     0.007 C 
HETATM   37  C35 8UH 3 622     -40.264 137.970   9.568  1.00 17.54     0.001 C 
HETATM   38  C36 8UH 3 622     -47.885 147.632  12.448  1.00 20.67     0.020 C 
HETATM   39  C37 8UH 3 622     -47.978 145.182  12.927  1.00 19.98     0.020 C 
HETATM   40  C38 8UH 3 622     -43.797 147.028  14.972  1.00 17.40     0.044 C 
HETATM   41  C39 8UH 3 622     -43.627 144.962   9.946  1.00 17.54     0.048 C 
HETATM   42  C40 8UH 3 622     -41.290 140.431   8.273  1.00 17.54     0.048 C 
HETATM   43  O23 8UH 3 622     -48.108 148.583  16.407  1.00 20.33    -0.395 OA
ATOM     44  H23 8UH 3 622     -49.052 148.499  16.474  1.00  0.00     0.210 HD
ENDROOT
TORSDOF 12
