REMARK VINA RESULT:   -11.402      1.064     16.547
REMARK INTER + INTRA:         -12.099
REMARK INTER:                  -9.750
REMARK INTRA:                  -2.349
REMARK UNBOUND:                -0.697
REMARK  0 active torsions:
REMARK  status: ('A' for Active; 'I' for Inactive)
REMARK       I    between atoms: C3_3  and  O3_21 
REMARK       I    between atoms: C6_6  and  C7_7 
REMARK       I    between atoms: C8_8  and  C9_9 
REMARK       I    between atoms: C10_10  and  C11_11 
REMARK       I    between atoms: C12_12  and  C13_13 
REMARK       I    between atoms: C14_14  and  C15_15 
REMARK       I    between atoms: C23_25  and  O23_43 
REMARK       I    between atoms: C26_28  and  C27_29 
REMARK       I    between atoms: C28_30  and  C29_31 
REMARK       I    between atoms: C30_32  and  C31_33 
REMARK       I    between atoms: C32_34  and  C33_35 
REMARK       I    between atoms: C34_36  and  C35_37 
ROOT
HETATM    1  C1  8UH 8 619     -34.175 127.073   6.676  1.00 35.06    -0.018 C 
HETATM    2  C2  8UH 8 619     -34.027 127.065   5.154  1.00 35.06     0.045 C 
HETATM    3  C3  8UH 8 619     -32.854 127.868   4.602  1.00 35.06     0.123 C 
HETATM    4  C4  8UH 8 619     -31.809 128.087   5.680  1.00 35.06     0.066 C 
HETATM    5  C5  8UH 8 619     -32.506 128.854   6.763  1.00 35.06    -0.074 C 
HETATM    6  C6  8UH 8 619     -33.581 128.299   7.324  1.00 35.06    -0.048 C 
HETATM    7  C7  8UH 8 619     -34.308 128.939   8.435  1.00 35.06     0.009 C 
HETATM    8  C8  8UH 8 619     -34.462 130.260   8.347  1.00 35.06     0.007 C 
HETATM    9  C9  8UH 8 619     -35.346 130.970   9.291  1.00 35.06    -0.062 C 
HETATM   10  C10 8UH 8 619     -35.820 132.162   8.900  1.00 35.06     0.007 C 
HETATM   11  C11 8UH 8 619     -36.796 132.938   9.653  1.00 35.06     0.001 C 
HETATM   12  C12 8UH 8 619     -37.307 134.023   9.090  1.00 35.06     0.007 C 
HETATM   13  C13 8UH 8 619     -38.355 134.815   9.745  1.00 35.06    -0.062 C 
HETATM   14  C14 8UH 8 619     -38.960 135.745   8.994  1.00 35.06     0.007 C 
HETATM   15  C15 8UH 8 619     -40.048 136.601   9.447  1.00 35.06     0.001 C 
HETATM   16  C16 8UH 8 619     -33.413 125.886   7.255  1.00 35.06     0.020 C 
HETATM   17  C17 8UH 8 619     -35.644 126.954   7.055  1.00 35.06     0.020 C 
HETATM   18  C18 8UH 8 619     -31.583 129.808   7.480  1.00 35.06     0.044 C 
HETATM   19  C19 8UH 8 619     -35.713 130.310  10.588  1.00 35.06     0.048 C 
HETATM   20  C20 8UH 8 619     -38.693 134.520  11.175  1.00 35.06     0.048 C 
HETATM   21  O3  8UH 8 619     -32.252 127.162   3.511  1.00 35.06    -0.395 OA
ATOM     22  H3  8UH 8 619     -31.522 127.662   3.167  1.00  0.00     0.210 HD
HETATM   23  C21 8UH 8 619     -49.699 144.412   9.978  1.00 48.79    -0.018 C 
HETATM   24  C22 8UH 8 619     -50.359 144.667  11.326  1.00 49.38     0.045 C 
HETATM   25  C23 8UH 8 619     -50.227 146.072  11.912  1.00 51.85     0.123 C 
HETATM   26  C24 8UH 8 619     -48.827 146.647  11.790  1.00 54.16     0.066 C 
HETATM   27  C25 8UH 8 619     -48.019 146.150  10.622  1.00 52.93    -0.074 C 
HETATM   28  C26 8UH 8 619     -48.330 145.065   9.893  1.00 53.44    -0.048 C 
HETATM   29  C27 8UH 8 619     -47.328 144.491   8.953  1.00 56.18     0.009 C 
HETATM   30  C28 8UH 8 619     -46.578 143.435   9.272  1.00 54.04     0.007 C 
HETATM   31  C29 8UH 8 619     -45.601 142.839   8.359  1.00 35.06    -0.062 C 
HETATM   32  C30 8UH 8 619     -44.930 141.782   8.835  1.00 35.06     0.007 C 
HETATM   33  C31 8UH 8 619     -43.908 141.040   8.114  1.00 35.06     0.001 C 
HETATM   34  C32 8UH 8 619     -43.313 140.054   8.774  1.00 35.06     0.007 C 
HETATM   35  C33 8UH 8 619     -42.239 139.242   8.187  1.00 35.06    -0.062 C 
HETATM   36  C34 8UH 8 619     -41.661 138.331   8.988  1.00 35.06     0.007 C 
HETATM   37  C35 8UH 8 619     -40.568 137.456   8.580  1.00 35.06     0.001 C 
HETATM   38  C36 8UH 8 619     -50.602 144.917   8.864  1.00 50.92     0.020 C 
HETATM   39  C37 8UH 8 619     -49.560 142.903   9.803  1.00 48.05     0.020 C 
HETATM   40  C38 8UH 8 619     -46.615 146.641  10.761  1.00 55.82     0.044 C 
HETATM   41  C39 8UH 8 619     -45.421 143.408   6.984  1.00 35.06     0.048 C 
HETATM   42  C40 8UH 8 619     -41.843 139.498   6.765  1.00 35.06     0.048 C 
HETATM   43  O23 8UH 8 619     -51.186 146.978  11.351  1.00 50.70    -0.395 OA
ATOM     44  H23 8UH 8 619     -51.105 147.852  11.715  1.00  0.00     0.210 HD
ENDROOT
TORSDOF 12
