REMARK VINA RESULT:   -11.430      0.000      0.000
REMARK INTER + INTRA:         -12.366
REMARK INTER:                 -11.430
REMARK INTRA:                  -0.936
REMARK UNBOUND:                -0.936
REMARK  0 active torsions:
REMARK  status: ('A' for Active; 'I' for Inactive)
REMARK       I    between atoms: C3_3  and  O3_21 
REMARK       I    between atoms: C6_6  and  C7_7 
REMARK       I    between atoms: C8_8  and  C9_9 
REMARK       I    between atoms: C10_10  and  C11_11 
REMARK       I    between atoms: C12_12  and  C13_13 
REMARK       I    between atoms: C14_14  and  C15_15 
REMARK       I    between atoms: C23_25  and  O23_43 
REMARK       I    between atoms: C26_28  and  C27_29 
REMARK       I    between atoms: C28_30  and  C29_31 
REMARK       I    between atoms: C30_32  and  C31_33 
REMARK       I    between atoms: C32_34  and  C33_35 
REMARK       I    between atoms: C34_36  and  C35_37 
ROOT
HETATM    1  C1  8UH D3620     -50.568 145.230  10.785  1.00 21.49    -0.018 C 
HETATM    2  C2  8UH D3620     -51.380 145.778  11.979  1.00 21.50     0.045 C 
HETATM    3  C3  8UH D3620     -50.821 146.945  12.801  1.00 22.37     0.123 C 
HETATM    4  C4  8UH D3620     -49.682 147.726  12.139  1.00 21.17     0.066 C 
HETATM    5  C5  8UH D3620     -48.813 147.047  11.131  1.00 19.70    -0.074 C 
HETATM    6  C6  8UH D3620     -49.192 145.886  10.484  1.00 20.41    -0.048 C 
HETATM    7  C7  8UH D3620     -48.328 145.222   9.487  1.00 19.41     0.009 C 
HETATM    8  C8  8UH D3620     -47.260 144.445   9.716  1.00 18.90     0.007 C 
HETATM    9  C9  8UH D3620     -46.324 143.907   8.724  1.00 20.60    -0.062 C 
HETATM   10  C10 8UH D3620     -45.375 143.053   9.163  1.00 18.78     0.007 C 
HETATM   11  C11 8UH D3620     -44.375 142.404   8.372  1.00 19.97     0.001 C 
HETATM   12  C12 8UH D3620     -43.615 141.446   8.931  1.00 23.02     0.007 C 
HETATM   13  C13 8UH D3620     -42.568 140.629   8.315  1.00 23.57    -0.062 C 
HETATM   14  C14 8UH D3620     -42.021 139.650   9.067  1.00 23.43     0.007 C 
HETATM   15  C15 8UH D3620     -41.046 138.677   8.667  1.00 24.57     0.001 C 
HETATM   16  C16 8UH D3620     -51.518 145.445   9.590  1.00 19.84     0.020 C 
HETATM   17  C17 8UH D3620     -50.399 143.704  11.003  1.00 19.63     0.020 C 
HETATM   18  C18 8UH D3620     -47.569 147.851  11.002  1.00 19.29     0.044 C 
HETATM   19  C19 8UH D3620     -46.511 144.300   7.276  1.00 18.57     0.048 C 
HETATM   20  C20 8UH D3620     -42.231 140.889   6.880  1.00 22.43     0.048 C 
HETATM   21  O3  8UH D3620     -51.864 147.830  13.173  1.00 22.38    -0.395 OA
ATOM     22  H3  8UH D3620     -51.517 148.554  13.682  1.00  0.00     0.210 HD
HETATM   23  C21 8UH D3620     -34.047 128.293   6.890  1.00 87.69    -0.018 C 
HETATM   24  C22 8UH D3620     -33.338 127.983   5.586  1.00 87.69     0.045 C 
HETATM   25  C23 8UH D3620     -31.826 128.171   5.569  1.00 87.69     0.123 C 
HETATM   26  C24 8UH D3620     -31.294 129.238   6.514  1.00 87.69     0.066 C 
HETATM   27  C25 8UH D3620     -32.374 130.088   7.131  1.00 87.69    -0.074 C 
HETATM   28  C26 8UH D3620     -33.537 129.566   7.511  1.00 87.69    -0.048 C 
HETATM   29  C27 8UH D3620     -34.343 130.198   8.580  1.00 87.69     0.009 C 
HETATM   30  C28 8UH D3620     -35.138 131.229   8.315  1.00 87.69     0.007 C 
HETATM   31  C29 8UH D3620     -35.997 131.905   9.341  1.00 31.15    -0.062 C 
HETATM   32  C30 8UH D3620     -36.744 132.951   8.929  1.00 29.00     0.007 C 
HETATM   33  C31 8UH D3620     -37.631 133.735   9.733  1.00 26.88     0.001 C 
HETATM   34  C32 8UH D3620     -38.282 134.781   9.215  1.00 27.02     0.007 C 
HETATM   35  C33 8UH D3620     -39.205 135.714   9.871  1.00 27.13    -0.062 C 
HETATM   36  C34 8UH D3620     -39.718 136.715   9.121  1.00 25.88     0.007 C 
HETATM   37  C35 8UH D3620     -40.636 137.740   9.528  1.00 25.96     0.001 C 
HETATM   38  C36 8UH D3620     -33.939 127.120   7.860  1.00 87.69     0.020 C 
HETATM   39  C37 8UH D3620     -35.510 128.503   6.565  1.00 87.69     0.020 C 
HETATM   40  C38 8UH D3620     -31.590 130.982   8.039  1.00 87.69     0.044 C 
HETATM   41  C39 8UH D3620     -35.970 131.405  10.757  1.00 30.08     0.048 C 
HETATM   42  C40 8UH D3620     -39.505 135.499  11.326  1.00 24.80     0.048 C 
HETATM   43  O23 8UH D3620     -31.242 126.921   5.935  1.00 87.69    -0.395 OA
ATOM     44  H23 8UH D3620     -31.575 126.255   5.346  1.00  0.00     0.210 HD
ENDROOT
TORSDOF 12
