REMARK VINA RESULT:    -9.480      0.000      0.000
REMARK INTER + INTRA:         -11.936
REMARK INTER:                  -9.480
REMARK INTRA:                  -2.456
REMARK UNBOUND:                -2.456
REMARK  0 active torsions:
REMARK  status: ('A' for Active; 'I' for Inactive)
REMARK       I    between atoms: C3_3  and  O3_21 
REMARK       I    between atoms: C6_6  and  C7_7 
REMARK       I    between atoms: C8_8  and  C9_9 
REMARK       I    between atoms: C10_10  and  C11_11 
REMARK       I    between atoms: C12_12  and  C13_13 
REMARK       I    between atoms: C14_14  and  C15_15 
REMARK       I    between atoms: C23_25  and  O23_43 
REMARK       I    between atoms: C26_28  and  C27_29 
REMARK       I    between atoms: C28_30  and  C29_31 
REMARK       I    between atoms: C30_32  and  C31_33 
REMARK       I    between atoms: C32_34  and  C33_35 
REMARK       I    between atoms: C34_36  and  C35_37 
ROOT
HETATM    1  C1  8UH 1 316     -34.306 127.523   6.657  1.00 73.24    -0.018 C 
HETATM    2  C2  8UH 1 316     -33.610 127.001   5.397  1.00 72.84     0.045 C 
HETATM    3  C3  8UH 1 316     -32.390 127.779   4.917  1.00 72.53     0.123 C 
HETATM    4  C4  8UH 1 316     -31.525 128.175   6.098  1.00 72.61     0.066 C 
HETATM    5  C5  8UH 1 316     -32.339 129.007   7.053  1.00 72.68    -0.074 C 
HETATM    6  C6  8UH 1 316     -33.589 128.660   7.364  1.00 72.79    -0.048 C 
HETATM    7  C7  8UH 1 316     -34.312 129.404   8.424  1.00 71.90     0.009 C 
HETATM    8  C8  8UH 1 316     -34.938 130.549   8.141  1.00 71.51     0.007 C 
HETATM    9  C9  8UH 1 316     -35.679 131.331   9.153  1.00 70.48    -0.062 C 
HETATM   10  C10 8UH 1 316     -36.323 132.437   8.749  1.00 69.46     0.007 C 
HETATM   11  C11 8UH 1 316     -37.102 133.312   9.623  1.00 69.85     0.001 C 
HETATM   12  C12 8UH 1 316     -37.700 134.349   9.038  1.00 72.15     0.007 C 
HETATM   13  C13 8UH 1 316     -38.544 135.337   9.745  1.00 73.74    -0.062 C 
HETATM   14  C14 8UH 1 316     -39.283 136.176   8.997  1.00 74.04     0.007 C 
HETATM   15  C15 8UH 1 316     -40.179 137.181   9.567  1.00 74.62     0.001 C 
HETATM   16  C16 8UH 1 316     -34.447 126.361   7.632  1.00 72.68     0.020 C 
HETATM   17  C17 8UH 1 316     -35.691 128.022   6.265  1.00 73.05     0.020 C 
HETATM   18  C18 8UH 1 316     -31.595 130.012   7.885  1.00 72.13     0.044 C 
HETATM   19  C19 8UH 1 316     -35.700 130.903  10.592  1.00 70.45     0.048 C 
HETATM   20  C20 8UH 1 316     -38.571 135.400  11.246  1.00 72.89     0.048 C 
HETATM   21  O3  8UH 1 316     -31.624 126.958   4.025  1.00 71.04    -0.395 OA
ATOM     22  H3  8UH 1 316     -32.166 126.711   3.285  1.00  0.00     0.210 HD
HETATM   23  C21 8UH 1 316     -49.972 145.027  10.348  1.00 45.52    -0.018 C 
HETATM   24  C22 8UH 1 316     -50.376 144.300  11.628  1.00 45.52     0.045 C 
HETATM   25  C23 8UH 1 316     -49.410 144.498  12.791  1.00 45.52     0.123 C 
HETATM   26  C24 8UH 1 316     -48.793 145.881  12.708  1.00 45.52     0.066 C 
HETATM   27  C25 8UH 1 316     -47.964 145.908  11.456  1.00 45.52    -0.074 C 
HETATM   28  C26 8UH 1 316     -48.519 145.427  10.336  1.00 45.52    -0.048 C 
HETATM   29  C27 8UH 1 316     -47.687 145.000   9.209  1.00 45.52     0.009 C 
HETATM   30  C28 8UH 1 316     -46.865 144.032   9.623  1.00 45.52     0.007 C 
HETATM   31  C29 8UH 1 316     -46.002 143.270   8.700  1.00 94.72    -0.062 C 
HETATM   32  C30 8UH 1 316     -45.227 142.308   9.217  1.00 91.32     0.007 C 
HETATM   33  C31 8UH 1 316     -44.339 141.462   8.422  1.00 87.88     0.001 C 
HETATM   34  C32 8UH 1 316     -43.552 140.631   9.101  1.00 84.19     0.007 C 
HETATM   35  C33 8UH 1 316     -42.614 139.683   8.476  1.00 80.79    -0.062 C 
HETATM   36  C34 8UH 1 316     -41.837 138.929   9.275  1.00 78.84     0.007 C 
HETATM   37  C35 8UH 1 316     -40.904 137.939   8.742  1.00 76.79     0.001 C 
HETATM   38  C36 8UH 1 316     -50.776 146.315  10.223  1.00 45.52     0.020 C 
HETATM   39  C37 8UH 1 316     -50.236 144.148   9.135  1.00 45.52     0.020 C 
HETATM   40  C38 8UH 1 316     -46.518 146.319  11.591  1.00 45.52     0.044 C 
HETATM   41  C39 8UH 1 316     -46.006 143.559   7.229  1.00 95.37     0.048 C 
HETATM   42  C40 8UH 1 316     -42.553 139.551   6.983  1.00 90.13     0.048 C 
HETATM   43  O23 8UH 1 316     -50.107 144.370  14.034  1.00 45.52    -0.395 OA
ATOM     44  H23 8UH 1 316     -49.505 144.493  14.758  1.00  0.00     0.210 HD
ENDROOT
TORSDOF 12
