REMARK VINA RESULT:    -8.687      0.489     16.933
REMARK INTER + INTRA:         -11.497
REMARK INTER:                  -8.907
REMARK INTRA:                  -2.590
REMARK UNBOUND:                -2.809
REMARK  0 active torsions:
REMARK  status: ('A' for Active; 'I' for Inactive)
REMARK       I    between atoms: C3_3  and  O3_21 
REMARK       I    between atoms: C6_6  and  C7_7 
REMARK       I    between atoms: C8_8  and  C9_9 
REMARK       I    between atoms: C10_10  and  C11_11 
REMARK       I    between atoms: C12_12  and  C13_13 
REMARK       I    between atoms: C14_14  and  C15_15 
REMARK       I    between atoms: C23_25  and  O23_43 
REMARK       I    between atoms: C26_28  and  C27_29 
REMARK       I    between atoms: C28_30  and  C29_31 
REMARK       I    between atoms: C30_32  and  C31_33 
REMARK       I    between atoms: C32_34  and  C33_35 
REMARK       I    between atoms: C34_36  and  C35_37 
ROOT
HETATM    1  C1  8UH F5620     -34.552 127.005   6.236  1.00 19.30    -0.018 C 
HETATM    2  C2  8UH F5620     -34.115 126.358   4.908  1.00 17.68     0.045 C 
HETATM    3  C3  8UH F5620     -32.932 126.957   4.154  1.00 17.79     0.123 C 
HETATM    4  C4  8UH F5620     -31.986 127.818   4.993  1.00 18.50     0.066 C 
HETATM    5  C5  8UH F5620     -32.544 128.593   6.142  1.00 19.40    -0.074 C 
HETATM    6  C6  8UH F5620     -33.737 128.239   6.739  1.00 19.02    -0.048 C 
HETATM    7  C7  8UH F5620     -34.297 129.011   7.860  1.00 18.60     0.009 C 
HETATM    8  C8  8UH F5620     -34.943 130.194   7.783  1.00 18.09     0.007 C 
HETATM    9  C9  8UH F5620     -35.399 131.026   8.900  1.00 18.23    -0.062 C 
HETATM   10  C10 8UH F5620     -36.122 132.129   8.607  1.00 15.81     0.007 C 
HETATM   11  C11 8UH F5620     -36.678 133.066   9.544  1.00 18.00     0.001 C 
HETATM   12  C12 8UH F5620     -37.525 134.013   9.111  1.00 18.12     0.007 C 
HETATM   13  C13 8UH F5620     -38.245 135.027   9.871  1.00 18.88    -0.062 C 
HETATM   14  C14 8UH F5620     -39.129 135.793   9.195  1.00 21.10     0.007 C 
HETATM   15  C15 8UH F5620     -40.017 136.793   9.725  1.00 24.06     0.001 C 
HETATM   16  C16 8UH F5620     -34.427 125.853   7.249  1.00 17.17     0.020 C 
HETATM   17  C17 8UH F5620     -36.050 127.356   6.096  1.00 16.95     0.020 C 
HETATM   18  C18 8UH F5620     -31.618 129.724   6.457  1.00 19.80     0.044 C 
HETATM   19  C19 8UH F5620     -35.071 130.566  10.302  1.00 17.09     0.048 C 
HETATM   20  C20 8UH F5620     -38.013 135.101  11.348  1.00 16.35     0.048 C 
HETATM   21  O3  8UH F5620     -32.202 125.935   3.499  1.00 17.38    -0.395 OA
ATOM     22  H3  8UH F5620     -31.465 126.308   3.030  1.00  0.00     0.210 HD
HETATM   23  C21 8UH F5620     -49.715 144.610  12.333  1.00 19.63    -0.018 C 
HETATM   24  C22 8UH F5620     -50.282 145.224  13.610  1.00 19.63     0.045 C 
HETATM   25  C23 8UH F5620     -49.371 146.149  14.403  1.00 19.63     0.123 C 
HETATM   26  C24 8UH F5620     -48.531 146.988  13.466  1.00 19.63     0.066 C 
HETATM   27  C25 8UH F5620     -47.708 146.029  12.663  1.00 19.63    -0.074 C 
HETATM   28  C26 8UH F5620     -48.308 145.054  11.974  1.00 19.63    -0.048 C 
HETATM   29  C27 8UH F5620     -47.647 144.395  10.818  1.00 19.63     0.009 C 
HETATM   30  C28 8UH F5620     -46.726 143.442  10.967  1.00 19.63     0.007 C 
HETATM   31  C29 8UH F5620     -46.067 142.747   9.822  1.00 26.61    -0.062 C 
HETATM   32  C30 8UH F5620     -45.154 141.801  10.129  1.00 25.24     0.007 C 
HETATM   33  C31 8UH F5620     -44.435 140.972   9.206  1.00 26.40     0.001 C 
HETATM   34  C32 8UH F5620     -43.510 140.089   9.629  1.00 26.29     0.007 C 
HETATM   35  C33 8UH F5620     -42.680 139.182   8.831  1.00 26.99    -0.062 C 
HETATM   36  C34 8UH F5620     -41.787 138.411   9.488  1.00 26.65     0.007 C 
HETATM   37  C35 8UH F5620     -40.866 137.459   8.934  1.00 25.43     0.001 C 
HETATM   38  C36 8UH F5620     -50.691 144.926  11.205  1.00 19.63     0.020 C 
HETATM   39  C37 8UH F5620     -49.668 143.106  12.524  1.00 19.63     0.020 C 
HETATM   40  C38 8UH F5620     -46.585 146.844  12.102  1.00 19.63     0.044 C 
HETATM   41  C39 8UH F5620     -46.442 143.130   8.411  1.00 26.87     0.048 C 
HETATM   42  C40 8UH F5620     -42.861 139.193   7.341  1.00 24.17     0.048 C 
HETATM   43  O23 8UH F5620     -50.180 147.010  15.207  1.00 19.63    -0.395 OA
ATOM     44  H23 8UH F5620     -50.707 146.482  15.796  1.00  0.00     0.210 HD
ENDROOT
TORSDOF 12
