REMARK VINA RESULT:    -9.671      0.000      0.000
REMARK INTER + INTRA:         -12.945
REMARK INTER:                  -9.671
REMARK INTRA:                  -3.274
REMARK UNBOUND:                -3.274
REMARK  0 active torsions:
REMARK  status: ('A' for Active; 'I' for Inactive)
REMARK       I    between atoms: C3_3  and  O3_21 
REMARK       I    between atoms: C6_6  and  C7_7 
REMARK       I    between atoms: C8_8  and  C9_9 
REMARK       I    between atoms: C10_10  and  C11_11 
REMARK       I    between atoms: C12_12  and  C13_13 
REMARK       I    between atoms: C14_14  and  C15_15 
REMARK       I    between atoms: C23_25  and  O23_43 
REMARK       I    between atoms: C26_28  and  C27_29 
REMARK       I    between atoms: C28_30  and  C29_31 
REMARK       I    between atoms: C30_32  and  C31_33 
REMARK       I    between atoms: C32_34  and  C33_35 
REMARK       I    between atoms: C34_36  and  C35_37 
ROOT
HETATM    1  C1  8UH N1621     -34.369 127.011   6.301  1.00 51.88    -0.018 C 
HETATM    2  C2  8UH N1621     -33.970 126.443   4.946  1.00 51.88     0.045 C 
HETATM    3  C3  8UH N1621     -32.798 127.100   4.250  1.00 51.88     0.123 C 
HETATM    4  C4  8UH N1621     -31.721 127.423   5.257  1.00 51.88     0.066 C 
HETATM    5  C5  8UH N1621     -32.280 128.350   6.295  1.00 51.88    -0.074 C 
HETATM    6  C6  8UH N1621     -33.480 128.122   6.831  1.00 51.88    -0.048 C 
HETATM    7  C7  8UH N1621     -34.010 128.925   7.965  1.00 51.88     0.009 C 
HETATM    8  C8  8UH N1621     -34.618 130.099   7.785  1.00 51.88     0.007 C 
HETATM    9  C9  8UH N1621     -35.198 130.903   8.869  1.00 51.88    -0.062 C 
HETATM   10  C10 8UH N1621     -36.094 131.808   8.476  1.00 51.88     0.007 C 
HETATM   11  C11 8UH N1621     -36.854 132.707   9.330  1.00 51.88     0.001 C 
HETATM   12  C12 8UH N1621     -37.703 133.490   8.677  1.00 51.88     0.007 C 
HETATM   13  C13 8UH N1621     -38.603 134.428   9.359  1.00 51.88    -0.062 C 
HETATM   14  C14 8UH N1621     -39.408 135.197   8.615  1.00 51.88     0.007 C 
HETATM   15  C15 8UH N1621     -40.353 136.122   9.228  1.00 51.88     0.001 C 
HETATM   16  C16 8UH N1621     -34.449 125.851   7.281  1.00 51.88     0.020 C 
HETATM   17  C17 8UH N1621     -35.760 127.581   6.154  1.00 51.88     0.020 C 
HETATM   18  C18 8UH N1621     -31.305 129.328   6.872  1.00 51.88     0.044 C 
HETATM   19  C19 8UH N1621     -34.818 130.713  10.303  1.00 51.88     0.048 C 
HETATM   20  C20 8UH N1621     -38.635 134.477  10.855  1.00 51.88     0.048 C 
HETATM   21  O3  8UH N1621     -32.254 126.180   3.299  1.00 51.88    -0.395 OA
ATOM     22  H3  8UH N1621     -31.518 126.593   2.862  1.00  0.00     0.210 HD
HETATM   23  C21 8UH N1621     -49.847 144.779  10.051  1.00 48.43    -0.018 C 
HETATM   24  C22 8UH N1621     -50.828 145.327  11.079  1.00 44.61     0.045 C 
HETATM   25  C23 8UH N1621     -50.235 145.777  12.399  1.00 44.41     0.123 C 
HETATM   26  C24 8UH N1621     -48.942 146.525  12.180  1.00 41.53     0.066 C 
HETATM   27  C25 8UH N1621     -47.987 145.600  11.493  1.00 37.72    -0.074 C 
HETATM   28  C26 8UH N1621     -48.380 144.903  10.428  1.00 43.52    -0.048 C 
HETATM   29  C27 8UH N1621     -47.406 144.236   9.533  1.00 44.60     0.009 C 
HETATM   30  C28 8UH N1621     -46.876 143.054   9.819  1.00 43.22     0.007 C 
HETATM   31  C29 8UH N1621     -45.943 142.387   8.896  1.00 51.88    -0.062 C 
HETATM   32  C30 8UH N1621     -45.541 141.156   9.230  1.00 51.88     0.007 C 
HETATM   33  C31 8UH N1621     -44.623 140.340   8.445  1.00 51.88     0.001 C 
HETATM   34  C32 8UH N1621     -43.803 139.532   9.114  1.00 51.88     0.007 C 
HETATM   35  C33 8UH N1621     -42.839 138.661   8.425  1.00 51.88    -0.062 C 
HETATM   36  C34 8UH N1621     -42.029 137.852   9.125  1.00 51.88     0.007 C 
HETATM   37  C35 8UH N1621     -41.069 136.958   8.480  1.00 51.88     0.001 C 
HETATM   38  C36 8UH N1621     -50.172 145.493   8.744  1.00 47.48     0.020 C 
HETATM   39  C37 8UH N1621     -50.075 143.288   9.882  1.00 54.25     0.020 C 
HETATM   40  C38 8UH N1621     -46.565 145.992  11.715  1.00 37.77     0.044 C 
HETATM   41  C39 8UH N1621     -45.475 143.068   7.647  1.00 51.88     0.048 C 
HETATM   42  C40 8UH N1621     -42.789 138.699   6.939  1.00 51.88     0.048 C 
HETATM   43  O23 8UH N1621     -51.161 146.645  13.052  1.00 48.83    -0.395 OA
ATOM     44  H23 8UH N1621     -50.789 146.928  13.878  1.00  0.00     0.210 HD
ENDROOT
TORSDOF 12
