REMARK VINA RESULT:    -7.355      1.177     16.944
REMARK INTER + INTRA:         -10.245
REMARK INTER:                 -10.017
REMARK INTRA:                  -0.228
REMARK UNBOUND:                -2.890
REMARK  0 active torsions:
REMARK  status: ('A' for Active; 'I' for Inactive)
REMARK       I    between atoms: C3_3  and  O3_21 
REMARK       I    between atoms: C6_6  and  C7_7 
REMARK       I    between atoms: C8_8  and  C9_9 
REMARK       I    between atoms: C10_10  and  C11_11 
REMARK       I    between atoms: C12_12  and  C13_13 
REMARK       I    between atoms: C14_14  and  C15_15 
REMARK       I    between atoms: C23_25  and  O23_43 
REMARK       I    between atoms: C26_28  and  C27_29 
REMARK       I    between atoms: C28_30  and  C29_31 
REMARK       I    between atoms: C30_32  and  C31_33 
REMARK       I    between atoms: C32_34  and  C33_35 
REMARK       I    between atoms: C34_36  and  C35_37 
ROOT
HETATM    1  C1  8UH 8 314     -49.724 145.596  12.405  1.00 73.63    -0.018 C 
HETATM    2  C2  8UH 8 314     -50.458 146.215  13.590  1.00 75.58     0.045 C 
HETATM    3  C3  8UH 8 314     -49.572 146.953  14.580  1.00 77.85     0.123 C 
HETATM    4  C4  8UH 8 314     -48.718 147.972  13.843  1.00 76.46     0.066 C 
HETATM    5  C5  8UH 8 314     -47.921 147.303  12.750  1.00 74.82    -0.074 C 
HETATM    6  C6  8UH 8 314     -48.398 146.255  12.066  1.00 72.89    -0.048 C 
HETATM    7  C7  8UH 8 314     -47.631 145.691  10.929  1.00 69.76     0.009 C 
HETATM    8  C8  8UH 8 314     -46.601 144.869  11.144  1.00 67.74     0.007 C 
HETATM    9  C9  8UH 8 314     -45.817 144.263  10.048  1.00 67.19    -0.062 C 
HETATM   10  C10 8UH 8 314     -44.876 143.369  10.381  1.00 64.55     0.007 C 
HETATM   11  C11 8UH 8 314     -44.026 142.658   9.429  1.00 61.91     0.001 C 
HETATM   12  C12 8UH 8 314     -43.302 141.672   9.953  1.00 60.53     0.007 C 
HETATM   13  C13 8UH 8 314     -42.392 140.798   9.189  1.00 59.33    -0.062 C 
HETATM   14  C14 8UH 8 314     -41.847 139.757   9.840  1.00 60.00     0.007 C 
HETATM   15  C15 8UH 8 314     -40.951 138.793   9.205  1.00 60.35     0.001 C 
HETATM   16  C16 8UH 8 314     -50.648 145.666  11.194  1.00 75.09     0.020 C 
HETATM   17  C17 8UH 8 314     -49.438 144.135  12.727  1.00 73.62     0.020 C 
HETATM   18  C18 8UH 8 314     -46.661 147.995  12.320  1.00 74.16     0.044 C 
HETATM   19  C19 8UH 8 314     -46.075 144.622   8.614  1.00 68.15     0.048 C 
HETATM   20  C20 8UH 8 314     -42.103 141.057   7.740  1.00 57.80     0.048 C 
HETATM   21  O3  8UH 8 314     -50.405 147.632  15.528  1.00 79.25    -0.395 OA
ATOM     22  H3  8UH 8 314     -49.851 148.092  16.147  1.00  0.00     0.210 HD
HETATM   23  C21 8UH 8 314     -34.089 128.122   7.028  1.00 22.96    -0.018 C 
HETATM   24  C22 8UH 8 314     -33.241 127.388   5.965  1.00 23.40     0.045 C 
HETATM   25  C23 8UH 8 314     -32.099 128.141   5.286  1.00 22.69     0.123 C 
HETATM   26  C24 8UH 8 314     -31.462 129.225   6.153  1.00 22.06     0.066 C 
HETATM   27  C25 8UH 8 314     -32.320 129.969   7.120  1.00 21.38    -0.074 C 
HETATM   28  C26 8UH 8 314     -33.540 129.488   7.549  1.00 22.58    -0.048 C 
HETATM   29  C27 8UH 8 314     -34.361 130.242   8.518  1.00 22.00     0.009 C 
HETATM   30  C28 8UH 8 314     -35.137 131.318   8.281  1.00 20.93     0.007 C 
HETATM   31  C29 8UH 8 314     -35.815 132.107   9.298  1.00 75.56    -0.062 C 
HETATM   32  C30 8UH 8 314     -36.751 132.991   8.922  1.00 73.06     0.007 C 
HETATM   33  C31 8UH 8 314     -37.502 133.833   9.852  1.00 70.20     0.001 C 
HETATM   34  C32 8UH 8 314     -38.240 134.789   9.292  1.00 68.68     0.007 C 
HETATM   35  C33 8UH 8 314     -39.088 135.754  10.017  1.00 66.05    -0.062 C 
HETATM   36  C34 8UH 8 314     -39.644 136.756   9.315  1.00 63.06     0.007 C 
HETATM   37  C35 8UH 8 314     -40.517 137.756   9.922  1.00 60.73     0.001 C 
HETATM   38  C36 8UH 8 314     -34.175 127.111   8.187  1.00 20.65     0.020 C 
HETATM   39  C37 8UH 8 314     -35.506 128.295   6.450  1.00 21.73     0.020 C 
HETATM   40  C38 8UH 8 314     -31.599 131.218   7.489  1.00 21.05     0.044 C 
HETATM   41  C39 8UH 8 314     -35.460 131.930  10.746  1.00 73.18     0.048 C 
HETATM   42  C40 8UH 8 314     -39.328 135.618  11.491  1.00 66.25     0.048 C 
HETATM   43  O23 8UH 8 314     -31.106 127.231   4.833  1.00 22.00    -0.395 OA
ATOM     44  H23 8UH 8 314     -30.396 127.700   4.411  1.00  0.00     0.210 HD
ENDROOT
TORSDOF 12
