REMARK VINA RESULT:    -8.324      1.560     16.763
REMARK INTER + INTRA:         -10.216
REMARK INTER:                  -5.217
REMARK INTRA:                  -4.999
REMARK UNBOUND:                -1.891
REMARK  0 active torsions:
REMARK  status: ('A' for Active; 'I' for Inactive)
REMARK       I    between atoms: C3_3  and  O3_21 
REMARK       I    between atoms: C6_6  and  C7_7 
REMARK       I    between atoms: C8_8  and  C9_9 
REMARK       I    between atoms: C10_10  and  C11_11 
REMARK       I    between atoms: C12_12  and  C13_13 
REMARK       I    between atoms: C14_14  and  C15_15 
REMARK       I    between atoms: C23_25  and  O23_43 
REMARK       I    between atoms: C26_28  and  C27_29 
REMARK       I    between atoms: C28_30  and  C29_31 
REMARK       I    between atoms: C30_32  and  C31_33 
REMARK       I    between atoms: C32_34  and  C33_35 
REMARK       I    between atoms: C34_36  and  C35_37 
ROOT
HETATM    1  C1  8UH Y1621     -34.574 127.021   5.359  1.00 37.60    -0.018 C 
HETATM    2  C2  8UH Y1621     -33.908 126.215   4.257  1.00 37.60     0.045 C 
HETATM    3  C3  8UH Y1621     -32.708 126.853   3.596  1.00 37.60     0.123 C 
HETATM    4  C4  8UH Y1621     -31.749 127.329   4.655  1.00 37.60     0.066 C 
HETATM    5  C5  8UH Y1621     -32.408 128.208   5.673  1.00 37.60    -0.074 C 
HETATM    6  C6  8UH Y1621     -33.680 128.025   6.058  1.00 37.60    -0.048 C 
HETATM    7  C7  8UH Y1621     -34.248 128.766   7.217  1.00 37.60     0.009 C 
HETATM    8  C8  8UH Y1621     -34.725 130.012   7.135  1.00 37.60     0.007 C 
HETATM    9  C9  8UH Y1621     -35.291 130.714   8.288  1.00 37.60    -0.062 C 
HETATM   10  C10 8UH Y1621     -36.181 131.669   8.023  1.00 37.60     0.007 C 
HETATM   11  C11 8UH Y1621     -36.873 132.468   9.019  1.00 37.60     0.001 C 
HETATM   12  C12 8UH Y1621     -37.795 133.257   8.493  1.00 37.60     0.007 C 
HETATM   13  C13 8UH Y1621     -38.686 134.160   9.224  1.00 37.60    -0.062 C 
HETATM   14  C14 8UH Y1621     -39.451 134.991   8.513  1.00 37.60     0.007 C 
HETATM   15  C15 8UH Y1621     -40.385 135.884   9.177  1.00 37.60     0.001 C 
HETATM   16  C16 8UH Y1621     -35.182 126.004   6.312  1.00 37.60     0.020 C 
HETATM   17  C17 8UH Y1621     -35.700 127.824   4.751  1.00 37.60     0.020 C 
HETATM   18  C18 8UH Y1621     -31.437 129.056   6.433  1.00 37.60     0.044 C 
HETATM   19  C19 8UH Y1621     -34.885 130.374   9.684  1.00 37.60     0.048 C 
HETATM   20  C20 8UH Y1621     -38.754 134.135  10.718  1.00 37.60     0.048 C 
HETATM   21  O3  8UH Y1621     -32.032 125.852   2.838  1.00 37.60    -0.395 OA
ATOM     22  H3  8UH Y1621     -32.636 125.551   2.170  1.00  0.00     0.210 HD
HETATM   23  C21 8UH Y1621     -49.750 144.312  10.966  1.00 21.58    -0.018 C 
HETATM   24  C22 8UH Y1621     -50.771 144.716  12.050  1.00 21.20     0.045 C 
HETATM   25  C23 8UH Y1621     -50.289 145.277  13.392  1.00 20.61     0.123 C 
HETATM   26  C24 8UH Y1621     -48.788 145.594  13.474  1.00 19.82     0.066 C 
HETATM   27  C25 8UH Y1621     -47.820 145.074  12.456  1.00 19.81    -0.074 C 
HETATM   28  C26 8UH Y1621     -48.210 144.480  11.273  1.00 19.95    -0.048 C 
HETATM   29  C27 8UH Y1621     -47.269 143.977  10.230  1.00 17.10     0.009 C 
HETATM   30  C28 8UH Y1621     -46.627 142.790  10.290  1.00 17.58     0.007 C 
HETATM   31  C29 8UH Y1621     -45.708 142.232   9.348  1.00 37.60    -0.062 C 
HETATM   32  C30 8UH Y1621     -45.368 140.951   9.475  1.00 37.60     0.007 C 
HETATM   33  C31 8UH Y1621     -44.455 140.246   8.595  1.00 37.60     0.001 C 
HETATM   34  C32 8UH Y1621     -43.688 139.359   9.206  1.00 37.60     0.007 C 
HETATM   35  C33 8UH Y1621     -42.712 138.538   8.489  1.00 37.60    -0.062 C 
HETATM   36  C34 8UH Y1621     -41.961 137.680   9.177  1.00 37.60     0.007 C 
HETATM   37  C35 8UH Y1621     -41.003 136.828   8.490  1.00 37.60     0.001 C 
HETATM   38  C36 8UH Y1621     -50.169 145.207   9.777  1.00 19.38     0.020 C 
HETATM   39  C37 8UH Y1621     -50.063 142.845  10.591  1.00 19.65     0.020 C 
HETATM   40  C38 8UH Y1621     -46.442 145.369  12.929  1.00 20.06     0.044 C 
HETATM   41  C39 8UH Y1621     -45.167 143.096   8.257  1.00 37.60     0.048 C 
HETATM   42  C40 8UH Y1621     -42.592 138.657   7.007  1.00 37.60     0.048 C 
HETATM   43  O23 8UH Y1621     -51.050 146.421  13.748  1.00 18.88    -0.395 OA
ATOM     44  H23 8UH Y1621     -50.751 146.769  14.580  1.00  0.00     0.210 HD
ENDROOT
TORSDOF 12
