REMARK VINA RESULT:    -8.795      1.054     16.574
REMARK INTER + INTRA:         -11.928
REMARK INTER:                  -9.315
REMARK INTRA:                  -2.613
REMARK UNBOUND:                -3.133
REMARK  0 active torsions:
REMARK  status: ('A' for Active; 'I' for Inactive)
REMARK       I    between atoms: C3_3  and  O3_21 
REMARK       I    between atoms: C6_6  and  C7_7 
REMARK       I    between atoms: C8_8  and  C9_9 
REMARK       I    between atoms: C10_10  and  C11_11 
REMARK       I    between atoms: C12_12  and  C13_13 
REMARK       I    between atoms: C14_14  and  C15_15 
REMARK       I    between atoms: C23_25  and  O23_43 
REMARK       I    between atoms: C26_28  and  C27_29 
REMARK       I    between atoms: C28_30  and  C29_31 
REMARK       I    between atoms: C30_32  and  C31_33 
REMARK       I    between atoms: C32_34  and  C33_35 
REMARK       I    between atoms: C34_36  and  C35_37 
ROOT
HETATM    1  C1  8UH 8 314     -34.414 126.823   6.306  1.00 73.63    -0.018 C 
HETATM    2  C2  8UH 8 314     -33.831 126.046   5.130  1.00 75.58     0.045 C 
HETATM    3  C3  8UH 8 314     -32.904 126.844   4.228  1.00 77.85     0.123 C 
HETATM    4  C4  8UH 8 314     -31.823 127.509   5.063  1.00 76.46     0.066 C 
HETATM    5  C5  8UH 8 314     -32.439 128.359   6.147  1.00 74.82    -0.074 C 
HETATM    6  C6  8UH 8 314     -33.590 128.022   6.743  1.00 72.89    -0.048 C 
HETATM    7  C7  8UH 8 314     -34.110 128.826   7.876  1.00 69.76     0.009 C 
HETATM    8  C8  8UH 8 314     -34.754 129.975   7.656  1.00 67.74     0.007 C 
HETATM    9  C9  8UH 8 314     -35.311 130.802   8.746  1.00 67.19    -0.062 C 
HETATM   10  C10 8UH 8 314     -36.030 131.878   8.400  1.00 64.55     0.007 C 
HETATM   11  C11 8UH 8 314     -36.671 132.792   9.344  1.00 61.91     0.001 C 
HETATM   12  C12 8UH 8 314     -37.501 133.673   8.792  1.00 60.53     0.007 C 
HETATM   13  C13 8UH 8 314     -38.280 134.678   9.540  1.00 59.33    -0.062 C 
HETATM   14  C14 8UH 8 314     -39.183 135.395   8.851  1.00 60.00     0.007 C 
HETATM   15  C15 8UH 8 314     -40.045 136.404   9.464  1.00 60.35     0.001 C 
HETATM   16  C16 8UH 8 314     -34.563 125.858   7.476  1.00 75.09     0.020 C 
HETATM   17  C17 8UH 8 314     -35.791 127.336   5.907  1.00 73.62     0.020 C 
HETATM   18  C18 8UH 8 314     -31.599 129.485   6.675  1.00 74.16     0.044 C 
HETATM   19  C19 8UH 8 314     -35.092 130.443  10.187  1.00 68.15     0.048 C 
HETATM   20  C20 8UH 8 314     -38.080 134.874  11.014  1.00 57.80     0.048 C 
HETATM   21  O3  8UH 8 314     -32.294 125.951   3.287  1.00 79.25    -0.395 OA
ATOM     22  H3  8UH 8 314     -31.716 126.451   2.723  1.00  0.00     0.210 HD
HETATM   23  C21 8UH 8 314     -49.811 144.503  11.039  1.00 53.78    -0.018 C 
HETATM   24  C22 8UH 8 314     -50.381 143.995  12.364  1.00 53.78     0.045 C 
HETATM   25  C23 8UH 8 314     -49.521 144.266  13.594  1.00 53.78     0.123 C 
HETATM   26  C24 8UH 8 314     -48.571 145.421  13.331  1.00 53.78     0.066 C 
HETATM   27  C25 8UH 8 314     -47.703 144.980  12.189  1.00 53.78    -0.074 C 
HETATM   28  C26 8UH 8 314     -48.307 144.634  11.050  1.00 53.78    -0.048 C 
HETATM   29  C27 8UH 8 314     -47.534 144.159   9.890  1.00 53.78     0.009 C 
HETATM   30  C28 8UH 8 314     -46.622 143.242  10.213  1.00 53.78     0.007 C 
HETATM   31  C29 8UH 8 314     -45.875 142.488   9.185  1.00 75.56    -0.062 C 
HETATM   32  C30 8UH 8 314     -45.167 141.417   9.573  1.00 73.06     0.007 C 
HETATM   33  C31 8UH 8 314     -44.384 140.581   8.665  1.00 70.20     0.001 C 
HETATM   34  C32 8UH 8 314     -43.588 139.688   9.250  1.00 68.68     0.007 C 
HETATM   35  C33 8UH 8 314     -42.712 138.730   8.549  1.00 66.05    -0.062 C 
HETATM   36  C34 8UH 8 314     -41.853 138.005   9.286  1.00 63.06     0.007 C 
HETATM   37  C35 8UH 8 314     -40.955 137.014   8.704  1.00 60.73     0.001 C 
HETATM   38  C36 8UH 8 314     -50.357 145.903  10.772  1.00 53.78     0.020 C 
HETATM   39  C37 8UH 8 314     -50.229 143.578   9.902  1.00 53.78     0.020 C 
HETATM   40  C38 8UH 8 314     -46.274 145.468  12.259  1.00 53.78     0.044 C 
HETATM   41  C39 8UH 8 314     -45.899 142.916   7.746  1.00 73.18     0.048 C 
HETATM   42  C40 8UH 8 314     -42.783 138.565   7.060  1.00 66.25     0.048 C 
HETATM   43  O23 8UH 8 314     -50.351 144.596  14.710  1.00 53.78    -0.395 OA
ATOM     44  H23 8UH 8 314     -50.946 143.873  14.874  1.00  0.00     0.210 HD
ENDROOT
TORSDOF 12
