REMARK VINA RESULT:    -8.534      0.000      0.000
REMARK INTER + INTRA:          -8.662
REMARK INTER:                  -8.534
REMARK INTRA:                  -0.128
REMARK UNBOUND:                -0.128
REMARK  0 active torsions:
REMARK  status: ('A' for Active; 'I' for Inactive)
REMARK       I    between atoms: C3_3  and  O3_21 
REMARK       I    between atoms: C6_6  and  C7_7 
REMARK       I    between atoms: C8_8  and  C9_9 
REMARK       I    between atoms: C10_10  and  C11_11 
REMARK       I    between atoms: C12_12  and  C13_13 
REMARK       I    between atoms: C14_14  and  C15_15 
REMARK       I    between atoms: C23_25  and  O23_43 
REMARK       I    between atoms: C26_28  and  C27_29 
REMARK       I    between atoms: C28_30  and  C29_31 
REMARK       I    between atoms: C30_32  and  C31_33 
REMARK       I    between atoms: C32_34  and  C33_35 
REMARK       I    between atoms: C34_36  and  C35_37 
ROOT
HETATM    1  C1  8UH 2 617     -51.312 142.863  14.573  1.00 73.56    -0.018 C 
HETATM    2  C2  8UH 2 617     -51.716 143.412  15.944  1.00 73.56     0.045 C 
HETATM    3  C3  8UH 2 617     -51.249 144.814  16.330  1.00 73.56     0.123 C 
HETATM    4  C4  8UH 2 617     -51.117 145.712  15.109  1.00 73.56     0.066 C 
HETATM    5  C5  8UH 2 617     -50.172 145.037  14.153  1.00 73.56    -0.074 C 
HETATM    6  C6  8UH 2 617     -50.389 143.772  13.775  1.00 73.56    -0.048 C 
HETATM    7  C7  8UH 2 617     -49.755 143.245  12.542  1.00 73.56     0.009 C 
HETATM    8  C8  8UH 2 617     -48.514 142.750  12.522  1.00 73.56     0.007 C 
HETATM    9  C9  8UH 2 617     -47.913 142.232  11.279  1.00 73.56    -0.062 C 
HETATM   10  C10 8UH 2 617     -46.793 141.501  11.365  1.00 73.56     0.007 C 
HETATM   11  C11 8UH 2 617     -46.109 140.941  10.202  1.00 73.56     0.001 C 
HETATM   12  C12 8UH 2 617     -44.871 140.485  10.381  1.00 73.56     0.007 C 
HETATM   13  C13 8UH 2 617     -44.070 139.885   9.299  1.00 73.56    -0.062 C 
HETATM   14  C14 8UH 2 617     -43.048 139.094   9.653  1.00 73.56     0.007 C 
HETATM   15  C15 8UH 2 617     -42.180 138.412   8.699  1.00 73.56     0.001 C 
HETATM   16  C16 8UH 2 617     -52.598 142.576  13.798  1.00 73.56     0.020 C 
HETATM   17  C17 8UH 2 617     -50.566 141.551  14.784  1.00 73.56     0.020 C 
HETATM   18  C18 8UH 2 617     -49.646 146.065  13.191  1.00 73.56     0.044 C 
HETATM   19  C19 8UH 2 617     -48.544 142.523   9.951  1.00 73.56     0.048 C 
HETATM   20  C20 8UH 2 617     -44.383 140.153   7.856  1.00 73.56     0.048 C 
HETATM   21  O3  8UH 2 617     -52.199 145.388  17.236  1.00 73.56    -0.395 OA
ATOM     22  H3  8UH 2 617     -52.282 144.827  17.998  1.00  0.00     0.210 HD
HETATM   23  C21 8UH 2 617     -34.178 128.278   7.238  1.00 23.68    -0.018 C 
HETATM   24  C22 8UH 2 617     -33.416 127.609   6.097  1.00 23.68     0.045 C 
HETATM   25  C23 8UH 2 617     -32.205 128.324   5.512  1.00 23.68     0.123 C 
HETATM   26  C24 8UH 2 617     -31.543 129.239   6.525  1.00 23.68     0.066 C 
HETATM   27  C25 8UH 2 617     -32.583 130.171   7.077  1.00 23.68    -0.074 C 
HETATM   28  C26 8UH 2 617     -33.730 129.693   7.568  1.00 23.68    -0.048 C 
HETATM   29  C27 8UH 2 617     -34.571 130.518   8.477  1.00 23.68     0.009 C 
HETATM   30  C28 8UH 2 617     -35.460 131.414   8.039  1.00 23.68     0.007 C 
HETATM   31  C29 8UH 2 617     -36.300 132.227   8.944  1.00 73.56    -0.062 C 
HETATM   32  C30 8UH 2 617     -37.141 133.104   8.379  1.00 73.56     0.007 C 
HETATM   33  C31 8UH 2 617     -38.037 133.971   9.136  1.00 73.56     0.001 C 
HETATM   34  C32 8UH 2 617     -38.797 134.832   8.461  1.00 73.56     0.007 C 
HETATM   35  C33 8UH 2 617     -39.738 135.729   9.152  1.00 73.56    -0.062 C 
HETATM   36  C34 8UH 2 617     -40.516 136.589   8.470  1.00 73.56     0.007 C 
HETATM   37  C35 8UH 2 617     -41.445 137.436   9.219  1.00 73.56     0.001 C 
HETATM   38  C36 8UH 2 617     -34.037 127.362   8.440  1.00 23.68     0.020 C 
HETATM   39  C37 8UH 2 617     -35.647 128.352   6.849  1.00 23.68     0.020 C 
HETATM   40  C38 8UH 2 617     -31.907 131.359   7.690  1.00 23.68     0.044 C 
HETATM   41  C39 8UH 2 617     -36.217 132.075  10.433  1.00 73.56     0.048 C 
HETATM   42  C40 8UH 2 617     -39.816 135.660  10.646  1.00 73.56     0.048 C 
HETATM   43  O23 8UH 2 617     -31.262 127.339   5.088  1.00 23.68    -0.395 OA
ATOM     44  H23 8UH 2 617     -30.507 127.786   4.723  1.00  0.00     0.210 HD
ENDROOT
TORSDOF 12
