REMARK VINA RESULT:    -6.147      2.800      3.874
REMARK INTER + INTRA:          -6.275
REMARK INTER:                  -5.093
REMARK INTRA:                  -1.182
REMARK UNBOUND:                -0.128
REMARK  0 active torsions:
REMARK  status: ('A' for Active; 'I' for Inactive)
REMARK       I    between atoms: C3_3  and  O3_21 
REMARK       I    between atoms: C6_6  and  C7_7 
REMARK       I    between atoms: C8_8  and  C9_9 
REMARK       I    between atoms: C10_10  and  C11_11 
REMARK       I    between atoms: C12_12  and  C13_13 
REMARK       I    between atoms: C14_14  and  C15_15 
REMARK       I    between atoms: C23_25  and  O23_43 
REMARK       I    between atoms: C26_28  and  C27_29 
REMARK       I    between atoms: C28_30  and  C29_31 
REMARK       I    between atoms: C30_32  and  C31_33 
REMARK       I    between atoms: C32_34  and  C33_35 
REMARK       I    between atoms: C34_36  and  C35_37 
ROOT
HETATM    1  C1  8UH 2 617     -49.427 146.191   8.692  1.00 73.56    -0.018 C 
HETATM    2  C2  8UH 2 617     -50.922 146.310   8.999  1.00 73.56     0.045 C 
HETATM    3  C3  8UH 2 617     -51.348 146.573  10.442  1.00 73.56     0.123 C 
HETATM    4  C4  8UH 2 617     -50.304 147.388  11.191  1.00 73.56     0.066 C 
HETATM    5  C5  8UH 2 617     -49.001 146.639  11.105  1.00 73.56    -0.074 C 
HETATM    6  C6  8UH 2 617     -48.524 146.257   9.915  1.00 73.56    -0.048 C 
HETATM    7  C7  8UH 2 617     -47.086 145.925   9.763  1.00 73.56     0.009 C 
HETATM    8  C8  8UH 2 617     -46.590 144.716  10.044  1.00 73.56     0.007 C 
HETATM    9  C9  8UH 2 617     -45.155 144.417   9.880  1.00 73.56    -0.062 C 
HETATM   10  C10 8UH 2 617     -44.761 143.136   9.904  1.00 73.56     0.007 C 
HETATM   11  C11 8UH 2 617     -43.368 142.723   9.756  1.00 73.56     0.001 C 
HETATM   12  C12 8UH 2 617     -43.065 141.468  10.080  1.00 73.56     0.007 C 
HETATM   13  C13 8UH 2 617     -41.702 140.914   9.968  1.00 73.56    -0.062 C 
HETATM   14  C14 8UH 2 617     -41.580 139.582   9.903  1.00 73.56     0.007 C 
HETATM   15  C15 8UH 2 617     -40.304 138.888   9.770  1.00 73.56     0.001 C 
HETATM   16  C16 8UH 2 617     -49.074 147.293   7.694  1.00 73.56     0.020 C 
HETATM   17  C17 8UH 2 617     -49.181 144.839   8.034  1.00 73.56     0.020 C 
HETATM   18  C18 8UH 2 617     -48.092 147.132  12.195  1.00 73.56     0.044 C 
HETATM   19  C19 8UH 2 617     -44.165 145.526   9.694  1.00 73.56     0.048 C 
HETATM   20  C20 8UH 2 617     -40.498 141.809   9.934  1.00 73.56     0.048 C 
HETATM   21  O3  8UH 2 617     -52.589 147.288  10.439  1.00 73.56    -0.395 OA
ATOM     22  H3  8UH 2 617     -53.241 146.779   9.972  1.00  0.00     0.210 HD
HETATM   23  C21 8UH 2 617     -34.791 127.825   5.759  1.00 23.68    -0.018 C 
HETATM   24  C22 8UH 2 617     -33.376 127.286   5.566  1.00 23.68     0.045 C 
HETATM   25  C23 8UH 2 617     -32.549 126.953   6.801  1.00 23.68     0.123 C 
HETATM   26  C24 8UH 2 617     -33.421 126.581   7.984  1.00 23.68     0.066 C 
HETATM   27  C25 8UH 2 617     -34.417 127.684   8.208  1.00 23.68    -0.074 C 
HETATM   28  C26 8UH 2 617     -35.172 128.129   7.200  1.00 23.68    -0.048 C 
HETATM   29  C27 8UH 2 617     -36.421 128.894   7.465  1.00 23.68     0.009 C 
HETATM   30  C28 8UH 2 617     -36.437 130.212   7.686  1.00 23.68     0.007 C 
HETATM   31  C29 8UH 2 617     -37.678 130.973   7.942  1.00 73.56    -0.062 C 
HETATM   32  C30 8UH 2 617     -37.558 132.288   8.168  1.00 73.56     0.007 C 
HETATM   33  C31 8UH 2 617     -38.688 133.173   8.428  1.00 73.56     0.001 C 
HETATM   34  C32 8UH 2 617     -38.436 134.456   8.678  1.00 73.56     0.007 C 
HETATM   35  C33 8UH 2 617     -39.524 135.415   8.936  1.00 73.56    -0.062 C 
HETATM   36  C34 8UH 2 617     -39.272 136.714   9.175  1.00 73.56     0.007 C 
HETATM   37  C35 8UH 2 617     -40.402 137.616   9.400  1.00 73.56     0.001 C 
HETATM   38  C36 8UH 2 617     -35.727 126.798   5.147  1.00 23.68     0.020 C 
HETATM   39  C37 8UH 2 617     -34.914 129.125   4.979  1.00 23.68     0.020 C 
HETATM   40  C38 8UH 2 617     -34.953 127.591   9.603  1.00 23.68     0.044 C 
HETATM   41  C39 8UH 2 617     -39.019 130.301   7.947  1.00 73.56     0.048 C 
HETATM   42  C40 8UH 2 617     -40.934 134.909   8.919  1.00 73.56     0.048 C 
HETATM   43  O23 8UH 2 617     -31.696 125.850   6.487  1.00 23.68    -0.395 OA
ATOM     44  H23 8UH 2 617     -31.180 125.643   7.258  1.00  0.00     0.210 HD
ENDROOT
TORSDOF 12
