REMARK VINA RESULT:    -7.567      0.729     16.656
REMARK INTER + INTRA:         -10.470
REMARK INTER:                  -7.509
REMARK INTRA:                  -2.961
REMARK UNBOUND:                -2.903
REMARK  0 active torsions:
REMARK  status: ('A' for Active; 'I' for Inactive)
REMARK       I    between atoms: C3_3  and  O3_21 
REMARK       I    between atoms: C6_6  and  C7_7 
REMARK       I    between atoms: C8_8  and  C9_9 
REMARK       I    between atoms: C10_10  and  C11_11 
REMARK       I    between atoms: C12_12  and  C13_13 
REMARK       I    between atoms: C14_14  and  C15_15 
REMARK       I    between atoms: C23_25  and  O23_43 
REMARK       I    between atoms: C26_28  and  C27_29 
REMARK       I    between atoms: C28_30  and  C29_31 
REMARK       I    between atoms: C30_32  and  C31_33 
REMARK       I    between atoms: C32_34  and  C33_35 
REMARK       I    between atoms: C34_36  and  C35_37 
ROOT
HETATM    1  C1  8UH 7 621     -49.179 144.379  12.365  1.00 16.14    -0.018 C 
HETATM    2  C2  8UH 7 621     -49.702 145.057  13.631  1.00 16.14     0.045 C 
HETATM    3  C3  8UH 7 621     -48.801 146.103  14.264  1.00 16.14     0.123 C 
HETATM    4  C4  8UH 7 621     -48.183 146.981  13.203  1.00 16.14     0.066 C 
HETATM    5  C5  8UH 7 621     -47.378 146.105  12.290  1.00 16.14    -0.074 C 
HETATM    6  C6  8UH 7 621     -47.896 144.970  11.808  1.00 16.14    -0.048 C 
HETATM    7  C7  8UH 7 621     -47.223 144.286  10.680  1.00 16.14     0.009 C 
HETATM    8  C8  8UH 7 621     -46.210 143.429  10.836  1.00 16.14     0.007 C 
HETATM    9  C9  8UH 7 621     -45.581 142.792   9.671  1.00 16.14    -0.062 C 
HETATM   10  C10 8UH 7 621     -44.604 141.898   9.896  1.00 16.14     0.007 C 
HETATM   11  C11 8UH 7 621     -43.848 141.139   8.897  1.00 16.14     0.001 C 
HETATM   12  C12 8UH 7 621     -42.824 140.429   9.367  1.00 16.14     0.007 C 
HETATM   13  C13 8UH 7 621     -41.961 139.550   8.557  1.00 16.14    -0.062 C 
HETATM   14  C14 8UH 7 621     -41.313 138.586   9.223  1.00 16.14     0.007 C 
HETATM   15  C15 8UH 7 621     -40.470 137.575   8.598  1.00 16.14     0.001 C 
HETATM   16  C16 8UH 7 621     -50.305 144.423  11.337  1.00 16.14     0.020 C 
HETATM   17  C17 8UH 7 621     -48.881 142.925  12.693  1.00 16.14     0.020 C 
HETATM   18  C18 8UH 7 621     -46.303 146.875  11.580  1.00 16.14     0.044 C 
HETATM   19  C19 8UH 7 621     -46.027 143.201   8.306  1.00 16.14     0.048 C 
HETATM   20  C20 8UH 7 621     -41.831 139.697   7.073  1.00 16.14     0.048 C 
HETATM   21  O3  8UH 7 621     -49.574 146.924  15.142  1.00 16.14    -0.395 OA
ATOM     22  H3  8UH 7 621     -49.011 147.579  15.538  1.00  0.00     0.210 HD
HETATM   23  C21 8UH 7 621     -34.359 127.009   6.415  1.00 21.49    -0.018 C 
HETATM   24  C22 8UH 7 621     -34.050 126.474   5.021  1.00 21.49     0.045 C 
HETATM   25  C23 8UH 7 621     -32.968 127.179   4.218  1.00 21.49     0.123 C 
HETATM   26  C24 8UH 7 621     -31.847 127.685   5.096  1.00 21.49     0.066 C 
HETATM   27  C25 8UH 7 621     -32.403 128.545   6.196  1.00 21.49    -0.074 C 
HETATM   28  C26 8UH 7 621     -33.552 128.236   6.812  1.00 21.49    -0.048 C 
HETATM   29  C27 8UH 7 621     -34.052 129.096   7.917  1.00 21.49     0.009 C 
HETATM   30  C28 8UH 7 621     -34.929 130.076   7.697  1.00 21.49     0.007 C 
HETATM   31  C29 8UH 7 621     -35.444 130.945   8.757  1.00 16.14    -0.062 C 
HETATM   32  C30 8UH 7 621     -36.534 131.666   8.482  1.00 16.14     0.007 C 
HETATM   33  C31 8UH 7 621     -37.165 132.581   9.421  1.00 16.14     0.001 C 
HETATM   34  C32 8UH 7 621     -37.912 133.513   8.849  1.00 16.14     0.007 C 
HETATM   35  C33 8UH 7 621     -38.647 134.566   9.563  1.00 16.14    -0.062 C 
HETATM   36  C34 8UH 7 621     -39.285 135.474   8.812  1.00 16.14     0.007 C 
HETATM   37  C35 8UH 7 621     -40.081 136.561   9.365  1.00 16.14     0.001 C 
HETATM   38  C36 8UH 7 621     -34.141 125.850   7.386  1.00 21.49     0.020 C 
HETATM   39  C37 8UH 7 621     -35.829 127.397   6.440  1.00 21.49     0.020 C 
HETATM   40  C38 8UH 7 621     -31.581 129.739   6.591  1.00 21.49     0.044 C 
HETATM   41  C39 8UH 7 621     -34.771 131.015  10.092  1.00 16.14     0.048 C 
HETATM   42  C40 8UH 7 621     -38.645 134.629  11.058  1.00 16.14     0.048 C 
HETATM   43  O23 8UH 7 621     -32.414 126.235   3.297  1.00 21.49    -0.395 OA
ATOM     44  H23 8UH 7 621     -31.738 126.675   2.795  1.00  0.00     0.210 HD
ENDROOT
TORSDOF 12
