REMARK VINA RESULT:    -9.880      1.018      1.279
REMARK INTER + INTRA:         -11.743
REMARK INTER:                 -11.437
REMARK INTRA:                  -0.306
REMARK UNBOUND:                -1.863
REMARK  0 active torsions:
REMARK  status: ('A' for Active; 'I' for Inactive)
REMARK       I    between atoms: C3_3  and  O3_21 
REMARK       I    between atoms: C6_6  and  C7_7 
REMARK       I    between atoms: C8_8  and  C9_9 
REMARK       I    between atoms: C10_10  and  C11_11 
REMARK       I    between atoms: C12_12  and  C13_13 
REMARK       I    between atoms: C14_14  and  C15_15 
REMARK       I    between atoms: C23_25  and  O23_43 
REMARK       I    between atoms: C26_28  and  C27_29 
REMARK       I    between atoms: C28_30  and  C29_31 
REMARK       I    between atoms: C30_32  and  C31_33 
REMARK       I    between atoms: C32_34  and  C33_35 
REMARK       I    between atoms: C34_36  and  C35_37 
ROOT
HETATM    1  C1  8UH W1621     -49.193 146.264  11.625  1.00 22.20    -0.018 C 
HETATM    2  C2  8UH W1621     -50.003 146.129  12.908  1.00 22.20     0.045 C 
HETATM    3  C3  8UH W1621     -49.391 146.698  14.168  1.00 22.20     0.123 C 
HETATM    4  C4  8UH W1621     -48.403 147.783  13.817  1.00 22.20     0.066 C 
HETATM    5  C5  8UH W1621     -47.370 147.134  12.957  1.00 22.20    -0.074 C 
HETATM    6  C6  8UH W1621     -47.737 146.580  11.818  1.00 22.20    -0.048 C 
HETATM    7  C7  8UH W1621     -46.785 146.068  10.822  1.00 22.20     0.009 C 
HETATM    8  C8  8UH W1621     -45.647 145.525  11.241  1.00 22.20     0.007 C 
HETATM    9  C9  8UH W1621     -44.814 144.799  10.267  1.00 22.20    -0.062 C 
HETATM   10  C10 8UH W1621     -43.979 143.864  10.736  1.00 22.20     0.007 C 
HETATM   11  C11 8UH W1621     -43.211 142.966   9.881  1.00 22.20     0.001 C 
HETATM   12  C12 8UH W1621     -42.583 141.930  10.422  1.00 22.20     0.007 C 
HETATM   13  C13 8UH W1621     -41.859 140.951   9.592  1.00 22.20    -0.062 C 
HETATM   14  C14 8UH W1621     -41.385 139.849  10.192  1.00 22.20     0.007 C 
HETATM   15  C15 8UH W1621     -40.673 138.783   9.495  1.00 22.20     0.001 C 
HETATM   16  C16 8UH W1621     -49.735 147.419  10.803  1.00 22.20     0.020 C 
HETATM   17  C17 8UH W1621     -49.369 144.991  10.832  1.00 22.20     0.020 C 
HETATM   18  C18 8UH W1621     -46.131 147.951  13.064  1.00 22.20     0.044 C 
HETATM   19  C19 8UH W1621     -44.996 145.054   8.803  1.00 22.20     0.048 C 
HETATM   20  C20 8UH W1621     -41.713 141.213   8.127  1.00 22.20     0.048 C 
HETATM   21  O3  8UH W1621     -50.459 147.244  14.932  1.00 22.20    -0.395 OA
ATOM     22  H3  8UH W1621     -50.075 147.601  15.724  1.00  0.00     0.210 HD
HETATM   23  C21 8UH W1621     -34.060 128.001   7.071  1.00 26.19    -0.018 C 
HETATM   24  C22 8UH W1621     -33.298 127.279   5.966  1.00 26.65     0.045 C 
HETATM   25  C23 8UH W1621     -32.341 128.106   5.130  1.00 28.07     0.123 C 
HETATM   26  C24 8UH W1621     -31.598 129.113   5.969  1.00 30.07     0.066 C 
HETATM   27  C25 8UH W1621     -32.588 129.976   6.681  1.00 28.83    -0.074 C 
HETATM   28  C26 8UH W1621     -33.602 129.424   7.354  1.00 27.49    -0.048 C 
HETATM   29  C27 8UH W1621     -34.331 130.165   8.414  1.00 29.45     0.009 C 
HETATM   30  C28 8UH W1621     -35.195 131.145   8.141  1.00 27.83     0.007 C 
HETATM   31  C29 8UH W1621     -35.944 131.849   9.184  1.00 22.20    -0.062 C 
HETATM   32  C30 8UH W1621     -36.797 132.800   8.777  1.00 22.20     0.007 C 
HETATM   33  C31 8UH W1621     -37.593 133.630   9.671  1.00 22.20     0.001 C 
HETATM   34  C32 8UH W1621     -38.276 134.650   9.169  1.00 22.20     0.007 C 
HETATM   35  C33 8UH W1621     -39.026 135.574  10.034  1.00 22.20    -0.062 C 
HETATM   36  C34 8UH W1621     -39.539 136.673   9.459  1.00 22.20     0.007 C 
HETATM   37  C35 8UH W1621     -40.263 137.723  10.169  1.00 22.20     0.001 C 
HETATM   38  C36 8UH W1621     -33.887 127.127   8.302  1.00 26.46     0.020 C 
HETATM   39  C37 8UH W1621     -35.532 128.067   6.696  1.00 26.61     0.020 C 
HETATM   40  C38 8UH W1621     -31.821 131.156   7.180  1.00 29.43     0.044 C 
HETATM   41  C39 8UH W1621     -35.741 131.452  10.613  1.00 22.20     0.048 C 
HETATM   42  C40 8UH W1621     -39.120 135.278  11.497  1.00 22.20     0.048 C 
HETATM   43  O23 8UH W1621     -31.396 127.232   4.518  1.00 27.44    -0.395 OA
ATOM     44  H23 8UH W1621     -30.796 127.750   3.994  1.00  0.00     0.210 HD
ENDROOT
TORSDOF 12
