REMARK VINA RESULT:    -8.886      1.801      2.382
REMARK INTER + INTRA:          -9.233
REMARK INTER:                  -5.427
REMARK INTRA:                  -3.806
REMARK UNBOUND:                -0.347
REMARK  0 active torsions:
REMARK  status: ('A' for Active; 'I' for Inactive)
REMARK       I    between atoms: C3_3  and  O3_21 
REMARK       I    between atoms: C6_6  and  C7_7 
REMARK       I    between atoms: C8_8  and  C9_9 
REMARK       I    between atoms: C10_10  and  C11_11 
REMARK       I    between atoms: C12_12  and  C13_13 
REMARK       I    between atoms: C14_14  and  C15_15 
REMARK       I    between atoms: C23_25  and  O23_43 
REMARK       I    between atoms: C26_28  and  C27_29 
REMARK       I    between atoms: C28_30  and  C29_31 
REMARK       I    between atoms: C30_32  and  C31_33 
REMARK       I    between atoms: C32_34  and  C33_35 
REMARK       I    between atoms: C34_36  and  C35_37 
ROOT
HETATM    1  C1  8UH 61620     -50.652 141.470  14.024  1.00 97.95    -0.018 C 
HETATM    2  C2  8UH 61620     -50.686 142.092  15.416  1.00 97.95     0.045 C 
HETATM    3  C3  8UH 61620     -50.074 143.472  15.579  1.00 97.95     0.123 C 
HETATM    4  C4  8UH 61620     -50.323 144.339  14.366  1.00 97.95     0.066 C 
HETATM    5  C5  8UH 61620     -49.787 143.641  13.152  1.00 97.95    -0.074 C 
HETATM    6  C6  8UH 61620     -49.967 142.327  12.976  1.00 97.95    -0.048 C 
HETATM    7  C7  8UH 61620     -49.498 141.662  11.737  1.00 97.95     0.009 C 
HETATM    8  C8  8UH 61620     -48.267 141.163  11.641  1.00 97.95     0.007 C 
HETATM    9  C9  8UH 61620     -47.783 140.487  10.435  1.00 97.95    -0.062 C 
HETATM   10  C10 8UH 61620     -46.566 139.955  10.500  1.00 97.95     0.007 C 
HETATM   11  C11 8UH 61620     -45.944 139.238   9.402  1.00 97.95     0.001 C 
HETATM   12  C12 8UH 61620     -44.728 138.795   9.670  1.00 97.95     0.007 C 
HETATM   13  C13 8UH 61620     -43.921 138.019   8.722  1.00 97.95    -0.062 C 
HETATM   14  C14 8UH 61620     -42.881 137.377   9.251  1.00 97.95     0.007 C 
HETATM   15  C15 8UH 61620     -41.994 136.527   8.480  1.00 97.95     0.001 C 
HETATM   16  C16 8UH 61620     -52.097 141.166  13.640  1.00 97.95     0.020 C 
HETATM   17  C17 8UH 61620     -49.883 140.158  14.113  1.00 97.95     0.020 C 
HETATM   18  C18 8UH 61620     -49.169 144.527  12.111  1.00 97.95     0.044 C 
HETATM   19  C19 8UH 61620     -48.624 140.401   9.199  1.00 97.95     0.048 C 
HETATM   20  C20 8UH 61620     -44.252 137.938   7.263  1.00 97.95     0.048 C 
HETATM   21  O3  8UH 61620     -50.670 144.115  16.712  1.00 97.95    -0.395 OA
ATOM     22  H3  8UH 61620     -50.287 144.979  16.813  1.00  0.00     0.210 HD
HETATM   23  C21 8UH 61620     -34.263 126.949   6.211  1.00 23.68    -0.018 C 
HETATM   24  C22 8UH 61620     -33.879 126.285   4.891  1.00 23.68     0.045 C 
HETATM   25  C23 8UH 61620     -32.949 127.032   3.943  1.00 23.68     0.123 C 
HETATM   26  C24 8UH 61620     -32.036 127.990   4.683  1.00 23.68     0.066 C 
HETATM   27  C25 8UH 61620     -32.883 128.895   5.533  1.00 23.68    -0.074 C 
HETATM   28  C26 8UH 61620     -33.791 128.386   6.368  1.00 23.68    -0.048 C 
HETATM   29  C27 8UH 61620     -34.331 129.197   7.493  1.00 23.68     0.009 C 
HETATM   30  C28 8UH 61620     -35.349 130.052   7.356  1.00 23.68     0.007 C 
HETATM   31  C29 8UH 61620     -35.881 130.844   8.472  1.00 97.95    -0.062 C 
HETATM   32  C30 8UH 61620     -36.908 131.629   8.167  1.00 97.95     0.007 C 
HETATM   33  C31 8UH 61620     -37.608 132.490   9.101  1.00 97.95     0.001 C 
HETATM   34  C32 8UH 61620     -38.581 133.171   8.521  1.00 97.95     0.007 C 
HETATM   35  C33 8UH 61620     -39.443 134.100   9.246  1.00 97.95    -0.062 C 
HETATM   36  C34 8UH 61620     -40.373 134.743   8.540  1.00 97.95     0.007 C 
HETATM   37  C35 8UH 61620     -41.280 135.669   9.192  1.00 97.95     0.001 C 
HETATM   38  C36 8UH 61620     -33.706 126.063   7.311  1.00 23.68     0.020 C 
HETATM   39  C37 8UH 61620     -35.781 126.960   6.313  1.00 23.68     0.020 C 
HETATM   40  C38 8UH 61620     -32.096 130.120   5.887  1.00 23.68     0.044 C 
HETATM   41  C39 8UH 61620     -35.315 130.761   9.857  1.00 97.95     0.048 C 
HETATM   42  C40 8UH 61620     -39.278 134.311  10.718  1.00 97.95     0.048 C 
HETATM   43  O23 8UH 61620     -32.152 126.073   3.246  1.00 23.68    -0.395 OA
ATOM     44  H23 8UH 61620     -31.572 126.538   2.655  1.00  0.00     0.210 HD
ENDROOT
TORSDOF 12
