REMARK VINA RESULT:    -6.354      1.810     16.290
REMARK INTER + INTRA:          -9.394
REMARK INTER:                  -9.097
REMARK INTRA:                  -0.297
REMARK UNBOUND:                -3.040
REMARK  0 active torsions:
REMARK  status: ('A' for Active; 'I' for Inactive)
REMARK       I    between atoms: C3_3  and  O3_21 
REMARK       I    between atoms: C6_6  and  C7_7 
REMARK       I    between atoms: C8_8  and  C9_9 
REMARK       I    between atoms: C10_10  and  C11_11 
REMARK       I    between atoms: C12_12  and  C13_13 
REMARK       I    between atoms: C14_14  and  C15_15 
REMARK       I    between atoms: C23_25  and  O23_43 
REMARK       I    between atoms: C26_28  and  C27_29 
REMARK       I    between atoms: C28_30  and  C29_31 
REMARK       I    between atoms: C30_32  and  C31_33 
REMARK       I    between atoms: C32_34  and  C33_35 
REMARK       I    between atoms: C34_36  and  C35_37 
ROOT
HETATM    1  C1  8UH A 620     -34.213 128.355   6.718  1.00 22.96    -0.018 C 
HETATM    2  C2  8UH A 620     -33.189 127.748   5.732  1.00 23.40     0.045 C 
HETATM    3  C3  8UH A 620     -31.829 128.425   5.573  1.00 22.69     0.123 C 
HETATM    4  C4  8UH A 620     -31.343 129.152   6.825  1.00 22.06     0.066 C 
HETATM    5  C5  8UH A 620     -32.350 129.793   7.721  1.00 21.38    -0.074 C 
HETATM    6  C6  8UH A 620     -33.685 129.447   7.701  1.00 22.58    -0.048 C 
HETATM    7  C7  8UH A 620     -34.655 130.089   8.610  1.00 22.00     0.009 C 
HETATM    8  C8  8UH A 620     -35.214 131.310   8.491  1.00 20.93     0.007 C 
HETATM    9  C9  8UH A 620     -36.065 131.972   9.482  1.00 21.87    -0.062 C 
HETATM   10  C10 8UH A 620     -36.631 133.154   9.146  1.00 20.24     0.007 C 
HETATM   11  C11 8UH A 620     -37.506 133.952   9.968  1.00 21.04     0.001 C 
HETATM   12  C12 8UH A 620     -38.156 135.000   9.440  1.00 22.18     0.007 C 
HETATM   13  C13 8UH A 620     -39.120 135.923  10.056  1.00 24.17    -0.062 C 
HETATM   14  C14 8UH A 620     -39.709 136.825   9.241  1.00 25.88     0.007 C 
HETATM   15  C15 8UH A 620     -40.735 137.783   9.547  1.00 26.51     0.001 C 
HETATM   16  C16 8UH A 620     -34.725 127.135   7.508  1.00 20.65     0.020 C 
HETATM   17  C17 8UH A 620     -35.388 128.901   5.885  1.00 21.73     0.020 C 
HETATM   18  C18 8UH A 620     -31.628 130.778   8.573  1.00 21.05     0.044 C 
HETATM   19  C19 8UH A 620     -36.294 131.263  10.788  1.00 19.19     0.048 C 
HETATM   20  C20 8UH A 620     -39.441 135.756  11.512  1.00 21.80     0.048 C 
HETATM   21  O3  8UH A 620     -30.854 127.485   5.145  1.00 22.00    -0.395 OA
ATOM     22  H3  8UH A 620     -30.008 127.905   5.046  1.00  0.00     0.210 HD
HETATM   23  C21 8UH A 620     -50.351 144.767  10.008  1.00 42.32    -0.018 C 
HETATM   24  C22 8UH A 620     -50.214 143.967  11.300  1.00 42.32     0.045 C 
HETATM   25  C23 8UH A 620     -49.150 144.483  12.262  1.00 42.32     0.123 C 
HETATM   26  C24 8UH A 620     -49.066 145.996  12.193  1.00 42.32     0.066 C 
HETATM   27  C25 8UH A 620     -48.681 146.386  10.792  1.00 42.32    -0.074 C 
HETATM   28  C26 8UH A 620     -49.164 145.673   9.776  1.00 42.32    -0.048 C 
HETATM   29  C27 8UH A 620     -48.355 145.420   8.580  1.00 42.32     0.009 C 
HETATM   30  C28 8UH A 620     -47.500 144.440   8.910  1.00 42.32     0.007 C 
HETATM   31  C29 8UH A 620     -46.509 143.823   7.972  1.00 37.91    -0.062 C 
HETATM   32  C30 8UH A 620     -45.713 142.850   8.466  1.00 37.54     0.007 C 
HETATM   33  C31 8UH A 620     -44.695 142.111   7.764  1.00 35.36     0.001 C 
HETATM   34  C32 8UH A 620     -43.957 141.184   8.408  1.00 32.59     0.007 C 
HETATM   35  C33 8UH A 620     -42.865 140.333   7.912  1.00 30.48    -0.062 C 
HETATM   36  C34 8UH A 620     -42.285 139.490   8.793  1.00 28.06     0.007 C 
HETATM   37  C35 8UH A 620     -41.219 138.559   8.564  1.00 27.79     0.001 C 
HETATM   38  C36 8UH A 620     -51.632 145.586  10.082  1.00 42.32     0.020 C 
HETATM   39  C37 8UH A 620     -50.428 143.806   8.830  1.00 42.32     0.020 C 
HETATM   40  C38 8UH A 620     -47.336 147.053  10.779  1.00 42.32     0.044 C 
HETATM   41  C39 8UH A 620     -46.448 144.316   6.556  1.00 38.40     0.048 C 
HETATM   42  C40 8UH A 620     -42.469 140.462   6.464  1.00 28.72     0.048 C 
HETATM   43  O23 8UH A 620     -49.496 144.105  13.599  1.00 42.32    -0.395 OA
ATOM     44  H23 8UH A 620     -48.832 144.426  14.199  1.00  0.00     0.210 HD
ENDROOT
TORSDOF 12
