REMARK VINA RESULT:   -12.060      0.000      0.000
REMARK INTER + INTRA:         -12.382
REMARK INTER:                 -12.060
REMARK INTRA:                  -0.322
REMARK UNBOUND:                -0.322
REMARK  0 active torsions:
REMARK  status: ('A' for Active; 'I' for Inactive)
REMARK       I    between atoms: C3_3  and  O3_21 
REMARK       I    between atoms: C6_6  and  C7_7 
REMARK       I    between atoms: C8_8  and  C9_9 
REMARK       I    between atoms: C10_10  and  C11_11 
REMARK       I    between atoms: C12_12  and  C13_13 
REMARK       I    between atoms: C14_14  and  C15_15 
REMARK       I    between atoms: C23_25  and  O23_43 
REMARK       I    between atoms: C26_28  and  C27_29 
REMARK       I    between atoms: C28_30  and  C29_31 
REMARK       I    between atoms: C30_32  and  C31_33 
REMARK       I    between atoms: C32_34  and  C33_35 
REMARK       I    between atoms: C34_36  and  C35_37 
ROOT
HETATM    1  C1  8UH N1620     -49.593 144.693  12.325  1.00 57.79    -0.018 C 
HETATM    2  C2  8UH N1620     -50.529 145.314  13.347  1.00 59.26     0.045 C 
HETATM    3  C3  8UH N1620     -49.818 145.823  14.580  1.00 62.25     0.123 C 
HETATM    4  C4  8UH N1620     -48.829 146.885  14.172  1.00 57.83     0.066 C 
HETATM    5  C5  8UH N1620     -47.907 146.392  13.093  1.00 54.66    -0.074 C 
HETATM    6  C6  8UH N1620     -48.243 145.400  12.238  1.00 55.29    -0.048 C 
HETATM    7  C7  8UH N1620     -47.313 145.006  11.147  1.00 55.61     0.009 C 
HETATM    8  C8  8UH N1620     -46.322 144.131  11.321  1.00 56.19     0.007 C 
HETATM    9  C9  8UH N1620     -45.409 143.737  10.250  1.00 61.49    -0.062 C 
HETATM   10  C10 8UH N1620     -44.528 142.796  10.576  1.00 57.47     0.007 C 
HETATM   11  C11 8UH N1620     -43.539 142.245   9.675  1.00 53.29     0.001 C 
HETATM   12  C12 8UH N1620     -42.861 141.242  10.199  1.00 52.45     0.007 C 
HETATM   13  C13 8UH N1620     -41.840 140.521   9.445  1.00 52.04    -0.062 C 
HETATM   14  C14 8UH N1620     -41.407 139.379   9.976  1.00 54.29     0.007 C 
HETATM   15  C15 8UH N1620     -40.426 138.534   9.327  1.00 53.12     0.001 C 
HETATM   16  C16 8UH N1620     -50.370 144.683  11.012  1.00 58.39     0.020 C 
HETATM   17  C17 8UH N1620     -49.322 143.251  12.723  1.00 64.45     0.020 C 
HETATM   18  C18 8UH N1620     -46.602 147.133  13.046  1.00 58.11     0.044 C 
HETATM   19  C19 8UH N1620     -45.462 144.378   8.894  1.00 70.55     0.048 C 
HETATM   20  C20 8UH N1620     -41.338 141.045   8.138  1.00 53.04     0.048 C 
HETATM   21  O3  8UH N1620     -50.764 146.413  15.474  1.00 65.91    -0.395 OA
ATOM     22  H3  8UH N1620     -50.317 146.733  16.249  1.00  0.00     0.210 HD
HETATM   23  C21 8UH N1620     -34.088 127.897   6.908  1.00 26.19    -0.018 C 
HETATM   24  C22 8UH N1620     -33.371 127.202   5.757  1.00 26.65     0.045 C 
HETATM   25  C23 8UH N1620     -32.298 127.990   5.031  1.00 28.07     0.123 C 
HETATM   26  C24 8UH N1620     -31.481 128.824   5.984  1.00 30.07     0.066 C 
HETATM   27  C25 8UH N1620     -32.396 129.722   6.751  1.00 28.83    -0.074 C 
HETATM   28  C26 8UH N1620     -33.490 129.227   7.340  1.00 27.49    -0.048 C 
HETATM   29  C27 8UH N1620     -34.173 129.943   8.446  1.00 29.45     0.009 C 
HETATM   30  C28 8UH N1620     -34.912 131.036   8.245  1.00 27.83     0.007 C 
HETATM   31  C29 8UH N1620     -35.619 131.719   9.328  1.00 71.47    -0.062 C 
HETATM   32  C30 8UH N1620     -36.467 132.670   8.947  1.00 69.97     0.007 C 
HETATM   33  C31 8UH N1620     -37.295 133.457   9.840  1.00 65.68     0.001 C 
HETATM   34  C32 8UH N1620     -37.929 134.449   9.243  1.00 62.75     0.007 C 
HETATM   35  C33 8UH N1620     -38.843 135.346   9.953  1.00 61.08    -0.062 C 
HETATM   36  C34 8UH N1620     -39.267 136.429   9.301  1.00 59.90     0.007 C 
HETATM   37  C35 8UH N1620     -40.206 137.360   9.898  1.00 55.64     0.001 C 
HETATM   38  C36 8UH N1620     -34.057 126.898   8.050  1.00 26.46     0.020 C 
HETATM   39  C37 8UH N1620     -35.531 128.163   6.501  1.00 26.61     0.020 C 
HETATM   40  C38 8UH N1620     -31.524 130.756   7.384  1.00 29.43     0.044 C 
HETATM   41  C39 8UH N1620     -35.404 131.362  10.766  1.00 74.91     0.048 C 
HETATM   42  C40 8UH N1620     -39.293 135.026  11.345  1.00 55.73     0.048 C 
HETATM   43  O23 8UH N1620     -31.433 127.078   4.359  1.00 27.44    -0.395 OA
ATOM     44  H23 8UH N1620     -30.761 127.572   3.904  1.00  0.00     0.210 HD
ENDROOT
TORSDOF 12
