REMARK VINA RESULT:   -10.584      0.000      0.000
REMARK INTER + INTRA:         -13.387
REMARK INTER:                 -10.584
REMARK INTRA:                  -2.803
REMARK UNBOUND:                -2.803
REMARK  0 active torsions:
REMARK  status: ('A' for Active; 'I' for Inactive)
REMARK       I    between atoms: C3_3  and  O3_21 
REMARK       I    between atoms: C6_6  and  C7_7 
REMARK       I    between atoms: C8_8  and  C9_9 
REMARK       I    between atoms: C10_10  and  C11_11 
REMARK       I    between atoms: C12_12  and  C13_13 
REMARK       I    between atoms: C14_14  and  C15_15 
REMARK       I    between atoms: C23_25  and  O23_43 
REMARK       I    between atoms: C26_28  and  C27_29 
REMARK       I    between atoms: C28_30  and  C29_31 
REMARK       I    between atoms: C30_32  and  C31_33 
REMARK       I    between atoms: C32_34  and  C33_35 
REMARK       I    between atoms: C34_36  and  C35_37 
ROOT
HETATM    1  C1  8UH X1620     -33.752 129.190   7.106  1.00 33.88    -0.022 C 
HETATM    2  C2  8UH X1620     -32.980 129.915   6.014  1.00 33.88     0.045 C 
HETATM    3  C3  8UH X1620     -32.133 131.071   6.503  1.00 33.88     0.119 C 
HETATM    4  C4  8UH X1620     -31.208 130.526   7.569  1.00 33.88     0.040 C 
HETATM    5  C5  8UH X1620     -32.025 129.979   8.711  1.00 33.88     0.013 C 
HETATM    6  C6  8UH X1620     -33.297 129.624   8.500  1.00 33.88    -0.068 C 
HETATM    7  C7  8UH X1620     -34.336 129.946   9.487  1.00 33.88     0.004 C 
HETATM    8  C8  8UH X1620     -34.891 131.112   9.129  1.00 33.88     0.007 C 
HETATM    9  C9  8UH X1620     -35.942 131.797   9.926  1.00 33.88    -0.062 C 
HETATM   10  C10 8UH X1620     -36.398 132.973   9.431  1.00 33.88     0.007 C 
HETATM   11  C11 8UH X1620     -37.450 133.764  10.057  1.00 33.88     0.001 C 
HETATM   12  C12 8UH X1620     -37.883 134.878   9.486  1.00 33.88     0.007 C 
HETATM   13  C13 8UH X1620     -38.997 135.645  10.071  1.00 33.88    -0.062 C 
HETATM   14  C14 8UH X1620     -39.457 136.665   9.328  1.00 33.88     0.007 C 
HETATM   15  C15 8UH X1620     -40.595 137.515   9.678  1.00 33.88     0.001 C 
HETATM   16  C16 8UH X1620     -33.607 127.706   6.777  1.00 33.88     0.019 C 
HETATM   17  C17 8UH X1620     -35.216 129.592   6.945  1.00 33.88     0.019 C 
HETATM   18  C18 8UH X1620     -31.607 130.948   9.786  1.00 33.88     0.015 C 
HETATM   19  C19 8UH X1620     -36.467 131.180  11.204  1.00 33.88     0.048 C 
HETATM   20  C20 8UH X1620     -39.603 135.207  11.378  1.00 33.88     0.048 C 
HETATM   21  O3  8UH X1620     -31.379 131.541   5.382  1.00 33.88    -0.396 OA
ATOM     22  H3  8UH X1620     -30.848 132.267   5.689  1.00  0.00     0.210 HD
HETATM   23  C21 8UH X1620     -50.510 145.320   8.692  1.00 23.68    -0.018 C 
HETATM   24  C22 8UH X1620     -51.665 145.618   9.643  1.00 23.68     0.045 C 
HETATM   25  C23 8UH X1620     -51.407 146.519  10.845  1.00 23.68     0.123 C 
HETATM   26  C24 8UH X1620     -50.274 147.494  10.588  1.00 23.68     0.066 C 
HETATM   27  C25 8UH X1620     -49.066 146.717  10.146  1.00 23.68    -0.074 C 
HETATM   28  C26 8UH X1620     -49.155 145.839   9.144  1.00 23.68    -0.048 C 
HETATM   29  C27 8UH X1620     -47.935 145.381   8.425  1.00 23.68     0.009 C 
HETATM   30  C28 8UH X1620     -47.164 144.380   8.860  1.00 23.68     0.007 C 
HETATM   31  C29 8UH X1620     -45.952 143.916   8.138  1.00 33.88    -0.062 C 
HETATM   32  C30 8UH X1620     -45.356 142.827   8.669  1.00 33.88     0.007 C 
HETATM   33  C31 8UH X1620     -44.173 142.151   8.129  1.00 33.88     0.001 C 
HETATM   34  C32 8UH X1620     -43.705 141.081   8.779  1.00 33.88     0.007 C 
HETATM   35  C33 8UH X1620     -42.521 140.322   8.316  1.00 33.88    -0.062 C 
HETATM   36  C34 8UH X1620     -42.097 139.312   9.103  1.00 33.88     0.007 C 
HETATM   37  C35 8UH X1620     -40.950 138.455   8.805  1.00 33.88     0.001 C 
HETATM   38  C36 8UH X1620     -50.903 145.907   7.348  1.00 23.68     0.020 C 
HETATM   39  C37 8UH X1620     -50.391 143.811   8.549  1.00 23.68     0.020 C 
HETATM   40  C38 8UH X1620     -47.841 147.554  10.346  1.00 23.68     0.044 C 
HETATM   41  C39 8UH X1620     -45.489 144.600   6.873  1.00 33.88     0.048 C 
HETATM   42  C40 8UH X1620     -41.891 140.680   6.996  1.00 33.88     0.048 C 
HETATM   43  O23 8UH X1620     -52.600 147.253  11.122  1.00 23.68    -0.395 OA
ATOM     44  H23 8UH X1620     -52.439 147.814  11.872  1.00  0.00     0.210 HD
ENDROOT
TORSDOF 12
