REMARK VINA RESULT:   -11.099      0.000      0.000
REMARK INTER + INTRA:         -13.937
REMARK INTER:                 -11.099
REMARK INTRA:                  -2.838
REMARK UNBOUND:                -2.838
REMARK  0 active torsions:
REMARK  status: ('A' for Active; 'I' for Inactive)
REMARK       I    between atoms: C3_3  and  O3_21 
REMARK       I    between atoms: C6_6  and  C7_7 
REMARK       I    between atoms: C8_8  and  C9_9 
REMARK       I    between atoms: C10_10  and  C11_11 
REMARK       I    between atoms: C12_12  and  C13_13 
REMARK       I    between atoms: C14_14  and  C15_15 
REMARK       I    between atoms: C23_25  and  O23_43 
REMARK       I    between atoms: C26_28  and  C27_29 
REMARK       I    between atoms: C28_30  and  C29_31 
REMARK       I    between atoms: C30_32  and  C31_33 
REMARK       I    between atoms: C32_34  and  C33_35 
REMARK       I    between atoms: C34_36  and  C35_37 
ROOT
HETATM    1  C1  8UH Y1621     -47.946 145.144  12.558  1.00 37.60    -0.018 C 
HETATM    2  C2  8UH Y1621     -48.834 145.774  13.617  1.00 37.60     0.045 C 
HETATM    3  C3  8UH Y1621     -48.126 146.508  14.731  1.00 37.60     0.123 C 
HETATM    4  C4  8UH Y1621     -47.125 147.467  14.140  1.00 37.60     0.066 C 
HETATM    5  C5  8UH Y1621     -46.193 146.800  13.175  1.00 37.60    -0.074 C 
HETATM    6  C6  8UH Y1621     -46.583 145.785  12.390  1.00 37.60    -0.048 C 
HETATM    7  C7  8UH Y1621     -45.712 145.280  11.294  1.00 37.60     0.009 C 
HETATM    8  C8  8UH Y1621     -44.716 144.409  11.485  1.00 37.60     0.007 C 
HETATM    9  C9  8UH Y1621     -43.881 143.918  10.386  1.00 37.60    -0.062 C 
HETATM   10  C10 8UH Y1621     -43.316 142.724  10.559  1.00 37.60     0.007 C 
HETATM   11  C11 8UH Y1621     -42.472 142.050   9.589  1.00 37.60     0.001 C 
HETATM   12  C12 8UH Y1621     -42.143 140.823   9.960  1.00 37.60     0.007 C 
HETATM   13  C13 8UH Y1621     -41.333 139.872   9.195  1.00 37.60    -0.062 C 
HETATM   14  C14 8UH Y1621     -40.979 138.733   9.796  1.00 37.60     0.007 C 
HETATM   15  C15 8UH Y1621     -40.211 137.730   9.079  1.00 37.60     0.001 C 
HETATM   16  C16 8UH Y1621     -48.762 145.143  11.274  1.00 37.60     0.020 C 
HETATM   17  C17 8UH Y1621     -47.682 143.709  12.945  1.00 37.60     0.020 C 
HETATM   18  C18 8UH Y1621     -44.934 147.577  12.943  1.00 37.60     0.044 C 
HETATM   19  C19 8UH Y1621     -43.678 144.719   9.144  1.00 37.60     0.048 C 
HETATM   20  C20 8UH Y1621     -40.937 140.157   7.782  1.00 37.60     0.048 C 
HETATM   21  O3  8UH Y1621     -49.090 147.290  15.434  1.00 37.60    -0.395 OA
ATOM     22  H3  8UH Y1621     -48.644 147.752  16.135  1.00  0.00     0.210 HD
HETATM   23  C21 8UH Y1621     -34.407 126.804   6.373  1.00 90.34    -0.018 C 
HETATM   24  C22 8UH Y1621     -34.044 126.113   5.063  1.00 90.34     0.045 C 
HETATM   25  C23 8UH Y1621     -33.101 126.837   4.116  1.00 90.34     0.123 C 
HETATM   26  C24 8UH Y1621     -32.096 127.681   4.872  1.00 90.34     0.066 C 
HETATM   27  C25 8UH Y1621     -32.862 128.629   5.747  1.00 90.34    -0.074 C 
HETATM   28  C26 8UH Y1621     -33.807 128.180   6.570  1.00 90.34    -0.048 C 
HETATM   29  C27 8UH Y1621     -34.293 128.993   7.713  1.00 90.34     0.009 C 
HETATM   30  C28 8UH Y1621     -35.189 129.966   7.534  1.00 90.34     0.007 C 
HETATM   31  C29 8UH Y1621     -35.727 130.778   8.614  1.00 37.60    -0.062 C 
HETATM   32  C30 8UH Y1621     -36.777 131.545   8.333  1.00 37.60     0.007 C 
HETATM   33  C31 8UH Y1621     -37.443 132.417   9.283  1.00 37.60     0.001 C 
HETATM   34  C32 8UH Y1621     -37.878 133.554   8.765  1.00 37.60     0.007 C 
HETATM   35  C33 8UH Y1621     -38.585 134.558   9.559  1.00 37.60    -0.062 C 
HETATM   36  C34 8UH Y1621     -38.975 135.688   8.971  1.00 37.60     0.007 C 
HETATM   37  C35 8UH Y1621     -39.707 136.693   9.725  1.00 37.60     0.001 C 
HETATM   38  C36 8UH Y1621     -33.992 125.858   7.494  1.00 90.34     0.020 C 
HETATM   39  C37 8UH Y1621     -35.912 126.985   6.408  1.00 90.34     0.020 C 
HETATM   40  C38 8UH Y1621     -31.961 129.764   6.120  1.00 90.34     0.044 C 
HETATM   41  C39 8UH Y1621     -35.110 130.737   9.973  1.00 37.60     0.048 C 
HETATM   42  C40 8UH Y1621     -38.879 134.293  10.996  1.00 37.60     0.048 C 
HETATM   43  O23 8UH Y1621     -32.388 125.854   3.366  1.00 90.34    -0.395 OA
ATOM     44  H23 8UH Y1621     -31.798 126.307   2.774  1.00  0.00     0.210 HD
ENDROOT
TORSDOF 12
