REMARK VINA RESULT:    -7.334      1.706      2.381
REMARK INTER + INTRA:          -7.581
REMARK INTER:                  -3.861
REMARK INTRA:                  -3.720
REMARK UNBOUND:                -0.246
REMARK  0 active torsions:
REMARK  status: ('A' for Active; 'I' for Inactive)
REMARK       I    between atoms: C3_3  and  O3_21 
REMARK       I    between atoms: C6_6  and  C7_7 
REMARK       I    between atoms: C8_8  and  C9_9 
REMARK       I    between atoms: C10_10  and  C11_11 
REMARK       I    between atoms: C12_12  and  C13_13 
REMARK       I    between atoms: C14_14  and  C15_15 
REMARK       I    between atoms: C23_25  and  O23_43 
REMARK       I    between atoms: C26_28  and  C27_29 
REMARK       I    between atoms: C28_30  and  C29_31 
REMARK       I    between atoms: C30_32  and  C31_33 
REMARK       I    between atoms: C32_34  and  C33_35 
REMARK       I    between atoms: C34_36  and  C35_37 
ROOT
HETATM    1  C1  8UH 5 620     -50.384 146.038   8.282  1.00 42.32    -0.018 C 
HETATM    2  C2  8UH 5 620     -51.011 144.657   8.443  1.00 42.32     0.045 C 
HETATM    3  C3  8UH 5 620     -51.262 144.232   9.885  1.00 42.32     0.123 C 
HETATM    4  C4  8UH 5 620     -51.639 145.434  10.731  1.00 42.32     0.066 C 
HETATM    5  C5  8UH 5 620     -50.494 146.409  10.706  1.00 42.32    -0.074 C 
HETATM    6  C6  8UH 5 620     -49.798 146.548   9.578  1.00 42.32    -0.048 C 
HETATM    7  C7  8UH 5 620     -48.352 146.787   9.609  1.00 42.32     0.009 C 
HETATM    8  C8  8UH 5 620     -47.784 145.597   9.858  1.00 42.32     0.007 C 
HETATM    9  C9  8UH 5 620     -46.316 145.383   9.922  1.00 42.32    -0.062 C 
HETATM   10  C10 8UH 5 620     -45.883 144.114  10.070  1.00 42.32     0.007 C 
HETATM   11  C11 8UH 5 620     -44.473 143.723  10.084  1.00 42.32     0.001 C 
HETATM   12  C12 8UH 5 620     -44.155 142.435  10.097  1.00 42.32     0.007 C 
HETATM   13  C13 8UH 5 620     -42.754 141.985  10.023  1.00 42.32    -0.062 C 
HETATM   14  C14 8UH 5 620     -42.579 140.668   9.850  1.00 42.32     0.007 C 
HETATM   15  C15 8UH 5 620     -41.306 139.978   9.689  1.00 42.32     0.001 C 
HETATM   16  C16 8UH 5 620     -51.453 146.997   7.776  1.00 42.32     0.020 C 
HETATM   17  C17 8UH 5 620     -49.251 145.959   7.270  1.00 42.32     0.020 C 
HETATM   18  C18 8UH 5 620     -49.902 146.565  12.077  1.00 42.32     0.044 C 
HETATM   19  C19 8UH 5 620     -45.367 146.545   9.806  1.00 42.32     0.048 C 
HETATM   20  C20 8UH 5 620     -41.628 142.975  10.080  1.00 42.32     0.048 C 
HETATM   21  O3  8UH 5 620     -52.340 143.291   9.923  1.00 42.32    -0.395 OA
ATOM     22  H3  8UH 5 620     -52.104 142.539   9.393  1.00  0.00     0.210 HD
HETATM   23  C21 8UH 5 620     -33.572 130.513   6.886  1.00 16.14    -0.018 C 
HETATM   24  C22 8UH 5 620     -32.056 130.364   6.768  1.00 16.14     0.045 C 
HETATM   25  C23 8UH 5 620     -31.250 130.578   8.037  1.00 16.14     0.123 C 
HETATM   26  C24 8UH 5 620     -31.930 129.918   9.212  1.00 16.14     0.066 C 
HETATM   27  C25 8UH 5 620     -33.288 130.533   9.367  1.00 16.14    -0.074 C 
HETATM   28  C26 8UH 5 620     -34.088 130.685   8.304  1.00 16.14    -0.048 C 
HETATM   29  C27 8UH 5 620     -35.521 130.997   8.513  1.00 16.14     0.009 C 
HETATM   30  C28 8UH 5 620     -35.988 132.237   8.691  1.00 16.14     0.007 C 
HETATM   31  C29 8UH 5 620     -37.423 132.489   8.904  1.00 42.32    -0.062 C 
HETATM   32  C30 8UH 5 620     -37.718 133.793   8.906  1.00 42.32     0.007 C 
HETATM   33  C31 8UH 5 620     -39.040 134.376   9.055  1.00 42.32     0.001 C 
HETATM   34  C32 8UH 5 620     -39.086 135.702   9.036  1.00 42.32     0.007 C 
HETATM   35  C33 8UH 5 620     -40.329 136.465   9.190  1.00 42.32    -0.062 C 
HETATM   36  C34 8UH 5 620     -40.232 137.805   9.312  1.00 42.32     0.007 C 
HETATM   37  C35 8UH 5 620     -41.394 138.668   9.497  1.00 42.32     0.001 C 
HETATM   38  C36 8UH 5 620     -34.195 129.296   6.211  1.00 16.14     0.020 C 
HETATM   39  C37 8UH 5 620     -33.990 131.757   6.119  1.00 16.14     0.020 C 
HETATM   40  C38 8UH 5 620     -33.813 130.391  10.765  1.00 16.14     0.044 C 
HETATM   41  C39 8UH 5 620     -38.423 131.376   9.009  1.00 42.32     0.048 C 
HETATM   42  C40 8UH 5 620     -41.614 135.694   9.206  1.00 42.32     0.048 C 
HETATM   43  O23 8UH 5 620     -29.953 130.000   7.877  1.00 16.14    -0.395 OA
ATOM     44  H23 8UH 5 620     -29.449 130.134   8.671  1.00  0.00     0.210 HD
ENDROOT
TORSDOF 12
