REMARK VINA RESULT:   -10.671      0.000      0.000
REMARK INTER + INTRA:         -13.504
REMARK INTER:                 -10.671
REMARK INTRA:                  -2.833
REMARK UNBOUND:                -2.833
REMARK  0 active torsions:
REMARK  status: ('A' for Active; 'I' for Inactive)
REMARK       I    between atoms: C3_3  and  O3_21 
REMARK       I    between atoms: C6_6  and  C7_7 
REMARK       I    between atoms: C8_8  and  C9_9 
REMARK       I    between atoms: C10_10  and  C11_11 
REMARK       I    between atoms: C12_12  and  C13_13 
REMARK       I    between atoms: C14_14  and  C15_15 
REMARK       I    between atoms: C23_25  and  O23_43 
REMARK       I    between atoms: C26_28  and  C27_29 
REMARK       I    between atoms: C28_30  and  C29_31 
REMARK       I    between atoms: C30_32  and  C31_33 
REMARK       I    between atoms: C32_34  and  C33_35 
REMARK       I    between atoms: C34_36  and  C35_37 
ROOT
HETATM    1  C1  8UH J9621     -47.631 146.364  12.830  1.00 21.11    -0.018 C 
HETATM    2  C2  8UH J9621     -48.336 146.831  14.115  1.00 20.11     0.045 C 
HETATM    3  C3  8UH J9621     -47.700 147.918  14.981  1.00 19.41     0.123 C 
HETATM    4  C4  8UH J9621     -46.311 148.403  14.542  1.00 18.39     0.066 C 
HETATM    5  C5  8UH J9621     -45.553 147.737  13.443  1.00 18.34    -0.074 C 
HETATM    6  C6  8UH J9621     -46.131 146.800  12.618  1.00 19.81    -0.048 C 
HETATM    7  C7  8UH J9621     -45.460 146.135  11.479  1.00 19.02     0.009 C 
HETATM    8  C8  8UH J9621     -44.627 145.081  11.582  1.00 17.97     0.007 C 
HETATM    9  C9  8UH J9621     -43.931 144.375  10.501  1.00 18.85    -0.062 C 
HETATM   10  C10 8UH J9621     -43.243 143.257  10.830  1.00 18.38     0.007 C 
HETATM   11  C11 8UH J9621     -42.556 142.355   9.935  1.00 18.57     0.001 C 
HETATM   12  C12 8UH J9621     -41.970 141.220  10.373  1.00 17.11     0.007 C 
HETATM   13  C13 8UH J9621     -41.315 140.178   9.568  1.00 20.42    -0.062 C 
HETATM   14  C14 8UH J9621     -40.821 139.096  10.211  1.00 20.50     0.007 C 
HETATM   15  C15 8UH J9621     -40.188 137.947   9.608  1.00 20.22     0.001 C 
HETATM   16  C16 8UH J9621     -48.529 146.920  11.696  1.00 19.56     0.020 C 
HETATM   17  C17 8UH J9621     -47.757 144.826  12.826  1.00 18.49     0.020 C 
HETATM   18  C18 8UH J9621     -44.191 148.324  13.379  1.00 16.89     0.044 C 
HETATM   19  C19 8UH J9621     -44.097 144.900   9.103  1.00 14.61     0.048 C 
HETATM   20  C20 8UH J9621     -41.265 140.363   8.068  1.00 17.59     0.048 C 
HETATM   21  O3  8UH J9621     -48.584 149.018  15.112  1.00 18.27    -0.395 OA
ATOM     22  H3  8UH J9621     -48.189 149.694  15.650  1.00  0.00     0.210 HD
HETATM   23  C21 8UH J9621     -34.262 126.868   6.424  1.00 23.07    -0.018 C 
HETATM   24  C22 8UH J9621     -33.817 126.220   5.100  1.00 21.39     0.045 C 
HETATM   25  C23 8UH J9621     -32.996 127.065   4.134  1.00 23.10     0.123 C 
HETATM   26  C24 8UH J9621     -32.134 128.140   4.803  1.00 23.25     0.066 C 
HETATM   27  C25 8UH J9621     -32.701 128.849   5.990  1.00 22.57    -0.074 C 
HETATM   28  C26 8UH J9621     -33.688 128.282   6.763  1.00 22.63    -0.048 C 
HETATM   29  C27 8UH J9621     -34.244 128.978   7.933  1.00 23.01     0.009 C 
HETATM   30  C28 8UH J9621     -35.146 129.977   7.900  1.00 21.85     0.007 C 
HETATM   31  C29 8UH J9621     -35.638 130.779   9.029  1.00 19.55    -0.062 C 
HETATM   32  C30 8UH J9621     -36.517 131.777   8.787  1.00 17.66     0.007 C 
HETATM   33  C31 8UH J9621     -37.094 132.667   9.766  1.00 19.12     0.001 C 
HETATM   34  C32 8UH J9621     -37.836 133.744   9.420  1.00 19.40     0.007 C 
HETATM   35  C33 8UH J9621     -38.464 134.765  10.280  1.00 19.31    -0.062 C 
HETATM   36  C34 8UH J9621     -39.074 135.807   9.676  1.00 17.72     0.007 C 
HETATM   37  C35 8UH J9621     -39.697 136.931  10.318  1.00 19.92     0.001 C 
HETATM   38  C36 8UH J9621     -33.796 125.850   7.481  1.00 21.40     0.020 C 
HETATM   39  C37 8UH J9621     -35.807 126.897   6.431  1.00 21.74     0.020 C 
HETATM   40  C38 8UH J9621     -32.008 130.158   6.135  1.00 21.99     0.044 C 
HETATM   41  C39 8UH J9621     -35.067 130.478  10.389  1.00 18.53     0.048 C 
HETATM   42  C40 8UH J9621     -38.323 134.612  11.771  1.00 15.86     0.048 C 
HETATM   43  O23 8UH J9621     -32.191 126.235   3.317  1.00 24.94    -0.395 OA
ATOM     44  H23 8UH J9621     -31.679 126.762   2.715  1.00  0.00     0.210 HD
ENDROOT
TORSDOF 12
