REMARK VINA RESULT:    -7.046      0.814      1.309
REMARK INTER + INTRA:          -9.821
REMARK INTER:                  -9.920
REMARK INTRA:                   0.099
REMARK UNBOUND:                -2.775
REMARK  0 active torsions:
REMARK  status: ('A' for Active; 'I' for Inactive)
REMARK       I    between atoms: C3_3  and  O3_21 
REMARK       I    between atoms: C6_6  and  C7_7 
REMARK       I    between atoms: C8_8  and  C9_9 
REMARK       I    between atoms: C10_10  and  C11_11 
REMARK       I    between atoms: C12_12  and  C13_13 
REMARK       I    between atoms: C14_14  and  C15_15 
REMARK       I    between atoms: C23_25  and  O23_43 
REMARK       I    between atoms: C26_28  and  C27_29 
REMARK       I    between atoms: C28_30  and  C29_31 
REMARK       I    between atoms: C30_32  and  C31_33 
REMARK       I    between atoms: C32_34  and  C33_35 
REMARK       I    between atoms: C34_36  and  C35_37 
ROOT
HETATM    1  C1  8UH 61620     -34.545 128.829   6.969  1.00 97.95    -0.018 C 
HETATM    2  C2  8UH 61620     -33.596 128.636   5.791  1.00 97.95     0.045 C 
HETATM    3  C3  8UH 61620     -32.229 129.292   5.880  1.00 97.95     0.123 C 
HETATM    4  C4  8UH 61620     -31.686 129.259   7.291  1.00 97.95     0.066 C 
HETATM    5  C5  8UH 61620     -32.673 129.919   8.206  1.00 97.95    -0.074 C 
HETATM    6  C6  8UH 61620     -33.987 129.696   8.082  1.00 97.95    -0.048 C 
HETATM    7  C7  8UH 61620     -34.946 130.295   9.041  1.00 97.95     0.009 C 
HETATM    8  C8  8UH 61620     -35.475 131.500   8.831  1.00 97.95     0.007 C 
HETATM    9  C9  8UH 61620     -36.436 132.108   9.752  1.00 97.95    -0.062 C 
HETATM   10  C10 8UH 61620     -36.956 133.275   9.382  1.00 97.95     0.007 C 
HETATM   11  C11 8UH 61620     -37.934 134.004  10.170  1.00 97.95     0.001 C 
HETATM   12  C12 8UH 61620     -38.318 135.146   9.628  1.00 97.95     0.007 C 
HETATM   13  C13 8UH 61620     -39.318 136.035  10.230  1.00 97.95    -0.062 C 
HETATM   14  C14 8UH 61620     -39.827 136.956   9.414  1.00 97.95     0.007 C 
HETATM   15  C15 8UH 61620     -40.856 137.894   9.817  1.00 97.95     0.001 C 
HETATM   16  C16 8UH 61620     -34.909 127.437   7.475  1.00 97.95     0.020 C 
HETATM   17  C17 8UH 61620     -35.807 129.508   6.453  1.00 97.95     0.020 C 
HETATM   18  C18 8UH 61620     -32.084 130.720   9.329  1.00 97.95     0.044 C 
HETATM   19  C19 8UH 61620     -36.812 131.442  11.040  1.00 97.95     0.048 C 
HETATM   20  C20 8UH 61620     -39.752 135.903  11.657  1.00 97.95     0.048 C 
HETATM   21  O3  8UH 61620     -31.315 128.581   5.038  1.00 97.95    -0.395 OA
ATOM     22  H3  8UH 61620     -30.460 128.992   5.094  1.00  0.00     0.210 HD
HETATM   23  C21 8UH 61620     -50.822 145.367   8.447  1.00 37.79    -0.018 C 
HETATM   24  C22 8UH 61620     -51.896 146.140   9.192  1.00 37.79     0.045 C 
HETATM   25  C23 8UH 61620     -51.449 146.875  10.434  1.00 37.79     0.123 C 
HETATM   26  C24 8UH 61620     -50.231 147.700  10.114  1.00 37.79     0.066 C 
HETATM   27  C25 8UH 61620     -49.145 146.893   9.472  1.00 37.79    -0.074 C 
HETATM   28  C26 8UH 61620     -49.406 145.870   8.646  1.00 37.79    -0.048 C 
HETATM   29  C27 8UH 61620     -48.325 145.221   7.857  1.00 37.79     0.009 C 
HETATM   30  C28 8UH 61620     -47.515 144.276   8.349  1.00 37.79     0.007 C 
HETATM   31  C29 8UH 61620     -46.467 143.643   7.548  1.00 97.95    -0.062 C 
HETATM   32  C30 8UH 61620     -45.764 142.710   8.182  1.00 97.95     0.007 C 
HETATM   33  C31 8UH 61620     -44.687 141.935   7.598  1.00 97.95     0.001 C 
HETATM   34  C32 8UH 61620     -44.154 141.089   8.462  1.00 97.95     0.007 C 
HETATM   35  C33 8UH 61620     -43.060 140.184   8.119  1.00 97.95    -0.062 C 
HETATM   36  C34 8UH 61620     -42.597 139.395   9.088  1.00 97.95     0.007 C 
HETATM   37  C35 8UH 61620     -41.522 138.458   8.821  1.00 97.95     0.001 C 
HETATM   38  C36 8UH 61620     -51.250 145.357   6.987  1.00 37.79     0.020 C 
HETATM   39  C37 8UH 61620     -50.827 143.940   8.945  1.00 37.79     0.020 C 
HETATM   40  C38 8UH 61620     -47.797 147.539   9.574  1.00 37.79     0.044 C 
HETATM   41  C39 8UH 61620     -46.212 144.008   6.117  1.00 97.95     0.048 C 
HETATM   42  C40 8UH 61620     -42.493 140.157   6.735  1.00 97.95     0.048 C 
HETATM   43  O23 8UH 61620     -52.483 147.785  10.809  1.00 37.79    -0.395 OA
ATOM     44  H23 8UH 61620     -52.202 148.247  11.590  1.00  0.00     0.210 HD
ENDROOT
TORSDOF 12
