REMARK VINA RESULT:   -10.752      0.000      0.000
REMARK INTER + INTRA:         -11.207
REMARK INTER:                 -10.752
REMARK INTRA:                  -0.456
REMARK UNBOUND:                -0.456
REMARK  0 active torsions:
REMARK  status: ('A' for Active; 'I' for Inactive)
REMARK       I    between atoms: C3_3  and  O3_21 
REMARK       I    between atoms: C6_6  and  C7_7 
REMARK       I    between atoms: C8_8  and  C9_9 
REMARK       I    between atoms: C10_10  and  C11_11 
REMARK       I    between atoms: C12_12  and  C13_13 
REMARK       I    between atoms: C14_14  and  C15_15 
REMARK       I    between atoms: C23_25  and  O23_43 
REMARK       I    between atoms: C26_28  and  C27_29 
REMARK       I    between atoms: C28_30  and  C29_31 
REMARK       I    between atoms: C30_32  and  C31_33 
REMARK       I    between atoms: C32_34  and  C33_35 
REMARK       I    between atoms: C34_36  and  C35_37 
ROOT
HETATM    1  C1  8UH F5620     -34.180 128.149   6.753  1.00 19.30    -0.018 C 
HETATM    2  C2  8UH F5620     -33.334 127.659   5.562  1.00 17.68     0.045 C 
HETATM    3  C3  8UH F5620     -31.980 128.312   5.305  1.00 17.79     0.123 C 
HETATM    4  C4  8UH F5620     -31.363 129.037   6.502  1.00 18.50     0.066 C 
HETATM    5  C5  8UH F5620     -32.267 129.680   7.502  1.00 19.40    -0.074 C 
HETATM    6  C6  8UH F5620     -33.584 129.289   7.640  1.00 19.02    -0.048 C 
HETATM    7  C7  8UH F5620     -34.481 129.932   8.612  1.00 18.60     0.009 C 
HETATM    8  C8  8UH F5620     -35.084 131.132   8.483  1.00 18.09     0.007 C 
HETATM    9  C9  8UH F5620     -35.883 131.833   9.494  1.00 18.23    -0.062 C 
HETATM   10  C10 8UH F5620     -36.489 132.984   9.128  1.00 15.81     0.007 C 
HETATM   11  C11 8UH F5620     -37.326 133.813   9.949  1.00 18.00     0.001 C 
HETATM   12  C12 8UH F5620     -38.004 134.830   9.392  1.00 18.12     0.007 C 
HETATM   13  C13 8UH F5620     -38.941 135.762  10.005  1.00 18.88    -0.062 C 
HETATM   14  C14 8UH F5620     -39.573 136.630   9.186  1.00 21.10     0.007 C 
HETATM   15  C15 8UH F5620     -40.597 137.582   9.527  1.00 24.06     0.001 C 
HETATM   16  C16 8UH F5620     -34.370 126.878   7.599  1.00 17.17     0.020 C 
HETATM   17  C17 8UH F5620     -35.560 128.557   6.190  1.00 16.95     0.020 C 
HETATM   18  C18 8UH F5620     -31.504 130.736   8.235  1.00 19.80     0.044 C 
HETATM   19  C19 8UH F5620     -36.014 131.194  10.858  1.00 17.09     0.048 C 
HETATM   20  C20 8UH F5620     -39.193 135.647  11.477  1.00 16.35     0.048 C 
HETATM   21  O3  8UH F5620     -31.067 127.359   4.793  1.00 17.38    -0.395 OA
ATOM     22  H3  8UH F5620     -30.224 127.766   4.633  1.00  0.00     0.210 HD
HETATM   23  C21 8UH F5620     -50.713 145.080   9.764  1.00 15.23    -0.018 C 
HETATM   24  C22 8UH F5620     -51.516 144.404  10.858  1.00 15.23     0.045 C 
HETATM   25  C23 8UH F5620     -50.735 144.080  12.104  1.00 15.23     0.123 C 
HETATM   26  C24 8UH F5620     -49.940 145.297  12.475  1.00 15.23     0.066 C 
HETATM   27  C25 8UH F5620     -48.958 145.628  11.395  1.00 15.23    -0.074 C 
HETATM   28  C26 8UH F5620     -49.288 145.417  10.119  1.00 15.23    -0.048 C 
HETATM   29  C27 8UH F5620     -48.272 145.202   9.084  1.00 15.23     0.009 C 
HETATM   30  C28 8UH F5620     -47.436 144.211   9.404  1.00 15.23     0.007 C 
HETATM   31  C29 8UH F5620     -46.437 143.646   8.445  1.00 26.61    -0.062 C 
HETATM   32  C30 8UH F5620     -45.658 142.644   8.904  1.00 25.24     0.007 C 
HETATM   33  C31 8UH F5620     -44.672 141.915   8.162  1.00 26.40     0.001 C 
HETATM   34  C32 8UH F5620     -43.919 140.961   8.742  1.00 26.29     0.007 C 
HETATM   35  C33 8UH F5620     -42.865 140.137   8.141  1.00 26.99    -0.062 C 
HETATM   36  C34 8UH F5620     -42.219 139.265   8.946  1.00 26.65     0.007 C 
HETATM   37  C35 8UH F5620     -41.158 138.363   8.598  1.00 25.43     0.001 C 
HETATM   38  C36 8UH F5620     -51.374 146.423   9.517  1.00 15.23     0.020 C 
HETATM   39  C37 8UH F5620     -50.773 144.205   8.525  1.00 15.23     0.020 C 
HETATM   40  C38 8UH F5620     -47.558 145.858  11.882  1.00 15.23     0.044 C 
HETATM   41  C39 8UH F5620     -46.348 144.211   7.049  1.00 26.87     0.048 C 
HETATM   42  C40 8UH F5620     -42.563 140.336   6.685  1.00 24.17     0.048 C 
HETATM   43  O23 8UH F5620     -51.638 143.833  13.175  1.00 15.23    -0.395 OA
ATOM     44  H23 8UH F5620     -52.142 143.063  12.941  1.00  0.00     0.210 HD
ENDROOT
TORSDOF 12
