REMARK VINA RESULT:   -10.241      0.000      0.000
REMARK INTER + INTRA:         -13.550
REMARK INTER:                 -10.241
REMARK INTRA:                  -3.310
REMARK UNBOUND:                -3.310
REMARK  0 active torsions:
REMARK  status: ('A' for Active; 'I' for Inactive)
REMARK       I    between atoms: C3_3  and  O3_21 
REMARK       I    between atoms: C6_6  and  C7_7 
REMARK       I    between atoms: C8_8  and  C9_9 
REMARK       I    between atoms: C10_10  and  C11_11 
REMARK       I    between atoms: C12_12  and  C13_13 
REMARK       I    between atoms: C14_14  and  C15_15 
REMARK       I    between atoms: C23_25  and  O23_43 
REMARK       I    between atoms: C26_28  and  C27_29 
REMARK       I    between atoms: C28_30  and  C29_31 
REMARK       I    between atoms: C30_32  and  C31_33 
REMARK       I    between atoms: C32_34  and  C33_35 
REMARK       I    between atoms: C34_36  and  C35_37 
ROOT
HETATM    1  C1  8UH 5 624     -34.393 126.926   6.146  1.00 23.68    -0.018 C 
HETATM    2  C2  8UH 5 624     -33.984 126.299   4.816  1.00 23.68     0.045 C 
HETATM    3  C3  8UH 5 624     -32.809 126.901   4.057  1.00 23.68     0.123 C 
HETATM    4  C4  8UH 5 624     -31.824 127.584   4.987  1.00 23.68     0.066 C 
HETATM    5  C5  8UH 5 624     -32.574 128.581   5.825  1.00 23.68    -0.074 C 
HETATM    6  C6  8UH 5 624     -33.666 128.213   6.500  1.00 23.68    -0.048 C 
HETATM    7  C7  8UH 5 624     -34.170 129.033   7.635  1.00 23.68     0.009 C 
HETATM    8  C8  8UH 5 624     -34.969 130.092   7.473  1.00 23.68     0.007 C 
HETATM    9  C9  8UH 5 624     -35.477 130.902   8.607  1.00 23.68    -0.062 C 
HETATM   10  C10 8UH 5 624     -36.367 131.869   8.336  1.00 23.68     0.007 C 
HETATM   11  C11 8UH 5 624     -37.013 132.769   9.292  1.00 23.68     0.001 C 
HETATM   12  C12 8UH 5 624     -37.985 133.509   8.753  1.00 23.68     0.007 C 
HETATM   13  C13 8UH 5 624     -38.870 134.496   9.404  1.00 23.68    -0.062 C 
HETATM   14  C14 8UH 5 624     -39.657 135.237   8.605  1.00 23.68     0.007 C 
HETATM   15  C15 8UH 5 624     -40.613 136.217   9.114  1.00 23.68     0.001 C 
HETATM   16  C16 8UH 5 624     -34.173 125.861   7.206  1.00 23.68     0.020 C 
HETATM   17  C17 8UH 5 624     -35.878 127.251   6.081  1.00 23.68     0.020 C 
HETATM   18  C18 8UH 5 624     -31.608 129.580   6.385  1.00 23.68     0.044 C 
HETATM   19  C19 8UH 5 624     -35.017 130.652  10.009  1.00 23.68     0.048 C 
HETATM   20  C20 8UH 5 624     -38.916 134.653  10.892  1.00 23.68     0.048 C 
HETATM   21  O3  8UH 5 624     -32.138 125.850   3.359  1.00 23.68    -0.395 OA
ATOM     22  H3  8UH 5 624     -31.405 126.226   2.886  1.00  0.00     0.210 HD
HETATM   23  C21 8UH 5 624     -50.102 144.742  10.369  1.00 32.96    -0.018 C 
HETATM   24  C22 8UH 5 624     -51.251 143.972  11.019  1.00 32.96     0.045 C 
HETATM   25  C23 8UH 5 624     -50.945 143.349  12.376  1.00 32.96     0.123 C 
HETATM   26  C24 8UH 5 624     -49.833 144.108  13.068  1.00 32.96     0.066 C 
HETATM   27  C25 8UH 5 624     -48.617 144.033  12.192  1.00 32.96    -0.074 C 
HETATM   28  C26 8UH 5 624     -48.742 144.384  10.909  1.00 32.96    -0.048 C 
HETATM   29  C27 8UH 5 624     -47.657 144.187   9.938  1.00 32.96     0.009 C 
HETATM   30  C28 8UH 5 624     -47.131 142.962   9.995  1.00 32.96     0.007 C 
HETATM   31  C29 8UH 5 624     -46.177 142.474   8.976  1.00 23.68    -0.062 C 
HETATM   32  C30 8UH 5 624     -45.644 141.271   9.218  1.00 23.68     0.007 C 
HETATM   33  C31 8UH 5 624     -44.702 140.578   8.350  1.00 23.68     0.001 C 
HETATM   34  C32 8UH 5 624     -43.861 139.734   8.934  1.00 23.68     0.007 C 
HETATM   35  C33 8UH 5 624     -42.873 138.936   8.195  1.00 23.68    -0.062 C 
HETATM   36  C34 8UH 5 624     -42.200 137.997   8.880  1.00 23.68     0.007 C 
HETATM   37  C35 8UH 5 624     -41.219 137.083   8.300  1.00 23.68     0.001 C 
HETATM   38  C36 8UH 5 624     -50.275 146.227  10.661  1.00 32.96     0.020 C 
HETATM   39  C37 8UH 5 624     -50.110 144.516   8.864  1.00 32.96     0.020 C 
HETATM   40  C38 8UH 5 624     -47.293 143.857  12.893  1.00 32.96     0.044 C 
HETATM   41  C39 8UH 5 624     -45.839 143.264   7.749  1.00 23.68     0.048 C 
HETATM   42  C40 8UH 5 624     -42.653 139.179   6.734  1.00 23.68     0.048 C 
HETATM   43  O23 8UH 5 624     -52.110 143.406  13.204  1.00 32.96    -0.395 OA
ATOM     44  H23 8UH 5 624     -52.809 142.929  12.770  1.00  0.00     0.210 HD
ENDROOT
TORSDOF 12
