REMARK VINA RESULT:   -11.266      0.000      0.000
REMARK INTER + INTRA:         -13.785
REMARK INTER:                 -11.266
REMARK INTRA:                  -2.519
REMARK UNBOUND:                -2.519
REMARK  0 active torsions:
REMARK  status: ('A' for Active; 'I' for Inactive)
REMARK       I    between atoms: C3_3  and  O3_21 
REMARK       I    between atoms: C6_6  and  C7_7 
REMARK       I    between atoms: C8_8  and  C9_9 
REMARK       I    between atoms: C10_10  and  C11_11 
REMARK       I    between atoms: C12_12  and  C13_13 
REMARK       I    between atoms: C14_14  and  C15_15 
REMARK       I    between atoms: C23_25  and  O23_43 
REMARK       I    between atoms: C26_28  and  C27_29 
REMARK       I    between atoms: C28_30  and  C29_31 
REMARK       I    between atoms: C30_32  and  C31_33 
REMARK       I    between atoms: C32_34  and  C33_35 
REMARK       I    between atoms: C34_36  and  C35_37 
ROOT
HETATM    1  C1  8UH Y1620     -34.259 127.296   6.644  1.00 33.25    -0.018 C 
HETATM    2  C2  8UH Y1620     -33.826 126.971   5.222  1.00 33.25     0.045 C 
HETATM    3  C3  8UH Y1620     -32.613 127.706   4.681  1.00 33.25     0.123 C 
HETATM    4  C4  8UH Y1620     -31.596 127.946   5.759  1.00 33.25     0.066 C 
HETATM    5  C5  8UH Y1620     -32.216 128.703   6.879  1.00 33.25    -0.074 C 
HETATM    6  C6  8UH Y1620     -33.441 128.396   7.300  1.00 33.25    -0.048 C 
HETATM    7  C7  8UH Y1620     -34.016 129.134   8.439  1.00 33.25     0.009 C 
HETATM    8  C8  8UH Y1620     -34.771 130.197   8.215  1.00 33.25     0.007 C 
HETATM    9  C9  8UH Y1620     -35.383 130.977   9.282  1.00 33.25    -0.062 C 
HETATM   10  C10 8UH Y1620     -35.926 132.120   8.882  1.00 33.25     0.007 C 
HETATM   11  C11 8UH Y1620     -36.616 133.061   9.728  1.00 33.25     0.001 C 
HETATM   12  C12 8UH Y1620     -37.346 133.897   9.021  1.00 33.25     0.007 C 
HETATM   13  C13 8UH Y1620     -38.186 134.911   9.635  1.00 33.25    -0.062 C 
HETATM   14  C14 8UH Y1620     -38.933 135.644   8.822  1.00 33.25     0.007 C 
HETATM   15  C15 8UH Y1620     -39.846 136.629   9.357  1.00 33.25     0.001 C 
HETATM   16  C16 8UH Y1620     -34.219 125.986   7.425  1.00 33.25     0.020 C 
HETATM   17  C17 8UH Y1620     -35.700 127.767   6.575  1.00 33.25     0.020 C 
HETATM   18  C18 8UH Y1620     -31.353 129.746   7.516  1.00 33.25     0.044 C 
HETATM   19  C19 8UH Y1620     -35.374 130.507  10.701  1.00 33.25     0.048 C 
HETATM   20  C20 8UH Y1620     -38.222 135.075  11.116  1.00 33.25     0.048 C 
HETATM   21  O3  8UH Y1620     -31.980 126.902   3.688  1.00 33.25    -0.395 OA
ATOM     22  H3  8UH Y1620     -31.221 127.362   3.350  1.00  0.00     0.210 HD
HETATM   23  C21 8UH Y1620     -49.784 143.981   9.921  1.00 97.95    -0.018 C 
HETATM   24  C22 8UH Y1620     -50.507 144.409  11.193  1.00 97.95     0.045 C 
HETATM   25  C23 8UH Y1620     -49.810 145.425  12.083  1.00 97.95     0.123 C 
HETATM   26  C24 8UH Y1620     -49.051 146.450  11.271  1.00 97.95     0.066 C 
HETATM   27  C25 8UH Y1620     -48.076 145.740  10.381  1.00 97.95    -0.074 C 
HETATM   28  C26 8UH Y1620     -48.421 144.622   9.733  1.00 97.95    -0.048 C 
HETATM   29  C27 8UH Y1620     -47.472 143.970   8.798  1.00 97.95     0.009 C 
HETATM   30  C28 8UH Y1620     -46.603 143.053   9.221  1.00 97.95     0.007 C 
HETATM   31  C29 8UH Y1620     -45.676 142.391   8.316  1.00 33.25    -0.062 C 
HETATM   32  C30 8UH Y1620     -45.080 141.306   8.788  1.00 33.25     0.007 C 
HETATM   33  C31 8UH Y1620     -44.139 140.517   8.026  1.00 33.25     0.001 C 
HETATM   34  C32 8UH Y1620     -43.367 139.754   8.768  1.00 33.25     0.007 C 
HETATM   35  C33 8UH Y1620     -42.379 138.865   8.173  1.00 33.25    -0.062 C 
HETATM   36  C34 8UH Y1620     -41.650 138.134   9.005  1.00 33.25     0.007 C 
HETATM   37  C35 8UH Y1620     -40.681 137.185   8.505  1.00 33.25     0.001 C 
HETATM   38  C36 8UH Y1620     -50.715 144.295   8.755  1.00 97.95     0.020 C 
HETATM   39  C37 8UH Y1620     -49.571 142.473   9.984  1.00 97.95     0.020 C 
HETATM   40  C38 8UH Y1620     -46.762 146.432  10.171  1.00 97.95     0.044 C 
HETATM   41  C39 8UH Y1620     -45.404 142.913   6.941  1.00 33.25     0.048 C 
HETATM   42  C40 8UH Y1620     -42.228 138.770   6.691  1.00 33.25     0.048 C 
HETATM   43  O23 8UH Y1620     -50.795 146.116  12.860  1.00 97.95    -0.395 OA
ATOM     44  H23 8UH Y1620     -50.359 146.751  13.416  1.00  0.00     0.210 HD
ENDROOT
TORSDOF 12
