REMARK VINA RESULT:   -10.328      1.005      1.414
REMARK INTER + INTRA:         -12.467
REMARK INTER:                 -10.179
REMARK INTRA:                  -2.288
REMARK UNBOUND:                -2.138
REMARK  0 active torsions:
REMARK  status: ('A' for Active; 'I' for Inactive)
REMARK       I    between atoms: C3_3  and  O3_21 
REMARK       I    between atoms: C6_6  and  C7_7 
REMARK       I    between atoms: C8_8  and  C9_9 
REMARK       I    between atoms: C10_10  and  C11_11 
REMARK       I    between atoms: C12_12  and  C13_13 
REMARK       I    between atoms: C14_14  and  C15_15 
REMARK       I    between atoms: C23_25  and  O23_43 
REMARK       I    between atoms: C26_28  and  C27_29 
REMARK       I    between atoms: C28_30  and  C29_31 
REMARK       I    between atoms: C30_32  and  C31_33 
REMARK       I    between atoms: C32_34  and  C33_35 
REMARK       I    between atoms: C34_36  and  C35_37 
ROOT
HETATM    1  C1  8UH Z 619     -34.483 127.000   6.393  1.00 43.24    -0.018 C 
HETATM    2  C2  8UH Z 619     -34.145 126.476   4.995  1.00 43.24     0.045 C 
HETATM    3  C3  8UH Z 619     -32.986 127.122   4.239  1.00 43.24     0.123 C 
HETATM    4  C4  8UH Z 619     -31.935 127.696   5.169  1.00 43.24     0.066 C 
HETATM    5  C5  8UH Z 619     -32.605 128.627   6.139  1.00 43.24    -0.074 C 
HETATM    6  C6  8UH Z 619     -33.710 128.249   6.793  1.00 43.24    -0.048 C 
HETATM    7  C7  8UH Z 619     -34.174 129.066   7.943  1.00 43.24     0.009 C 
HETATM    8  C8  8UH Z 619     -35.038 130.068   7.768  1.00 43.24     0.007 C 
HETATM    9  C9  8UH Z 619     -35.522 130.928   8.859  1.00 43.24    -0.062 C 
HETATM   10  C10 8UH Z 619     -36.357 131.914   8.518  1.00 43.24     0.007 C 
HETATM   11  C11 8UH Z 619     -36.910 132.873   9.461  1.00 43.24     0.001 C 
HETATM   12  C12 8UH Z 619     -37.605 133.865   8.919  1.00 43.24     0.007 C 
HETATM   13  C13 8UH Z 619     -38.216 134.928   9.725  1.00 43.24    -0.062 C 
HETATM   14  C14 8UH Z 619     -39.059 135.783   9.129  1.00 43.24     0.007 C 
HETATM   15  C15 8UH Z 619     -39.680 136.866   9.877  1.00 43.24     0.001 C 
HETATM   16  C16 8UH Z 619     -34.242 125.850   7.367  1.00 43.24     0.020 C 
HETATM   17  C17 8UH Z 619     -35.964 127.347   6.438  1.00 43.24     0.020 C 
HETATM   18  C18 8UH Z 619     -31.676 129.675   6.686  1.00 43.24     0.044 C 
HETATM   19  C19 8UH Z 619     -35.086 130.724  10.278  1.00 43.24     0.048 C 
HETATM   20  C20 8UH Z 619     -37.880 135.057  11.181  1.00 43.24     0.048 C 
HETATM   21  O3  8UH Z 619     -32.361 126.133   3.414  1.00 43.24    -0.395 OA
ATOM     22  H3  8UH Z 619     -33.020 125.773   2.832  1.00  0.00     0.210 HD
HETATM   23  C21 8UH Z 619     -47.519 146.539  12.336  1.00 51.52    -0.018 C 
HETATM   24  C22 8UH Z 619     -47.850 147.458  13.503  1.00 51.52     0.045 C 
HETATM   25  C23 8UH Z 619     -46.822 148.509  13.857  1.00 51.52     0.123 C 
HETATM   26  C24 8UH Z 619     -46.241 149.102  12.595  1.00 51.52     0.066 C 
HETATM   27  C25 8UH Z 619     -45.598 148.012  11.791  1.00 51.52    -0.074 C 
HETATM   28  C26 8UH Z 619     -46.221 146.845  11.611  1.00 51.52    -0.048 C 
HETATM   29  C27 8UH Z 619     -45.694 145.796  10.699  1.00 51.52     0.009 C 
HETATM   30  C28 8UH Z 619     -44.759 144.923  11.081  1.00 51.52     0.007 C 
HETATM   31  C29 8UH Z 619     -44.262 143.859  10.223  1.00 43.24    -0.062 C 
HETATM   32  C30 8UH Z 619     -43.681 142.775  10.753  1.00 43.24     0.007 C 
HETATM   33  C31 8UH Z 619     -43.179 141.707   9.896  1.00 43.24     0.001 C 
HETATM   34  C32 8UH Z 619     -42.572 140.657  10.437  1.00 43.24     0.007 C 
HETATM   35  C33 8UH Z 619     -42.051 139.584   9.575  1.00 43.24    -0.062 C 
HETATM   36  C34 8UH Z 619     -41.115 138.769  10.072  1.00 43.24     0.007 C 
HETATM   37  C35 8UH Z 619     -40.534 137.691   9.283  1.00 43.24     0.001 C 
HETATM   38  C36 8UH Z 619     -48.703 146.558  11.382  1.00 51.52     0.020 C 
HETATM   39  C37 8UH Z 619     -47.405 145.138  12.891  1.00 51.52     0.020 C 
HETATM   40  C38 8UH Z 619     -44.403 148.426  10.992  1.00 51.52     0.044 C 
HETATM   41  C39 8UH Z 619     -44.410 144.000   8.734  1.00 43.24     0.048 C 
HETATM   42  C40 8UH Z 619     -42.563 139.414   8.174  1.00 43.24     0.048 C 
HETATM   43  O23 8UH Z 619     -47.467 149.558  14.584  1.00 51.52    -0.395 OA
ATOM     44  H23 8UH Z 619     -46.821 150.219  14.806  1.00  0.00     0.210 HD
ENDROOT
TORSDOF 12
