REMARK VINA RESULT:   -10.260      0.000      0.000
REMARK INTER + INTRA:         -11.587
REMARK INTER:                 -10.260
REMARK INTRA:                  -1.327
REMARK UNBOUND:                -1.327
REMARK  0 active torsions:
REMARK  status: ('A' for Active; 'I' for Inactive)
REMARK       I    between atoms: C3_3  and  O3_21 
REMARK       I    between atoms: C6_6  and  C7_7 
REMARK       I    between atoms: C8_8  and  C9_9 
REMARK       I    between atoms: C10_10  and  C11_11 
REMARK       I    between atoms: C12_12  and  C13_13 
REMARK       I    between atoms: C14_14  and  C15_15 
REMARK       I    between atoms: C23_25  and  O23_43 
REMARK       I    between atoms: C26_28  and  C27_29 
REMARK       I    between atoms: C28_30  and  C29_31 
REMARK       I    between atoms: C30_32  and  C31_33 
REMARK       I    between atoms: C32_34  and  C33_35 
REMARK       I    between atoms: C34_36  and  C35_37 
ROOT
HETATM    1  C1  8UH 31620     -34.297 128.723   6.658  1.00 70.34    -0.018 C 
HETATM    2  C2  8UH 31620     -33.406 128.518   5.449  1.00 70.34     0.045 C 
HETATM    3  C3  8UH 31620     -31.931 128.288   5.730  1.00 70.34     0.123 C 
HETATM    4  C4  8UH 31620     -31.375 129.233   6.779  1.00 70.34     0.066 C 
HETATM    5  C5  8UH 31620     -32.336 129.734   7.817  1.00 70.34    -0.074 C 
HETATM    6  C6  8UH 31620     -33.660 129.577   7.730  1.00 70.34    -0.048 C 
HETATM    7  C7  8UH 31620     -34.563 130.208   8.722  1.00 70.34     0.009 C 
HETATM    8  C8  8UH 31620     -35.132 131.392   8.522  1.00 70.34     0.007 C 
HETATM    9  C9  8UH 31620     -36.040 131.990   9.500  1.00 70.34    -0.062 C 
HETATM   10  C10 8UH 31620     -36.515 133.191   9.187  1.00 70.34     0.007 C 
HETATM   11  C11 8UH 31620     -37.446 133.956   9.988  1.00 70.34     0.001 C 
HETATM   12  C12 8UH 31620     -38.067 134.882   9.277  1.00 70.34     0.007 C 
HETATM   13  C13 8UH 31620     -39.077 135.793   9.816  1.00 70.34    -0.062 C 
HETATM   14  C14 8UH 31620     -39.639 136.630   8.952  1.00 70.34     0.007 C 
HETATM   15  C15 8UH 31620     -40.667 137.572   9.352  1.00 70.34     0.001 C 
HETATM   16  C16 8UH 31620     -34.703 127.360   7.202  1.00 70.34     0.020 C 
HETATM   17  C17 8UH 31620     -35.538 129.454   6.159  1.00 70.34     0.020 C 
HETATM   18  C18 8UH 31620     -31.709 130.700   8.780  1.00 70.34     0.044 C 
HETATM   19  C19 8UH 31620     -36.407 131.264  10.753  1.00 70.34     0.048 C 
HETATM   20  C20 8UH 31620     -39.460 135.778  11.263  1.00 70.34     0.048 C 
HETATM   21  O3  8UH 31620     -31.675 126.933   6.103  1.00 70.34    -0.395 OA
ATOM     22  H3  8UH 31620     -32.023 126.341   5.446  1.00  0.00     0.210 HD
HETATM   23  C21 8UH 31620     -50.401 145.039   9.599  1.00 51.40    -0.018 C 
HETATM   24  C22 8UH 31620     -51.197 145.488  10.816  1.00 51.40     0.045 C 
HETATM   25  C23 8UH 31620     -50.755 146.728  11.581  1.00 51.40     0.123 C 
HETATM   26  C24 8UH 31620     -49.780 147.588  10.807  1.00 51.40     0.066 C 
HETATM   27  C25 8UH 31620     -48.702 146.727  10.234  1.00 51.40    -0.074 C 
HETATM   28  C26 8UH 31620     -49.032 145.673   9.498  1.00 51.40    -0.048 C 
HETATM   29  C27 8UH 31620     -48.074 145.099   8.536  1.00 51.40     0.009 C 
HETATM   30  C28 8UH 31620     -47.120 144.280   8.954  1.00 51.40     0.007 C 
HETATM   31  C29 8UH 31620     -46.172 143.669   8.019  1.00 70.34    -0.062 C 
HETATM   32  C30 8UH 31620     -45.408 142.706   8.521  1.00 70.34     0.007 C 
HETATM   33  C31 8UH 31620     -44.411 141.970   7.766  1.00 70.34     0.001 C 
HETATM   34  C32 8UH 31620     -43.791 141.055   8.492  1.00 70.34     0.007 C 
HETATM   35  C33 8UH 31620     -42.744 140.174   7.974  1.00 70.34    -0.062 C 
HETATM   36  C34 8UH 31620     -42.260 139.258   8.810  1.00 70.34     0.007 C 
HETATM   37  C35 8UH 31620     -41.223 138.326   8.414  1.00 70.34     0.001 C 
HETATM   38  C36 8UH 31620     -51.252 145.297   8.362  1.00 51.40     0.020 C 
HETATM   39  C37 8UH 31620     -50.189 143.540   9.710  1.00 51.40     0.020 C 
HETATM   40  C38 8UH 31620     -47.602 147.668   9.851  1.00 51.40     0.044 C 
HETATM   41  C39 8UH 31620     -46.075 144.102   6.589  1.00 70.34     0.048 C 
HETATM   42  C40 8UH 31620     -42.243 140.313   6.575  1.00 70.34     0.048 C 
HETATM   43  O23 8UH 31620     -51.907 147.531  11.845  1.00 51.40    -0.395 OA
ATOM     44  H23 8UH 31620     -52.519 146.991  12.331  1.00  0.00     0.210 HD
ENDROOT
TORSDOF 12
