REMARK VINA RESULT:    -7.968      1.753      2.332
REMARK INTER + INTRA:          -9.937
REMARK INTER:                  -7.321
REMARK INTRA:                  -2.616
REMARK UNBOUND:                -1.970
REMARK  0 active torsions:
REMARK  status: ('A' for Active; 'I' for Inactive)
REMARK       I    between atoms: C3_3  and  O3_21 
REMARK       I    between atoms: C6_6  and  C7_7 
REMARK       I    between atoms: C8_8  and  C9_9 
REMARK       I    between atoms: C10_10  and  C11_11 
REMARK       I    between atoms: C12_12  and  C13_13 
REMARK       I    between atoms: C14_14  and  C15_15 
REMARK       I    between atoms: C23_25  and  O23_43 
REMARK       I    between atoms: C26_28  and  C27_29 
REMARK       I    between atoms: C28_30  and  C29_31 
REMARK       I    between atoms: C30_32  and  C31_33 
REMARK       I    between atoms: C32_34  and  C33_35 
REMARK       I    between atoms: C34_36  and  C35_37 
ROOT
HETATM    1  C1  8UH Z 617     -49.741 144.207   9.534  1.00 32.73    -0.018 C 
HETATM    2  C2  8UH Z 617     -51.123 144.705   9.910  1.00 32.73     0.045 C 
HETATM    3  C3  8UH Z 617     -51.237 144.953  11.395  1.00 32.73     0.123 C 
HETATM    4  C4  8UH Z 617     -50.271 146.044  11.795  1.00 32.73     0.066 C 
HETATM    5  C5  8UH Z 617     -48.883 145.817  11.252  1.00 32.73    -0.074 C 
HETATM    6  C6  8UH Z 617     -48.623 144.996  10.211  1.00 32.73    -0.048 C 
HETATM    7  C7  8UH Z 617     -47.239 144.896   9.665  1.00 32.73     0.009 C 
HETATM    8  C8  8UH Z 617     -46.308 144.060  10.148  1.00 32.73     0.007 C 
HETATM    9  C9  8UH Z 617     -44.946 143.958   9.607  1.00 32.73    -0.062 C 
HETATM   10  C10 8UH Z 617     -44.299 142.823   9.878  1.00 32.73     0.007 C 
HETATM   11  C11 8UH Z 617     -42.955 142.485   9.437  1.00 32.73     0.001 C 
HETATM   12  C12 8UH Z 617     -42.606 141.254   9.786  1.00 32.73     0.007 C 
HETATM   13  C13 8UH Z 617     -41.337 140.600   9.458  1.00 32.73    -0.062 C 
HETATM   14  C14 8UH Z 617     -41.233 139.319   9.821  1.00 32.73     0.007 C 
HETATM   15  C15 8UH Z 617     -40.070 138.500   9.536  1.00 32.73     0.001 C 
HETATM   16  C16 8UH Z 617     -49.702 144.227   8.009  1.00 32.73     0.020 C 
HETATM   17  C17 8UH Z 617     -49.591 142.764   9.984  1.00 32.73     0.020 C 
HETATM   18  C18 8UH Z 617     -47.825 146.647  11.922  1.00 32.73     0.044 C 
HETATM   19  C19 8UH Z 617     -44.322 145.074   8.825  1.00 32.73     0.048 C 
HETATM   20  C20 8UH Z 617     -40.236 141.311   8.729  1.00 32.73     0.048 C 
HETATM   21  O3  8UH Z 617     -52.564 145.375  11.714  1.00 32.73    -0.395 OA
ATOM     22  H3  8UH Z 617     -52.635 145.532  12.649  1.00  0.00     0.210 HD
HETATM   23  C21 8UH Z 617     -33.311 129.271   6.867  1.00 42.32    -0.018 C 
HETATM   24  C22 8UH Z 617     -33.012 130.399   5.885  1.00 42.32     0.045 C 
HETATM   25  C23 8UH Z 617     -32.147 131.522   6.448  1.00 42.32     0.123 C 
HETATM   26  C24 8UH Z 617     -31.134 130.967   7.432  1.00 42.32     0.066 C 
HETATM   27  C25 8UH Z 617     -31.880 130.316   8.565  1.00 42.32    -0.074 C 
HETATM   28  C26 8UH Z 617     -33.011 129.665   8.293  1.00 42.32    -0.048 C 
HETATM   29  C27 8UH Z 617     -34.136 129.687   9.232  1.00 42.32     0.009 C 
HETATM   30  C28 8UH Z 617     -34.736 130.876   9.063  1.00 42.32     0.007 C 
HETATM   31  C29 8UH Z 617     -35.949 131.277   9.788  1.00 32.73    -0.062 C 
HETATM   32  C30 8UH Z 617     -36.571 132.354   9.315  1.00 32.73     0.007 C 
HETATM   33  C31 8UH Z 617     -37.791 132.930   9.852  1.00 32.73     0.001 C 
HETATM   34  C32 8UH Z 617     -37.955 134.198   9.510  1.00 32.73     0.007 C 
HETATM   35  C33 8UH Z 617     -39.096 135.030   9.901  1.00 32.73    -0.062 C 
HETATM   36  C34 8UH Z 617     -39.122 136.282   9.436  1.00 32.73     0.007 C 
HETATM   37  C35 8UH Z 617     -40.213 137.196   9.732  1.00 32.73     0.001 C 
HETATM   38  C36 8UH Z 617     -32.481 128.056   6.472  1.00 42.32     0.020 C 
HETATM   39  C37 8UH Z 617     -34.790 128.922   6.793  1.00 42.32     0.020 C 
HETATM   40  C38 8UH Z 617     -31.622 131.042   9.853  1.00 42.32     0.044 C 
HETATM   41  C39 8UH Z 617     -36.454 130.519  10.977  1.00 32.73     0.048 C 
HETATM   42  C40 8UH Z 617     -40.175 134.493  10.791  1.00 32.73     0.048 C 
HETATM   43  O23 8UH Z 617     -31.443 132.161   5.378  1.00 42.32    -0.395 OA
ATOM     44  H23 8UH Z 617     -30.905 132.861   5.728  1.00  0.00     0.210 HD
ENDROOT
TORSDOF 12
