REMARK VINA RESULT:   -10.847      0.000      0.000
REMARK INTER + INTRA:         -12.711
REMARK INTER:                 -10.847
REMARK INTRA:                  -1.864
REMARK UNBOUND:                -1.864
REMARK  0 active torsions:
REMARK  status: ('A' for Active; 'I' for Inactive)
REMARK       I    between atoms: C3_3  and  O3_21 
REMARK       I    between atoms: C6_6  and  C7_7 
REMARK       I    between atoms: C8_8  and  C9_9 
REMARK       I    between atoms: C10_10  and  C11_11 
REMARK       I    between atoms: C12_12  and  C13_13 
REMARK       I    between atoms: C14_14  and  C15_15 
REMARK       I    between atoms: C23_25  and  O23_43 
REMARK       I    between atoms: C26_28  and  C27_29 
REMARK       I    between atoms: C28_30  and  C29_31 
REMARK       I    between atoms: C30_32  and  C31_33 
REMARK       I    between atoms: C32_34  and  C33_35 
REMARK       I    between atoms: C34_36  and  C35_37 
ROOT
HETATM    1  C1  8UH Y1621     -47.976 146.125  12.581  1.00 30.42    -0.018 C 
HETATM    2  C2  8UH Y1621     -48.483 146.173  14.026  1.00 30.42     0.045 C 
HETATM    3  C3  8UH Y1621     -47.622 146.917  15.039  1.00 30.42     0.123 C 
HETATM    4  C4  8UH Y1621     -46.641 147.863  14.360  1.00 30.42     0.066 C 
HETATM    5  C5  8UH Y1621     -45.850 147.039  13.388  1.00 30.42    -0.074 C 
HETATM    6  C6  8UH Y1621     -46.495 146.400  12.414  1.00 30.42    -0.048 C 
HETATM    7  C7  8UH Y1621     -45.797 145.779  11.269  1.00 30.42     0.009 C 
HETATM    8  C8  8UH Y1621     -44.571 145.278  11.448  1.00 30.42     0.007 C 
HETATM    9  C9  8UH Y1621     -43.982 144.453  10.370  1.00 30.42    -0.062 C 
HETATM   10  C10 8UH Y1621     -43.048 143.552  10.735  1.00 30.42     0.007 C 
HETATM   11  C11 8UH Y1621     -42.495 142.553   9.821  1.00 30.42     0.001 C 
HETATM   12  C12 8UH Y1621     -41.791 141.537  10.316  1.00 30.42     0.007 C 
HETATM   13  C13 8UH Y1621     -41.287 140.451   9.447  1.00 30.42    -0.062 C 
HETATM   14  C14 8UH Y1621     -40.713 139.392  10.052  1.00 30.42     0.007 C 
HETATM   15  C15 8UH Y1621     -40.186 138.223   9.341  1.00 30.42     0.001 C 
HETATM   16  C16 8UH Y1621     -48.675 147.214  11.771  1.00 30.42     0.020 C 
HETATM   17  C17 8UH Y1621     -48.356 144.777  11.992  1.00 30.42     0.020 C 
HETATM   18  C18 8UH Y1621     -44.620 147.861  13.126  1.00 30.42     0.044 C 
HETATM   19  C19 8UH Y1621     -44.502 144.577   8.955  1.00 30.42     0.048 C 
HETATM   20  C20 8UH Y1621     -41.466 140.570   7.954  1.00 30.42     0.048 C 
HETATM   21  O3  8UH Y1621     -48.519 147.656  15.863  1.00 30.42    -0.395 OA
ATOM     22  H3  8UH Y1621     -47.982 148.120  16.494  1.00  0.00     0.210 HD
HETATM   23  C21 8UH Y1621     -34.384 126.978   6.693  1.00 13.13    -0.018 C 
HETATM   24  C22 8UH Y1621     -33.740 126.076   5.651  1.00 13.13     0.045 C 
HETATM   25  C23 8UH Y1621     -33.114 126.797   4.479  1.00 13.13     0.123 C 
HETATM   26  C24 8UH Y1621     -32.167 127.855   4.983  1.00 13.13     0.066 C 
HETATM   27  C25 8UH Y1621     -32.863 128.801   5.923  1.00 13.13    -0.074 C 
HETATM   28  C26 8UH Y1621     -33.827 128.392   6.764  1.00 13.13    -0.048 C 
HETATM   29  C27 8UH Y1621     -34.353 129.275   7.845  1.00 13.13     0.009 C 
HETATM   30  C28 8UH Y1621     -35.280 130.226   7.670  1.00 13.13     0.007 C 
HETATM   31  C29 8UH Y1621     -35.776 131.055   8.781  1.00 30.42    -0.062 C 
HETATM   32  C30 8UH Y1621     -36.660 132.025   8.463  1.00 30.42     0.007 C 
HETATM   33  C31 8UH Y1621     -37.215 132.976   9.425  1.00 30.42     0.001 C 
HETATM   34  C32 8UH Y1621     -37.969 133.979   8.977  1.00 30.42     0.007 C 
HETATM   35  C33 8UH Y1621     -38.498 135.019   9.885  1.00 30.42    -0.062 C 
HETATM   36  C34 8UH Y1621     -39.114 136.072   9.305  1.00 30.42     0.007 C 
HETATM   37  C35 8UH Y1621     -39.653 137.222  10.033  1.00 30.42     0.001 C 
HETATM   38  C36 8UH Y1621     -34.207 126.252   8.016  1.00 13.13     0.020 C 
HETATM   39  C37 8UH Y1621     -35.863 127.107   6.363  1.00 13.13     0.020 C 
HETATM   40  C38 8UH Y1621     -32.157 130.113   6.069  1.00 13.13     0.044 C 
HETATM   41  C39 8UH Y1621     -35.285 130.776  10.179  1.00 30.42     0.048 C 
HETATM   42  C40 8UH Y1621     -38.282 134.885  11.370  1.00 30.42     0.048 C 
HETATM   43  O23 8UH Y1621     -32.366 125.851   3.716  1.00 13.13    -0.395 OA
ATOM     44  H23 8UH Y1621     -32.963 125.184   3.398  1.00  0.00     0.210 HD
ENDROOT
TORSDOF 12
