REMARK VINA RESULT:    -7.630      1.778     16.634
REMARK INTER + INTRA:          -9.960
REMARK INTER:                  -6.933
REMARK INTRA:                  -3.027
REMARK UNBOUND:                -2.329
REMARK  0 active torsions:
REMARK  status: ('A' for Active; 'I' for Inactive)
REMARK       I    between atoms: C3_3  and  O3_21 
REMARK       I    between atoms: C6_6  and  C7_7 
REMARK       I    between atoms: C8_8  and  C9_9 
REMARK       I    between atoms: C10_10  and  C11_11 
REMARK       I    between atoms: C12_12  and  C13_13 
REMARK       I    between atoms: C14_14  and  C15_15 
REMARK       I    between atoms: C23_25  and  O23_43 
REMARK       I    between atoms: C26_28  and  C27_29 
REMARK       I    between atoms: C28_30  and  C29_31 
REMARK       I    between atoms: C30_32  and  C31_33 
REMARK       I    between atoms: C32_34  and  C33_35 
REMARK       I    between atoms: C34_36  and  C35_37 
ROOT
HETATM    1  C1  8UH 3 316     -48.870 147.768   8.635  1.00 78.71    -0.018 C 
HETATM    2  C2  8UH 3 316     -50.378 147.703   8.382  1.00 77.73     0.045 C 
HETATM    3  C3  8UH 3 316     -51.227 147.181   9.534  1.00 76.79     0.123 C 
HETATM    4  C4  8UH 3 316     -50.753 147.789  10.840  1.00 76.86     0.066 C 
HETATM    5  C5  8UH 3 316     -49.328 147.359  11.056  1.00 77.66    -0.074 C 
HETATM    6  C6  8UH 3 316     -48.454 147.401  10.049  1.00 78.84    -0.048 C 
HETATM    7  C7  8UH 3 316     -47.033 147.062  10.296  1.00 78.35     0.009 C 
HETATM    8  C8  8UH 3 316     -46.665 145.784  10.370  1.00 77.95     0.007 C 
HETATM    9  C9  8UH 3 316     -45.267 145.379  10.602  1.00 78.35    -0.062 C 
HETATM   10  C10 8UH 3 316     -44.978 144.071  10.550  1.00 77.38     0.007 C 
HETATM   11  C11 8UH 3 316     -43.636 143.532  10.739  1.00 77.06     0.001 C 
HETATM   12  C12 8UH 3 316     -43.473 142.261  10.386  1.00 77.59     0.007 C 
HETATM   13  C13 8UH 3 316     -42.193 141.534  10.472  1.00 77.36    -0.062 C 
HETATM   14  C14 8UH 3 316     -42.164 140.278  10.004  1.00 75.86     0.007 C 
HETATM   15  C15 8UH 3 316     -40.959 139.457  10.006  1.00 74.54     0.001 C 
HETATM   16  C16 8UH 3 316     -48.388 149.185   8.345  1.00 78.56     0.020 C 
HETATM   17  C17 8UH 3 316     -48.180 146.801   7.677  1.00 78.60     0.020 C 
HETATM   18  C18 8UH 3 316     -48.883 147.113  12.470  1.00 77.80     0.044 C 
HETATM   19  C19 8UH 3 316     -44.205 146.402  10.878  1.00 79.41     0.048 C 
HETATM   20  C20 8UH 3 316     -40.968 142.181  11.050  1.00 77.68     0.048 C 
HETATM   21  O3  8UH 3 316     -52.600 147.532   9.326  1.00 76.23    -0.395 OA
ATOM     22  H3  8UH 3 316     -53.129 147.206  10.045  1.00  0.00     0.210 HD
HETATM   23  C21 8UH 3 316     -33.636 129.454   6.859  1.00 16.22    -0.018 C 
HETATM   24  C22 8UH 3 316     -32.271 129.827   6.324  1.00 16.22     0.045 C 
HETATM   25  C23 8UH 3 316     -31.466 130.715   7.227  1.00 16.22     0.123 C 
HETATM   26  C24 8UH 3 316     -31.605 130.159   8.619  1.00 16.22     0.066 C 
HETATM   27  C25 8UH 3 316     -33.023 130.423   9.009  1.00 16.22    -0.074 C 
HETATM   28  C26 8UH 3 316     -33.999 130.026   8.197  1.00 16.22    -0.048 C 
HETATM   29  C27 8UH 3 316     -35.420 130.330   8.416  1.00 16.22     0.009 C 
HETATM   30  C28 8UH 3 316     -35.689 131.574   8.795  1.00 16.22     0.007 C 
HETATM   31  C29 8UH 3 316     -37.089 132.062   8.793  1.00 87.05    -0.062 C 
HETATM   32  C30 8UH 3 316     -37.294 133.363   9.031  1.00 83.33     0.007 C 
HETATM   33  C31 8UH 3 316     -38.623 133.963   9.046  1.00 80.71     0.001 C 
HETATM   34  C32 8UH 3 316     -38.685 135.260   9.324  1.00 78.86     0.007 C 
HETATM   35  C33 8UH 3 316     -39.943 136.025   9.371  1.00 77.40    -0.062 C 
HETATM   36  C34 8UH 3 316     -39.868 137.348   9.580  1.00 76.14     0.007 C 
HETATM   37  C35 8UH 3 316     -41.058 138.189   9.621  1.00 74.61     0.001 C 
HETATM   38  C36 8UH 3 316     -33.668 127.952   7.079  1.00 16.22     0.020 C 
HETATM   39  C37 8UH 3 316     -34.625 129.887   5.814  1.00 16.22     0.020 C 
HETATM   40  C38 8UH 3 316     -33.235 130.723  10.455  1.00 16.22     0.044 C 
HETATM   41  C39 8UH 3 316     -38.240 131.135   8.531  1.00 86.53     0.048 C 
HETATM   42  C40 8UH 3 316     -41.266 135.343   9.193  1.00 77.09     0.048 C 
HETATM   43  O23 8UH 3 316     -30.123 130.653   6.761  1.00 16.22    -0.395 OA
ATOM     44  H23 8UH 3 316     -30.036 131.004   5.883  1.00  0.00     0.210 HD
ENDROOT
TORSDOF 12
