REMARK VINA RESULT:   -11.908      0.000      0.000
REMARK INTER + INTRA:         -12.604
REMARK INTER:                 -11.908
REMARK INTRA:                  -0.697
REMARK UNBOUND:                -0.697
REMARK  0 active torsions:
REMARK  status: ('A' for Active; 'I' for Inactive)
REMARK       I    between atoms: C3_3  and  O3_21 
REMARK       I    between atoms: C6_6  and  C7_7 
REMARK       I    between atoms: C8_8  and  C9_9 
REMARK       I    between atoms: C10_10  and  C11_11 
REMARK       I    between atoms: C12_12  and  C13_13 
REMARK       I    between atoms: C14_14  and  C15_15 
REMARK       I    between atoms: C23_25  and  O23_43 
REMARK       I    between atoms: C26_28  and  C27_29 
REMARK       I    between atoms: C28_30  and  C29_31 
REMARK       I    between atoms: C30_32  and  C31_33 
REMARK       I    between atoms: C32_34  and  C33_35 
REMARK       I    between atoms: C34_36  and  C35_37 
ROOT
HETATM    1  C1  8UH 8 619     -50.422 145.064  10.272  1.00 35.06    -0.018 C 
HETATM    2  C2  8UH 8 619     -50.995 144.682  11.637  1.00 35.06     0.045 C 
HETATM    3  C3  8UH 8 619     -50.387 145.404  12.834  1.00 35.06     0.123 C 
HETATM    4  C4  8UH 8 619     -49.710 146.688  12.389  1.00 35.06     0.066 C 
HETATM    5  C5  8UH 8 619     -48.636 146.262  11.433  1.00 35.06    -0.074 C 
HETATM    6  C6  8UH 8 619     -49.006 145.581  10.347  1.00 35.06    -0.048 C 
HETATM    7  C7  8UH 8 619     -48.041 145.163   9.314  1.00 35.06     0.009 C 
HETATM    8  C8  8UH 8 619     -46.864 144.723   9.758  1.00 35.06     0.007 C 
HETATM    9  C9  8UH 8 619     -45.908 144.090   8.830  1.00 35.06    -0.062 C 
HETATM   10  C10 8UH 8 619     -44.986 143.279   9.368  1.00 35.06     0.007 C 
HETATM   11  C11 8UH 8 619     -44.047 142.483   8.589  1.00 35.06     0.001 C 
HETATM   12  C12 8UH 8 619     -43.291 141.599   9.225  1.00 35.06     0.007 C 
HETATM   13  C13 8UH 8 619     -42.379 140.701   8.508  1.00 35.06    -0.062 C 
HETATM   14  C14 8UH 8 619     -41.843 139.700   9.218  1.00 35.06     0.007 C 
HETATM   15  C15 8UH 8 619     -40.951 138.682   8.679  1.00 35.06     0.001 C 
HETATM   16  C16 8UH 8 619     -51.249 146.204   9.688  1.00 35.06     0.020 C 
HETATM   17  C17 8UH 8 619     -50.481 143.871   9.330  1.00 35.06     0.020 C 
HETATM   18  C18 8UH 8 619     -47.425 147.159  11.488  1.00 35.06     0.044 C 
HETATM   19  C19 8UH 8 619     -46.050 144.331   7.355  1.00 35.06     0.048 C 
HETATM   20  C20 8UH 8 619     -42.132 140.941   7.049  1.00 35.06     0.048 C 
HETATM   21  O3  8UH 8 619     -51.413 145.728  13.779  1.00 35.06    -0.395 OA
ATOM     22  H3  8UH 8 619     -51.034 146.178  14.525  1.00  0.00     0.210 HD
HETATM   23  C21 8UH 8 619     -34.157 128.418   6.970  1.00 48.79    -0.018 C 
HETATM   24  C22 8UH 8 619     -33.454 128.222   5.634  1.00 49.38     0.045 C 
HETATM   25  C23 8UH 8 619     -31.927 128.256   5.638  1.00 51.85     0.123 C 
HETATM   26  C24 8UH 8 619     -31.351 129.381   6.480  1.00 54.16     0.066 C 
HETATM   27  C25 8UH 8 619     -32.201 129.825   7.641  1.00 52.93    -0.074 C 
HETATM   28  C26 8UH 8 619     -33.498 129.512   7.794  1.00 53.44    -0.048 C 
HETATM   29  C27 8UH 8 619     -34.320 130.226   8.809  1.00 56.18     0.009 C 
HETATM   30  C28 8UH 8 619     -35.126 131.239   8.486  1.00 54.04     0.007 C 
HETATM   31  C29 8UH 8 619     -35.960 131.944   9.462  1.00 35.06    -0.062 C 
HETATM   32  C30 8UH 8 619     -36.712 132.938   8.972  1.00 35.06     0.007 C 
HETATM   33  C31 8UH 8 619     -37.605 133.781   9.752  1.00 35.06     0.001 C 
HETATM   34  C32 8UH 8 619     -38.227 134.753   9.098  1.00 35.06     0.007 C 
HETATM   35  C33 8UH 8 619     -39.130 135.703   9.761  1.00 35.06    -0.062 C 
HETATM   36  C34 8UH 8 619     -39.631 136.693   9.003  1.00 35.06     0.007 C 
HETATM   37  C35 8UH 8 619     -40.524 137.734   9.499  1.00 35.06     0.001 C 
HETATM   38  C36 8UH 8 619     -34.170 127.105   7.738  1.00 50.92     0.020 C 
HETATM   39  C37 8UH 8 619     -35.608 128.793   6.685  1.00 48.05     0.020 C 
HETATM   40  C38 8UH 8 619     -31.605 131.060   8.233  1.00 55.82     0.044 C 
HETATM   41  C39 8UH 8 619     -35.942 131.523  10.900  1.00 35.06     0.048 C 
HETATM   42  C40 8UH 8 619     -39.407 135.527  11.223  1.00 35.06     0.048 C 
HETATM   43  O23 8UH 8 619     -31.363 127.000   6.039  1.00 50.70    -0.395 OA
ATOM     44  H23 8UH 8 619     -30.414 127.021   6.042  1.00  0.00     0.210 HD
ENDROOT
TORSDOF 12
