REMARK VINA RESULT:    -9.432      0.906     16.451
REMARK INTER + INTRA:         -11.831
REMARK INTER:                  -7.813
REMARK INTRA:                  -4.018
REMARK UNBOUND:                -2.399
REMARK  0 active torsions:
REMARK  status: ('A' for Active; 'I' for Inactive)
REMARK       I    between atoms: C3_3  and  O3_21 
REMARK       I    between atoms: C6_6  and  C7_7 
REMARK       I    between atoms: C8_8  and  C9_9 
REMARK       I    between atoms: C10_10  and  C11_11 
REMARK       I    between atoms: C12_12  and  C13_13 
REMARK       I    between atoms: C14_14  and  C15_15 
REMARK       I    between atoms: C23_25  and  O23_43 
REMARK       I    between atoms: C26_28  and  C27_29 
REMARK       I    between atoms: C28_30  and  C29_31 
REMARK       I    between atoms: C30_32  and  C31_33 
REMARK       I    between atoms: C32_34  and  C33_35 
REMARK       I    between atoms: C34_36  and  C35_37 
ROOT
HETATM    1  C1  8UH S1621     -34.362 126.864   5.821  1.00 98.50    -0.018 C 
HETATM    2  C2  8UH S1621     -33.624 125.963   4.851  1.00 95.05     0.045 C 
HETATM    3  C3  8UH S1621     -32.784 126.757   3.876  1.00 91.19     0.123 C 
HETATM    4  C4  8UH S1621     -31.755 127.591   4.609  1.00 95.39     0.066 C 
HETATM    5  C5  8UH S1621     -32.216 128.135   5.935  1.00 94.24    -0.074 C 
HETATM    6  C6  8UH S1621     -33.450 127.915   6.443  1.00 98.17    -0.048 C 
HETATM    7  C7  8UH S1621     -33.953 128.644   7.645  1.00 96.30     0.009 C 
HETATM    8  C8  8UH S1621     -34.531 129.849   7.583  1.00 99.74     0.007 C 
HETATM    9  C9  8UH S1621     -35.065 130.587   8.728  1.00 91.17    -0.062 C 
HETATM   10  C10 8UH S1621     -35.819 131.637   8.407  1.00 97.68     0.007 C 
HETATM   11  C11 8UH S1621     -36.473 132.491   9.377  1.00 98.02     0.001 C 
HETATM   12  C12 8UH S1621     -37.415 133.249   8.850  1.00 91.18     0.007 C 
HETATM   13  C13 8UH S1621     -38.238 134.168   9.635  1.00 90.92    -0.062 C 
HETATM   14  C14 8UH S1621     -39.147 134.865   8.959  1.00 96.50     0.007 C 
HETATM   15  C15 8UH S1621     -40.062 135.806   9.569  1.00 99.38     0.001 C 
HETATM   16  C16 8UH S1621     -35.032 125.922   6.809  1.00 90.00     0.020 C 
HETATM   17  C17 8UH S1621     -35.462 127.617   5.101  1.00 93.85     0.020 C 
HETATM   18  C18 8UH S1621     -31.379 129.325   6.280  1.00 91.76     0.044 C 
HETATM   19  C19 8UH S1621     -34.797 130.186  10.147  1.00 90.99     0.048 C 
HETATM   20  C20 8UH S1621     -38.071 134.292  11.119  1.00 93.33     0.048 C 
HETATM   21  O3  8UH S1621     -32.086 125.850   3.023  1.00 92.07    -0.395 OA
ATOM     22  H3  8UH S1621     -31.558 126.348   2.410  1.00  0.00     0.210 HD
HETATM   23  C21 8UH S1621     -49.437 143.954  10.757  1.00 56.99    -0.018 C 
HETATM   24  C22 8UH S1621     -50.096 144.230  12.106  1.00 56.99     0.045 C 
HETATM   25  C23 8UH S1621     -49.301 145.017  13.139  1.00 56.99     0.123 C 
HETATM   26  C24 8UH S1621     -48.346 145.997  12.487  1.00 56.99     0.066 C 
HETATM   27  C25 8UH S1621     -47.469 145.251  11.523  1.00 56.99    -0.074 C 
HETATM   28  C26 8UH S1621     -47.974 144.348  10.684  1.00 56.99    -0.048 C 
HETATM   29  C27 8UH S1621     -47.099 143.730   9.652  1.00 56.99     0.009 C 
HETATM   30  C28 8UH S1621     -46.477 142.569   9.869  1.00 56.99     0.007 C 
HETATM   31  C29 8UH S1621     -45.616 141.926   8.891  1.00 98.43    -0.062 C 
HETATM   32  C30 8UH S1621     -45.021 140.808   9.279  1.00 92.06     0.007 C 
HETATM   33  C31 8UH S1621     -44.137 140.023   8.444  1.00 98.99     0.001 C 
HETATM   34  C32 8UH S1621     -43.358 139.215   9.138  1.00 98.35     0.007 C 
HETATM   35  C33 8UH S1621     -42.405 138.306   8.509  1.00 93.74    -0.062 C 
HETATM   36  C34 8UH S1621     -41.597 137.614   9.308  1.00 95.45     0.007 C 
HETATM   37  C35 8UH S1621     -40.651 136.667   8.756  1.00 96.56     0.001 C 
HETATM   38  C36 8UH S1621     -50.264 144.644   9.675  1.00 56.99     0.020 C 
HETATM   39  C37 8UH S1621     -49.504 142.460  10.518  1.00 56.99     0.020 C 
HETATM   40  C38 8UH S1621     -46.070 145.760  11.384  1.00 56.99     0.044 C 
HETATM   41  C39 8UH S1621     -45.419 142.506   7.524  1.00 93.10     0.048 C 
HETATM   42  C40 8UH S1621     -42.381 138.152   7.022  1.00 95.49     0.048 C 
HETATM   43  O23 8UH S1621     -50.211 145.756  13.957  1.00 56.99    -0.395 OA
ATOM     44  H23 8UH S1621     -49.715 146.246  14.601  1.00  0.00     0.210 HD
ENDROOT
TORSDOF 12
