REMARK VINA RESULT:    -9.775      1.001     16.349
REMARK INTER + INTRA:         -12.114
REMARK INTER:                  -9.169
REMARK INTRA:                  -2.945
REMARK UNBOUND:                -2.339
REMARK  0 active torsions:
REMARK  status: ('A' for Active; 'I' for Inactive)
REMARK       I    between atoms: C3_3  and  O3_21 
REMARK       I    between atoms: C6_6  and  C7_7 
REMARK       I    between atoms: C8_8  and  C9_9 
REMARK       I    between atoms: C10_10  and  C11_11 
REMARK       I    between atoms: C12_12  and  C13_13 
REMARK       I    between atoms: C14_14  and  C15_15 
REMARK       I    between atoms: C23_25  and  O23_43 
REMARK       I    between atoms: C26_28  and  C27_29 
REMARK       I    between atoms: C28_30  and  C29_31 
REMARK       I    between atoms: C30_32  and  C31_33 
REMARK       I    between atoms: C32_34  and  C33_35 
REMARK       I    between atoms: C34_36  and  C35_37 
ROOT
HETATM    1  C1  8UH 51620     -34.401 127.782   6.532  1.00 94.67    -0.018 C 
HETATM    2  C2  8UH 51620     -33.723 127.422   5.217  1.00 94.67     0.045 C 
HETATM    3  C3  8UH 51620     -32.420 128.130   4.912  1.00 94.67     0.123 C 
HETATM    4  C4  8UH 51620     -31.569 128.147   6.153  1.00 94.67     0.066 C 
HETATM    5  C5  8UH 51620     -32.285 128.874   7.247  1.00 94.67    -0.074 C 
HETATM    6  C6  8UH 51620     -33.595 128.699   7.433  1.00 94.67    -0.048 C 
HETATM    7  C7  8UH 51620     -34.305 129.390   8.536  1.00 94.67     0.009 C 
HETATM    8  C8  8UH 51620     -34.823 130.605   8.370  1.00 94.67     0.007 C 
HETATM    9  C9  8UH 51620     -35.548 131.316   9.422  1.00 94.67    -0.062 C 
HETATM   10  C10 8UH 51620     -36.061 132.490   9.075  1.00 94.67     0.007 C 
HETATM   11  C11 8UH 51620     -36.836 133.339   9.960  1.00 94.67     0.001 C 
HETATM   12  C12 8UH 51620     -37.529 134.256   9.304  1.00 94.67     0.007 C 
HETATM   13  C13 8UH 51620     -38.418 135.226   9.939  1.00 94.67    -0.062 C 
HETATM   14  C14 8UH 51620     -39.115 136.009   9.121  1.00 94.67     0.007 C 
HETATM   15  C15 8UH 51620     -40.070 137.005   9.577  1.00 94.67     0.001 C 
HETATM   16  C16 8UH 51620     -34.705 126.457   7.224  1.00 94.67     0.020 C 
HETATM   17  C17 8UH 51620     -35.697 128.507   6.199  1.00 94.67     0.020 C 
HETATM   18  C18 8UH 51620     -31.442 129.743   8.132  1.00 94.67     0.044 C 
HETATM   19  C19 8UH 51620     -35.700 130.744  10.798  1.00 94.67     0.048 C 
HETATM   20  C20 8UH 51620     -38.544 135.305  11.427  1.00 94.67     0.048 C 
HETATM   21  O3  8UH 51620     -31.725 127.394   3.906  1.00 94.67    -0.395 OA
ATOM     22  H3  8UH 51620     -30.908 127.838   3.715  1.00  0.00     0.210 HD
HETATM   23  C21 8UH 51620     -49.757 144.549   9.743  1.00 66.61    -0.018 C 
HETATM   24  C22 8UH 51620     -50.388 145.093  11.020  1.00 66.61     0.045 C 
HETATM   25  C23 8UH 51620     -49.689 146.238  11.736  1.00 66.61     0.123 C 
HETATM   26  C24 8UH 51620     -48.977 147.151  10.762  1.00 66.61     0.066 C 
HETATM   27  C25 8UH 51620     -48.035 146.336   9.923  1.00 66.61    -0.074 C 
HETATM   28  C26 8UH 51620     -48.421 145.175   9.386  1.00 66.61    -0.048 C 
HETATM   29  C27 8UH 51620     -47.553 144.471   8.408  1.00 66.61     0.009 C 
HETATM   30  C28 8UH 51620     -46.601 143.622   8.801  1.00 66.61     0.007 C 
HETATM   31  C29 8UH 51620     -45.741 142.908   7.857  1.00 94.67    -0.062 C 
HETATM   32  C30 8UH 51620     -45.010 141.926   8.381  1.00 94.67     0.007 C 
HETATM   33  C31 8UH 51620     -44.084 141.077   7.654  1.00 94.67     0.001 C 
HETATM   34  C32 8UH 51620     -43.360 140.335   8.473  1.00 94.67     0.007 C 
HETATM   35  C33 8UH 51620     -42.339 139.380   8.048  1.00 94.67    -0.062 C 
HETATM   36  C34 8UH 51620     -41.817 138.580   8.981  1.00 94.67     0.007 C 
HETATM   37  C35 8UH 51620     -40.809 137.588   8.642  1.00 94.67     0.001 C 
HETATM   38  C36 8UH 51620     -50.765 144.741   8.617  1.00 66.61     0.020 C 
HETATM   39  C37 8UH 51620     -49.536 143.058   9.942  1.00 66.61     0.020 C 
HETATM   40  C38 8UH 51620     -46.812 147.075   9.459  1.00 66.61     0.044 C 
HETATM   41  C39 8UH 51620     -45.697 143.255   6.403  1.00 94.67     0.048 C 
HETATM   42  C40 8UH 51620     -41.890 139.330   6.624  1.00 94.67     0.048 C 
HETATM   43  O23 8UH 51620     -50.676 147.001  12.436  1.00 66.61    -0.395 OA
ATOM     44  H23 8UH 51620     -50.239 147.716  12.884  1.00  0.00     0.210 HD
ENDROOT
TORSDOF 12
