REMARK VINA RESULT:   -11.691      0.000      0.000
REMARK INTER + INTRA:         -14.421
REMARK INTER:                 -11.691
REMARK INTRA:                  -2.730
REMARK UNBOUND:                -2.730
REMARK  0 active torsions:
REMARK  status: ('A' for Active; 'I' for Inactive)
REMARK       I    between atoms: C3_3  and  O3_21 
REMARK       I    between atoms: C6_6  and  C7_7 
REMARK       I    between atoms: C8_8  and  C9_9 
REMARK       I    between atoms: C10_10  and  C11_11 
REMARK       I    between atoms: C12_12  and  C13_13 
REMARK       I    between atoms: C14_14  and  C15_15 
REMARK       I    between atoms: C23_25  and  O23_43 
REMARK       I    between atoms: C26_28  and  C27_29 
REMARK       I    between atoms: C28_30  and  C29_31 
REMARK       I    between atoms: C30_32  and  C31_33 
REMARK       I    between atoms: C32_34  and  C33_35 
REMARK       I    between atoms: C34_36  and  C35_37 
ROOT
HETATM    1  C1  8UH N1621     -47.813 145.254  12.372  1.00 48.43    -0.018 C 
HETATM    2  C2  8UH N1621     -48.566 145.683  13.625  1.00 44.61     0.045 C 
HETATM    3  C3  8UH N1621     -47.770 146.470  14.647  1.00 44.41     0.123 C 
HETATM    4  C4  8UH N1621     -46.877 147.481  13.972  1.00 41.53     0.066 C 
HETATM    5  C5  8UH N1621     -45.938 146.738  13.074  1.00 37.72    -0.074 C 
HETATM    6  C6  8UH N1621     -46.404 145.807  12.243  1.00 43.52    -0.048 C 
HETATM    7  C7  8UH N1621     -45.585 145.282  11.125  1.00 44.60     0.009 C 
HETATM    8  C8  8UH N1621     -44.673 144.335  11.301  1.00 43.22     0.007 C 
HETATM    9  C9  8UH N1621     -43.910 143.805  10.171  1.00 45.04    -0.062 C 
HETATM   10  C10 8UH N1621     -43.208 142.710  10.433  1.00 43.71     0.007 C 
HETATM   11  C11 8UH N1621     -42.423 141.973   9.472  1.00 42.87     0.001 C 
HETATM   12  C12 8UH N1621     -41.941 140.859   9.984  1.00 44.70     0.007 C 
HETATM   13  C13 8UH N1621     -41.174 139.888   9.208  1.00 42.63    -0.062 C 
HETATM   14  C14 8UH N1621     -40.800 138.775   9.842  1.00 42.62     0.007 C 
HETATM   15  C15 8UH N1621     -40.074 137.730   9.154  1.00 44.33     0.001 C 
HETATM   16  C16 8UH N1621     -48.702 145.649  11.197  1.00 47.48     0.020 C 
HETATM   17  C17 8UH N1621     -47.635 143.747  12.385  1.00 54.25     0.020 C 
HETATM   18  C18 8UH N1621     -44.692 147.510  12.795  1.00 37.77     0.044 C 
HETATM   19  C19 8UH N1621     -43.950 144.445   8.822  1.00 46.17     0.048 C 
HETATM   20  C20 8UH N1621     -40.884 140.125   7.759  1.00 40.87     0.048 C 
HETATM   21  O3  8UH N1621     -48.676 147.161  15.507  1.00 48.83    -0.395 OA
ATOM     22  H3  8UH N1621     -48.178 147.654  16.148  1.00  0.00     0.210 HD
HETATM   23  C21 8UH N1621     -34.374 126.848   6.451  1.00 66.61    -0.018 C 
HETATM   24  C22 8UH N1621     -34.136 126.232   5.077  1.00 66.61     0.045 C 
HETATM   25  C23 8UH N1621     -33.223 126.967   4.107  1.00 66.61     0.123 C 
HETATM   26  C24 8UH N1621     -32.126 127.714   4.834  1.00 66.61     0.066 C 
HETATM   27  C25 8UH N1621     -32.744 128.631   5.851  1.00 66.61    -0.074 C 
HETATM   28  C26 8UH N1621     -33.726 128.207   6.652  1.00 66.61    -0.048 C 
HETATM   29  C27 8UH N1621     -34.201 129.053   7.776  1.00 66.61     0.009 C 
HETATM   30  C28 8UH N1621     -35.151 129.974   7.605  1.00 66.61     0.007 C 
HETATM   31  C29 8UH N1621     -35.634 130.802   8.699  1.00 54.19    -0.062 C 
HETATM   32  C30 8UH N1621     -36.728 131.521   8.448  1.00 54.84     0.007 C 
HETATM   33  C31 8UH N1621     -37.361 132.402   9.408  1.00 51.40     0.001 C 
HETATM   34  C32 8UH N1621     -37.880 133.500   8.888  1.00 48.08     0.007 C 
HETATM   35  C33 8UH N1621     -38.557 134.502   9.711  1.00 45.58    -0.062 C 
HETATM   36  C34 8UH N1621     -39.005 135.607   9.116  1.00 47.58     0.007 C 
HETATM   37  C35 8UH N1621     -39.704 136.658   9.834  1.00 48.15     0.001 C 
HETATM   38  C36 8UH N1621     -33.878 125.851   7.492  1.00 66.61     0.020 C 
HETATM   39  C37 8UH N1621     -35.874 127.017   6.622  1.00 66.61     0.020 C 
HETATM   40  C38 8UH N1621     -31.957 129.879   6.126  1.00 66.61     0.044 C 
HETATM   41  C39 8UH N1621     -34.937 130.787  10.023  1.00 53.01     0.048 C 
HETATM   42  C40 8UH N1621     -38.722 134.267  11.172  1.00 46.34     0.048 C 
HETATM   43  O23 8UH N1621     -32.620 126.005   3.237  1.00 66.61    -0.395 OA
ATOM     44  H23 8UH N1621     -32.050 126.465   2.632  1.00  0.00     0.210 HD
ENDROOT
TORSDOF 12
