REMARK VINA RESULT:   -11.147      0.000      0.000
REMARK INTER + INTRA:         -11.507
REMARK INTER:                 -11.147
REMARK INTRA:                  -0.359
REMARK UNBOUND:                -0.359
REMARK  0 active torsions:
REMARK  status: ('A' for Active; 'I' for Inactive)
REMARK       I    between atoms: C3_3  and  O3_21 
REMARK       I    between atoms: C6_6  and  C7_7 
REMARK       I    between atoms: C8_8  and  C9_9 
REMARK       I    between atoms: C10_10  and  C11_11 
REMARK       I    between atoms: C12_12  and  C13_13 
REMARK       I    between atoms: C14_14  and  C15_15 
REMARK       I    between atoms: C23_25  and  O23_43 
REMARK       I    between atoms: C26_28  and  C27_29 
REMARK       I    between atoms: C28_30  and  C29_31 
REMARK       I    between atoms: C30_32  and  C31_33 
REMARK       I    between atoms: C32_34  and  C33_35 
REMARK       I    between atoms: C34_36  and  C35_37 
ROOT
HETATM    1  C1  8UH 4 616     -34.193 128.079   6.931  1.00 72.69    -0.018 C 
HETATM    2  C2  8UH 4 616     -33.507 127.654   5.634  1.00 72.50     0.045 C 
HETATM    3  C3  8UH 4 616     -32.175 128.311   5.282  1.00 72.53     0.123 C 
HETATM    4  C4  8UH 4 616     -31.403 128.748   6.514  1.00 73.67     0.066 C 
HETATM    5  C5  8UH 4 616     -32.281 129.607   7.381  1.00 74.71    -0.074 C 
HETATM    6  C6  8UH 4 616     -33.533 129.239   7.646  1.00 74.26    -0.048 C 
HETATM    7  C7  8UH 4 616     -34.337 129.981   8.643  1.00 75.37     0.009 C 
HETATM    8  C8  8UH 4 616     -34.961 131.103   8.283  1.00 77.10     0.007 C 
HETATM    9  C9  8UH 4 616     -35.790 131.880   9.224  1.00 78.39    -0.062 C 
HETATM   10  C10 8UH 4 616     -36.423 132.972   8.767  1.00 81.08     0.007 C 
HETATM   11  C11 8UH 4 616     -37.285 133.804   9.606  1.00 84.31     0.001 C 
HETATM   12  C12 8UH 4 616     -38.026 134.719   8.985  1.00 87.06     0.007 C 
HETATM   13  C13 8UH 4 616     -38.965 135.623   9.676  1.00 89.04    -0.062 C 
HETATM   14  C14 8UH 4 616     -39.732 136.422   8.915  1.00 90.91     0.007 C 
HETATM   15  C15 8UH 4 616     -40.724 137.342   9.463  1.00 91.21     0.001 C 
HETATM   16  C16 8UH 4 616     -34.225 126.879   7.868  1.00 72.40     0.020 C 
HETATM   17  C17 8UH 4 616     -35.622 128.499   6.612  1.00 73.92     0.020 C 
HETATM   18  C18 8UH 4 616     -31.576 130.614   8.242  1.00 74.98     0.044 C 
HETATM   19  C19 8UH 4 616     -35.926 131.447  10.653  1.00 77.08     0.048 C 
HETATM   20  C20 8UH 4 616     -39.070 135.640  11.173  1.00 88.60     0.048 C 
HETATM   21  O3  8UH 4 616     -31.382 127.362   4.562  1.00 71.08    -0.395 OA
ATOM     22  H3  8UH 4 616     -31.864 127.089   3.790  1.00  0.00     0.210 HD
HETATM   23  C21 8UH 4 616     -50.897 144.929  10.089  1.00 16.69    -0.018 C 
HETATM   24  C22 8UH 4 616     -51.843 145.651  11.061  1.00 15.88     0.045 C 
HETATM   25  C23 8UH 4 616     -51.259 146.694  12.004  1.00 15.19     0.123 C 
HETATM   26  C24 8UH 4 616     -50.048 147.448  11.447  1.00 16.30     0.066 C 
HETATM   27  C25 8UH 4 616     -49.102 146.707  10.558  1.00 15.97    -0.074 C 
HETATM   28  C26 8UH 4 616     -49.471 145.544   9.925  1.00 16.56    -0.048 C 
HETATM   29  C27 8UH 4 616     -48.522 144.825   9.071  1.00 18.44     0.009 C 
HETATM   30  C28 8UH 4 616     -47.519 144.032   9.488  1.00 18.42     0.007 C 
HETATM   31  C29 8UH 4 616     -46.521 143.434   8.631  1.00 94.55    -0.062 C 
HETATM   32  C30 8UH 4 616     -45.814 142.390   9.084  1.00 95.44     0.007 C 
HETATM   33  C31 8UH 4 616     -44.798 141.691   8.297  1.00 95.37     0.001 C 
HETATM   34  C32 8UH 4 616     -44.140 140.722   8.928  1.00 94.20     0.007 C 
HETATM   35  C33 8UH 4 616     -43.095 139.877   8.322  1.00 92.43    -0.062 C 
HETATM   36  C34 8UH 4 616     -42.435 139.025   9.123  1.00 91.40     0.007 C 
HETATM   37  C35 8UH 4 616     -41.407 138.119   8.621  1.00 91.41     0.001 C 
HETATM   38  C36 8UH 4 616     -51.649 144.967   8.747  1.00 15.77     0.020 C 
HETATM   39  C37 8UH 4 616     -50.818 143.455  10.534  1.00 17.40     0.020 C 
HETATM   40  C38 8UH 4 616     -47.809 147.443  10.536  1.00 16.04     0.044 C 
HETATM   41  C39 8UH 4 616     -46.295 143.982   7.252  1.00 93.92     0.048 C 
HETATM   42  C40 8UH 4 616     -42.796 139.956   6.855  1.00 91.99     0.048 C 
HETATM   43  O23 8UH 4 616     -52.262 147.611  12.391  1.00 16.64    -0.395 OA
ATOM     44  H23 8UH 4 616     -53.014 147.143  12.737  1.00  0.00     0.210 HD
ENDROOT
TORSDOF 12
