REMARK VINA RESULT:    -9.386      0.000      0.000
REMARK INTER + INTRA:         -11.904
REMARK INTER:                  -9.386
REMARK INTRA:                  -2.518
REMARK UNBOUND:                -2.518
REMARK  0 active torsions:
REMARK  status: ('A' for Active; 'I' for Inactive)
REMARK       I    between atoms: C3_3  and  O3_21 
REMARK       I    between atoms: C6_6  and  C7_7 
REMARK       I    between atoms: C8_8  and  C9_9 
REMARK       I    between atoms: C10_10  and  C11_11 
REMARK       I    between atoms: C12_12  and  C13_13 
REMARK       I    between atoms: C14_14  and  C15_15 
REMARK       I    between atoms: C23_25  and  O23_43 
REMARK       I    between atoms: C26_28  and  C27_29 
REMARK       I    between atoms: C28_30  and  C29_31 
REMARK       I    between atoms: C30_32  and  C31_33 
REMARK       I    between atoms: C32_34  and  C33_35 
REMARK       I    between atoms: C34_36  and  C35_37 
ROOT
HETATM    1  C1  8UH 1 316     -34.430 126.942   6.396  1.00 73.24    -0.018 C 
HETATM    2  C2  8UH 1 316     -33.995 126.341   5.057  1.00 72.84     0.045 C 
HETATM    3  C3  8UH 1 316     -32.921 127.096   4.283  1.00 72.53     0.123 C 
HETATM    4  C4  8UH 1 316     -31.842 127.584   5.231  1.00 72.61     0.066 C 
HETATM    5  C5  8UH 1 316     -32.463 128.473   6.275  1.00 72.68    -0.074 C 
HETATM    6  C6  8UH 1 316     -33.612 128.135   6.861  1.00 72.79    -0.048 C 
HETATM    7  C7  8UH 1 316     -34.120 128.943   7.996  1.00 71.90     0.009 C 
HETATM    8  C8  8UH 1 316     -34.821 130.059   7.772  1.00 71.51     0.007 C 
HETATM    9  C9  8UH 1 316     -35.357 130.902   8.862  1.00 70.48    -0.062 C 
HETATM   10  C10 8UH 1 316     -36.098 131.969   8.527  1.00 69.46     0.007 C 
HETATM   11  C11 8UH 1 316     -36.703 132.895   9.482  1.00 69.85     0.001 C 
HETATM   12  C12 8UH 1 316     -37.435 133.882   8.966  1.00 72.15     0.007 C 
HETATM   13  C13 8UH 1 316     -38.140 134.907   9.765  1.00 73.74    -0.062 C 
HETATM   14  C14 8UH 1 316     -39.039 135.683   9.132  1.00 74.04     0.007 C 
HETATM   15  C15 8UH 1 316     -39.823 136.716   9.806  1.00 74.62     0.001 C 
HETATM   16  C16 8UH 1 316     -34.338 125.850   7.455  1.00 72.68     0.020 C 
HETATM   17  C17 8UH 1 316     -35.879 127.397   6.266  1.00 73.05     0.020 C 
HETATM   18  C18 8UH 1 316     -31.589 129.542   6.866  1.00 72.13     0.044 C 
HETATM   19  C19 8UH 1 316     -35.070 130.577  10.299  1.00 70.45     0.048 C 
HETATM   20  C20 8UH 1 316     -37.859 135.076  11.232  1.00 72.89     0.048 C 
HETATM   21  O3  8UH 1 316     -32.334 126.223   3.309  1.00 71.04    -0.395 OA
ATOM     22  H3  8UH 1 316     -33.011 125.917   2.715  1.00  0.00     0.210 HD
HETATM   23  C21 8UH 1 316     -49.540 144.804  11.911  1.00 37.60    -0.018 C 
HETATM   24  C22 8UH 1 316     -50.249 145.744  12.871  1.00 37.60     0.045 C 
HETATM   25  C23 8UH 1 316     -49.362 146.602  13.743  1.00 37.60     0.123 C 
HETATM   26  C24 8UH 1 316     -48.331 147.288  12.885  1.00 37.60     0.066 C 
HETATM   27  C25 8UH 1 316     -47.573 146.326  12.021  1.00 37.60    -0.074 C 
HETATM   28  C26 8UH 1 316     -48.141 145.225  11.508  1.00 37.60    -0.048 C 
HETATM   29  C27 8UH 1 316     -47.439 144.401  10.486  1.00 37.60     0.009 C 
HETATM   30  C28 8UH 1 316     -46.524 143.474  10.788  1.00 37.60     0.007 C 
HETATM   31  C29 8UH 1 316     -45.854 142.663   9.760  1.00 94.72    -0.062 C 
HETATM   32  C30 8UH 1 316     -44.965 141.748  10.168  1.00 91.32     0.007 C 
HETATM   33  C31 8UH 1 316     -44.238 140.858   9.265  1.00 87.88     0.001 C 
HETATM   34  C32 8UH 1 316     -43.307 140.086   9.820  1.00 84.19     0.007 C 
HETATM   35  C33 8UH 1 316     -42.494 139.107   9.079  1.00 80.79    -0.062 C 
HETATM   36  C34 8UH 1 316     -41.550 138.420   9.749  1.00 78.84     0.007 C 
HETATM   37  C35 8UH 1 316     -40.722 137.405   9.101  1.00 76.79     0.001 C 
HETATM   38  C36 8UH 1 316     -50.474 144.636  10.723  1.00 37.60     0.020 C 
HETATM   39  C37 8UH 1 316     -49.388 143.460  12.581  1.00 37.60     0.020 C 
HETATM   40  C38 8UH 1 316     -46.270 146.879  11.533  1.00 37.60     0.044 C 
HETATM   41  C39 8UH 1 316     -46.168 142.847   8.306  1.00 95.37     0.048 C 
HETATM   42  C40 8UH 1 316     -42.738 138.870   7.618  1.00 90.13     0.048 C 
HETATM   43  O23 8UH 1 316     -50.166 147.624  14.328  1.00 37.60    -0.395 OA
ATOM     44  H23 8UH 1 316     -50.816 147.192  14.869  1.00  0.00     0.210 HD
ENDROOT
TORSDOF 12
