REMARK VINA RESULT:    -7.862      1.707     16.883
REMARK INTER + INTRA:         -11.024
REMARK INTER:                  -8.216
REMARK INTRA:                  -2.808
REMARK UNBOUND:                -3.161
REMARK  0 active torsions:
REMARK  status: ('A' for Active; 'I' for Inactive)
REMARK       I    between atoms: C3_3  and  O3_21 
REMARK       I    between atoms: C6_6  and  C7_7 
REMARK       I    between atoms: C8_8  and  C9_9 
REMARK       I    between atoms: C10_10  and  C11_11 
REMARK       I    between atoms: C12_12  and  C13_13 
REMARK       I    between atoms: C14_14  and  C15_15 
REMARK       I    between atoms: C23_25  and  O23_43 
REMARK       I    between atoms: C26_28  and  C27_29 
REMARK       I    between atoms: C28_30  and  C29_31 
REMARK       I    between atoms: C30_32  and  C31_33 
REMARK       I    between atoms: C32_34  and  C33_35 
REMARK       I    between atoms: C34_36  and  C35_37 
ROOT
HETATM    1  C1  8UH 5 624     -47.532 146.144  12.684  1.00 23.68    -0.018 C 
HETATM    2  C2  8UH 5 624     -48.416 146.366  13.907  1.00 23.68     0.045 C 
HETATM    3  C3  8UH 5 624     -47.792 146.974  15.158  1.00 23.68     0.123 C 
HETATM    4  C4  8UH 5 624     -46.602 147.854  14.824  1.00 23.68     0.066 C 
HETATM    5  C5  8UH 5 624     -45.636 147.056  13.995  1.00 23.68    -0.074 C 
HETATM    6  C6  8UH 5 624     -46.053 146.412  12.903  1.00 23.68    -0.048 C 
HETATM    7  C7  8UH 5 624     -45.084 145.980  11.858  1.00 23.68     0.009 C 
HETATM    8  C8  8UH 5 624     -44.396 144.836  11.928  1.00 23.68     0.007 C 
HETATM    9  C9  8UH 5 624     -43.438 144.404  10.882  1.00 23.68    -0.062 C 
HETATM   10  C10 8UH 5 624     -42.895 143.182  10.998  1.00 23.68     0.007 C 
HETATM   11  C11 8UH 5 624     -41.950 142.545  10.080  1.00 23.68     0.001 C 
HETATM   12  C12 8UH 5 624     -41.721 141.260  10.360  1.00 23.68     0.007 C 
HETATM   13  C13 8UH 5 624     -40.862 140.292   9.648  1.00 23.68    -0.062 C 
HETATM   14  C14 8UH 5 624     -40.664 139.098  10.232  1.00 23.68     0.007 C 
HETATM   15  C15 8UH 5 624     -39.876 138.032   9.620  1.00 23.68     0.001 C 
HETATM   16  C16 8UH 5 624     -48.096 147.028  11.584  1.00 23.68     0.020 C 
HETATM   17  C17 8UH 5 624     -47.668 144.690  12.258  1.00 23.68     0.020 C 
HETATM   18  C18 8UH 5 624     -44.285 147.701  14.055  1.00 23.68     0.044 C 
HETATM   19  C19 8UH 5 624     -43.087 145.296   9.733  1.00 23.68     0.048 C 
HETATM   20  C20 8UH 5 624     -40.253 140.610   8.317  1.00 23.68     0.048 C 
HETATM   21  O3  8UH 5 624     -48.784 147.761  15.819  1.00 23.68    -0.395 OA
ATOM     22  H3  8UH 5 624     -48.394 148.140  16.599  1.00  0.00     0.210 HD
HETATM   23  C21 8UH 5 624     -34.383 126.919   6.392  1.00 20.77    -0.018 C 
HETATM   24  C22 8UH 5 624     -34.085 126.246   5.042  1.00 19.21     0.045 C 
HETATM   25  C23 8UH 5 624     -33.039 126.835   4.099  1.00 20.68     0.123 C 
HETATM   26  C24 8UH 5 624     -32.360 128.122   4.579  1.00 17.77     0.066 C 
HETATM   27  C25 8UH 5 624     -32.848 128.856   5.787  1.00 19.05    -0.074 C 
HETATM   28  C26 8UH 5 624     -33.787 128.340   6.659  1.00 19.48    -0.048 C 
HETATM   29  C27 8UH 5 624     -34.307 129.041   7.864  1.00 16.56     0.009 C 
HETATM   30  C28 8UH 5 624     -35.265 130.006   7.856  1.00 15.55     0.007 C 
HETATM   31  C29 8UH 5 624     -35.787 130.753   8.978  1.00 23.68    -0.062 C 
HETATM   32  C30 8UH 5 624     -36.651 131.736   8.708  1.00 23.68     0.007 C 
HETATM   33  C31 8UH 5 624     -37.299 132.584   9.699  1.00 23.68     0.001 C 
HETATM   34  C32 8UH 5 624     -37.644 133.804   9.308  1.00 23.68     0.007 C 
HETATM   35  C33 8UH 5 624     -38.332 134.768  10.177  1.00 23.68    -0.062 C 
HETATM   36  C34 8UH 5 624     -38.777 135.902   9.612  1.00 23.68     0.007 C 
HETATM   37  C35 8UH 5 624     -39.521 136.947  10.312  1.00 23.68     0.001 C 
HETATM   38  C36 8UH 5 624     -33.833 125.913   7.433  1.00 20.67     0.020 C 
HETATM   39  C37 8UH 5 624     -35.920 126.942   6.524  1.00 19.98     0.020 C 
HETATM   40  C38 8UH 5 624     -32.153 130.171   5.856  1.00 17.40     0.044 C 
HETATM   41  C39 8UH 5 624     -35.374 130.416  10.379  1.00 23.68     0.048 C 
HETATM   42  C40 8UH 5 624     -38.522 134.465  11.631  1.00 23.68     0.048 C 
HETATM   43  O23 8UH 5 624     -32.065 125.852   3.760  1.00 20.33    -0.395 OA
ATOM     44  H23 8UH 5 624     -32.486 125.055   3.463  1.00  0.00     0.210 HD
ENDROOT
TORSDOF 12
