REMARK VINA RESULT:    -9.301      1.848     16.794
REMARK INTER + INTRA:         -12.586
REMARK INTER:                 -10.479
REMARK INTRA:                  -2.107
REMARK UNBOUND:                -3.285
REMARK  0 active torsions:
REMARK  status: ('A' for Active; 'I' for Inactive)
REMARK       I    between atoms: C3_3  and  O3_21 
REMARK       I    between atoms: C6_6  and  C7_7 
REMARK       I    between atoms: C8_8  and  C9_9 
REMARK       I    between atoms: C10_10  and  C11_11 
REMARK       I    between atoms: C12_12  and  C13_13 
REMARK       I    between atoms: C14_14  and  C15_15 
REMARK       I    between atoms: C23_25  and  O23_43 
REMARK       I    between atoms: C26_28  and  C27_29 
REMARK       I    between atoms: C28_30  and  C29_31 
REMARK       I    between atoms: C30_32  and  C31_33 
REMARK       I    between atoms: C32_34  and  C33_35 
REMARK       I    between atoms: C34_36  and  C35_37 
ROOT
HETATM    1  C1  8UH N1621     -47.435 146.031  13.041  1.00 51.88    -0.018 C 
HETATM    2  C2  8UH N1621     -48.121 146.247  14.383  1.00 51.88     0.045 C 
HETATM    3  C3  8UH N1621     -47.302 146.912  15.468  1.00 51.88     0.123 C 
HETATM    4  C4  8UH N1621     -46.479 148.030  14.875  1.00 51.88     0.066 C 
HETATM    5  C5  8UH N1621     -45.570 147.467  13.824  1.00 51.88    -0.074 C 
HETATM    6  C6  8UH N1621     -46.029 146.591  12.929  1.00 51.88    -0.048 C 
HETATM    7  C7  8UH N1621     -45.206 146.121  11.783  1.00 51.88     0.009 C 
HETATM    8  C8  8UH N1621     -44.325 145.125  11.898  1.00 51.88     0.007 C 
HETATM    9  C9  8UH N1621     -43.527 144.597  10.783  1.00 51.88    -0.062 C 
HETATM   10  C10 8UH N1621     -43.025 143.378  10.983  1.00 51.88     0.007 C 
HETATM   11  C11 8UH N1621     -42.238 142.597  10.044  1.00 51.88     0.001 C 
HETATM   12  C12 8UH N1621     -41.889 141.397  10.490  1.00 51.88     0.007 C 
HETATM   13  C13 8UH N1621     -41.141 140.433   9.675  1.00 51.88    -0.062 C 
HETATM   14  C14 8UH N1621     -40.811 139.255  10.220  1.00 51.88     0.007 C 
HETATM   15  C15 8UH N1621     -40.102 138.238   9.455  1.00 51.88     0.001 C 
HETATM   16  C16 8UH N1621     -48.345 146.598  11.963  1.00 51.88     0.020 C 
HETATM   17  C17 8UH N1621     -47.344 144.539  12.822  1.00 51.88     0.020 C 
HETATM   18  C18 8UH N1621     -44.252 148.163  13.679  1.00 51.88     0.044 C 
HETATM   19  C19 8UH N1621     -43.303 145.365   9.519  1.00 51.88     0.048 C 
HETATM   20  C20 8UH N1621     -40.803 140.761   8.254  1.00 51.88     0.048 C 
HETATM   21  O3  8UH N1621     -48.192 147.480  16.432  1.00 51.88    -0.395 OA
ATOM     22  H3  8UH N1621     -47.678 147.897  17.114  1.00  0.00     0.210 HD
HETATM   23  C21 8UH N1621     -34.431 126.922   6.517  1.00 23.07    -0.018 C 
HETATM   24  C22 8UH N1621     -33.898 126.191   5.270  1.00 21.39     0.045 C 
HETATM   25  C23 8UH N1621     -33.018 126.980   4.306  1.00 23.10     0.123 C 
HETATM   26  C24 8UH N1621     -32.206 128.102   4.959  1.00 23.25     0.066 C 
HETATM   27  C25 8UH N1621     -32.854 128.883   6.058  1.00 22.57    -0.074 C 
HETATM   28  C26 8UH N1621     -33.887 128.358   6.799  1.00 22.63    -0.048 C 
HETATM   29  C27 8UH N1621     -34.521 129.125   7.882  1.00 23.01     0.009 C 
HETATM   30  C28 8UH N1621     -35.424 130.112   7.726  1.00 21.85     0.007 C 
HETATM   31  C29 8UH N1621     -35.968 130.954   8.763  1.00 51.88    -0.062 C 
HETATM   32  C30 8UH N1621     -36.931 131.822   8.434  1.00 51.88     0.007 C 
HETATM   33  C31 8UH N1621     -37.580 132.735   9.366  1.00 51.88     0.001 C 
HETATM   34  C32 8UH N1621     -37.958 133.921   8.892  1.00 51.88     0.007 C 
HETATM   35  C33 8UH N1621     -38.626 134.919   9.740  1.00 51.88    -0.062 C 
HETATM   36  C34 8UH N1621     -39.001 136.104   9.235  1.00 51.88     0.007 C 
HETATM   37  C35 8UH N1621     -39.683 137.116  10.037  1.00 51.88     0.001 C 
HETATM   38  C36 8UH N1621     -34.031 125.978   7.666  1.00 21.40     0.020 C 
HETATM   39  C37 8UH N1621     -35.973 126.938   6.421  1.00 21.74     0.020 C 
HETATM   40  C38 8UH N1621     -32.178 130.204   6.161  1.00 21.99     0.044 C 
HETATM   41  C39 8UH N1621     -35.445 130.835  10.161  1.00 51.88     0.048 C 
HETATM   42  C40 8UH N1621     -38.876 134.580  11.167  1.00 51.88     0.048 C 
HETATM   43  O23 8UH N1621     -32.158 126.105   3.600  1.00 24.94    -0.395 OA
ATOM     44  H23 8UH N1621     -31.609 126.596   2.999  1.00  0.00     0.210 HD
ENDROOT
TORSDOF 12
