REMARK VINA RESULT:   -11.775      0.000      0.000
REMARK INTER + INTRA:         -14.176
REMARK INTER:                 -11.775
REMARK INTRA:                  -2.400
REMARK UNBOUND:                -2.400
REMARK  0 active torsions:
REMARK  status: ('A' for Active; 'I' for Inactive)
REMARK       I    between atoms: C3_3  and  O3_21 
REMARK       I    between atoms: C6_6  and  C7_7 
REMARK       I    between atoms: C8_8  and  C9_9 
REMARK       I    between atoms: C10_10  and  C11_11 
REMARK       I    between atoms: C12_12  and  C13_13 
REMARK       I    between atoms: C14_14  and  C15_15 
REMARK       I    between atoms: C23_25  and  O23_43 
REMARK       I    between atoms: C26_28  and  C27_29 
REMARK       I    between atoms: C28_30  and  C29_31 
REMARK       I    between atoms: C30_32  and  C31_33 
REMARK       I    between atoms: C32_34  and  C33_35 
REMARK       I    between atoms: C34_36  and  C35_37 
ROOT
HETATM    1  C1  8UH y1621     -47.719 145.649  12.838  1.00 26.19    -0.018 C 
HETATM    2  C2  8UH y1621     -48.545 146.170  14.008  1.00 26.65     0.045 C 
HETATM    3  C3  8UH y1621     -47.795 146.849  15.138  1.00 28.07     0.123 C 
HETATM    4  C4  8UH y1621     -46.667 147.704  14.621  1.00 30.07     0.066 C 
HETATM    5  C5  8UH y1621     -45.757 146.859  13.790  1.00 28.83    -0.074 C 
HETATM    6  C6  8UH y1621     -46.257 146.069  12.835  1.00 27.49    -0.048 C 
HETATM    7  C7  8UH y1621     -45.416 145.566  11.720  1.00 29.45     0.009 C 
HETATM    8  C8  8UH y1621     -44.507 144.603  11.885  1.00 27.83     0.007 C 
HETATM    9  C9  8UH y1621     -43.704 144.074  10.777  1.00 26.06    -0.062 C 
HETATM   10  C10 8UH y1621     -43.088 142.919  11.015  1.00 25.01     0.007 C 
HETATM   11  C11 8UH y1621     -42.293 142.195  10.048  1.00 25.09     0.001 C 
HETATM   12  C12 8UH y1621     -41.807 141.051  10.491  1.00 26.01     0.007 C 
HETATM   13  C13 8UH y1621     -41.039 140.131   9.652  1.00 26.36    -0.062 C 
HETATM   14  C14 8UH y1621     -40.680 138.961  10.187  1.00 27.67     0.007 C 
HETATM   15  C15 8UH y1621     -39.949 137.972   9.410  1.00 28.38     0.001 C 
HETATM   16  C16 8UH y1621     -48.428 146.163  11.598  1.00 26.46     0.020 C 
HETATM   17  C17 8UH y1621     -47.750 144.128  12.850  1.00 26.61     0.020 C 
HETATM   18  C18 8UH y1621     -44.499 147.647  13.626  1.00 29.43     0.044 C 
HETATM   19  C19 8UH y1621     -43.601 144.783   9.464  1.00 26.07     0.048 C 
HETATM   20  C20 8UH y1621     -40.726 140.477   8.229  1.00 25.83     0.048 C 
HETATM   21  O3  8UH y1621     -48.704 147.673  15.862  1.00 27.44    -0.395 OA
ATOM     22  H3  8UH y1621     -48.234 148.099  16.570  1.00  0.00     0.210 HD
HETATM   23  C21 8UH y1621     -34.321 126.859   6.583  1.00 13.75    -0.018 C 
HETATM   24  C22 8UH y1621     -33.688 125.974   5.519  1.00 13.75     0.045 C 
HETATM   25  C23 8UH y1621     -33.091 126.748   4.367  1.00 13.75     0.123 C 
HETATM   26  C24 8UH y1621     -32.075 127.712   4.918  1.00 13.75     0.066 C 
HETATM   27  C25 8UH y1621     -32.747 128.657   5.870  1.00 13.75    -0.074 C 
HETATM   28  C26 8UH y1621     -33.736 128.260   6.687  1.00 13.75    -0.048 C 
HETATM   29  C27 8UH y1621     -34.284 129.125   7.772  1.00 13.75     0.009 C 
HETATM   30  C28 8UH y1621     -35.166 130.117   7.592  1.00 13.75     0.007 C 
HETATM   31  C29 8UH y1621     -35.684 130.903   8.713  1.00 29.73    -0.062 C 
HETATM   32  C30 8UH y1621     -36.717 131.692   8.437  1.00 28.64     0.007 C 
HETATM   33  C31 8UH y1621     -37.361 132.551   9.406  1.00 27.79     0.001 C 
HETATM   34  C32 8UH y1621     -37.839 133.680   8.912  1.00 27.11     0.007 C 
HETATM   35  C33 8UH y1621     -38.528 134.669   9.737  1.00 25.78    -0.062 C 
HETATM   36  C34 8UH y1621     -38.939 135.812   9.188  1.00 26.10     0.007 C 
HETATM   37  C35 8UH y1621     -39.647 136.813   9.970  1.00 27.22     0.001 C 
HETATM   38  C36 8UH y1621     -34.185 126.107   7.899  1.00 13.75     0.020 C 
HETATM   39  C37 8UH y1621     -35.793 127.019   6.242  1.00 13.75     0.020 C 
HETATM   40  C38 8UH y1621     -32.021 129.952   6.026  1.00 13.75     0.044 C 
HETATM   41  C39 8UH y1621     -35.079 130.802  10.073  1.00 32.37     0.048 C 
HETATM   42  C40 8UH y1621     -38.766 134.368  11.174  1.00 25.14     0.048 C 
HETATM   43  O23 8UH y1621     -32.443 125.850   3.465  1.00 13.75    -0.395 OA
ATOM     44  H23 8UH y1621     -32.069 126.337   2.741  1.00  0.00     0.210 HD
ENDROOT
TORSDOF 12
