REMARK VINA RESULT:    -8.627      0.000      0.000
REMARK INTER + INTRA:         -11.967
REMARK INTER:                  -8.627
REMARK INTRA:                  -3.340
REMARK UNBOUND:                -3.340
REMARK  0 active torsions:
REMARK  status: ('A' for Active; 'I' for Inactive)
REMARK       I    between atoms: C3_3  and  O3_21 
REMARK       I    between atoms: C6_6  and  C7_7 
REMARK       I    between atoms: C8_8  and  C9_9 
REMARK       I    between atoms: C10_10  and  C11_11 
REMARK       I    between atoms: C12_12  and  C13_13 
REMARK       I    between atoms: C14_14  and  C15_15 
REMARK       I    between atoms: C23_25  and  O23_43 
REMARK       I    between atoms: C26_28  and  C27_29 
REMARK       I    between atoms: C28_30  and  C29_31 
REMARK       I    between atoms: C30_32  and  C31_33 
REMARK       I    between atoms: C32_34  and  C33_35 
REMARK       I    between atoms: C34_36  and  C35_37 
ROOT
HETATM    1  C1  8UH X1620     -33.746 129.391   6.817  1.00 33.88    -0.022 C 
HETATM    2  C2  8UH X1620     -32.927 130.201   5.823  1.00 33.88     0.045 C 
HETATM    3  C3  8UH X1620     -32.052 131.266   6.449  1.00 33.88     0.119 C 
HETATM    4  C4  8UH X1620     -31.167 130.575   7.464  1.00 33.88     0.040 C 
HETATM    5  C5  8UH X1620     -32.027 129.938   8.526  1.00 33.88     0.013 C 
HETATM    6  C6  8UH X1620     -33.306 129.654   8.256  1.00 33.88    -0.068 C 
HETATM    7  C7  8UH X1620     -34.353 129.905   9.255  1.00 33.88     0.004 C 
HETATM    8  C8  8UH X1620     -34.860 131.123   9.017  1.00 33.88     0.007 C 
HETATM    9  C9  8UH X1620     -35.903 131.755   9.865  1.00 33.88    -0.062 C 
HETATM   10  C10 8UH X1620     -36.308 132.994   9.494  1.00 33.88     0.007 C 
HETATM   11  C11 8UH X1620     -37.345 133.751  10.185  1.00 33.88     0.001 C 
HETATM   12  C12 8UH X1620     -37.727 134.935   9.731  1.00 33.88     0.007 C 
HETATM   13  C13 8UH X1620     -38.826 135.674  10.378  1.00 33.88    -0.062 C 
HETATM   14  C14 8UH X1620     -39.235 136.784   9.742  1.00 33.88     0.007 C 
HETATM   15  C15 8UH X1620     -40.350 137.633  10.163  1.00 33.88     0.001 C 
HETATM   16  C16 8UH X1620     -33.646 127.947   6.330  1.00 33.88     0.019 C 
HETATM   17  C17 8UH X1620     -35.192 129.861   6.675  1.00 33.88     0.019 C 
HETATM   18  C18 8UH X1620     -31.598 130.769   9.708  1.00 33.88     0.015 C 
HETATM   19  C19 8UH X1620     -36.475 131.023  11.060  1.00 33.88     0.048 C 
HETATM   20  C20 8UH X1620     -39.474 135.119  11.619  1.00 33.88     0.048 C 
HETATM   21  O3  8UH X1620     -31.258 131.827   5.399  1.00 33.88    -0.396 OA
ATOM     22  H3  8UH X1620     -30.709 132.495   5.792  1.00  0.00     0.210 HD
HETATM   23  C21 8UH X1620     -49.797 146.597   9.348  1.00 31.86    -0.018 C 
HETATM   24  C22 8UH X1620     -51.209 146.210   9.799  1.00 31.86     0.045 C 
HETATM   25  C23 8UH X1620     -51.383 145.811  11.259  1.00 31.86     0.123 C 
HETATM   26  C24 8UH X1620     -50.225 146.298  12.120  1.00 31.86     0.066 C 
HETATM   27  C25 8UH X1620     -48.972 145.760  11.497  1.00 31.86    -0.074 C 
HETATM   28  C26 8UH X1620     -48.681 146.104  10.243  1.00 31.86    -0.048 C 
HETATM   29  C27 8UH X1620     -47.361 145.842   9.632  1.00 31.86     0.009 C 
HETATM   30  C28 8UH X1620     -46.669 144.763  10.012  1.00 31.86     0.007 C 
HETATM   31  C29 8UH X1620     -45.450 144.354   9.240  1.00 33.88    -0.062 C 
HETATM   32  C30 8UH X1620     -44.903 143.192   9.659  1.00 33.88     0.007 C 
HETATM   33  C31 8UH X1620     -43.733 142.537   9.068  1.00 33.88     0.001 C 
HETATM   34  C32 8UH X1620     -43.317 141.386   9.606  1.00 33.88     0.007 C 
HETATM   35  C33 8UH X1620     -42.150 140.639   9.083  1.00 33.88    -0.062 C 
HETATM   36  C34 8UH X1620     -41.777 139.535   9.762  1.00 33.88     0.007 C 
HETATM   37  C35 8UH X1620     -40.655 138.673   9.392  1.00 33.88     0.001 C 
HETATM   38  C36 8UH X1620     -49.670 148.119   9.357  1.00 31.86     0.020 C 
HETATM   39  C37 8UH X1620     -49.612 146.115   7.918  1.00 31.86     0.020 C 
HETATM   40  C38 8UH X1620     -47.954 145.828  12.601  1.00 31.86     0.044 C 
HETATM   41  C39 8UH X1620     -44.938 145.153   8.065  1.00 33.88     0.048 C 
HETATM   42  C40 8UH X1620     -41.480 141.115   7.821  1.00 33.88     0.048 C 
HETATM   43  O23 8UH X1620     -52.600 146.412  11.696  1.00 31.86    -0.395 OA
ATOM     44  H23 8UH X1620     -52.708 146.163  12.607  1.00  0.00     0.210 HD
ENDROOT
TORSDOF 12
