REMARK VINA RESULT:    -8.368      0.706     16.736
REMARK INTER + INTRA:         -11.313
REMARK INTER:                  -8.950
REMARK INTRA:                  -2.363
REMARK UNBOUND:                -2.945
REMARK  0 active torsions:
REMARK  status: ('A' for Active; 'I' for Inactive)
REMARK       I    between atoms: C3_3  and  O3_21 
REMARK       I    between atoms: C6_6  and  C7_7 
REMARK       I    between atoms: C8_8  and  C9_9 
REMARK       I    between atoms: C10_10  and  C11_11 
REMARK       I    between atoms: C12_12  and  C13_13 
REMARK       I    between atoms: C14_14  and  C15_15 
REMARK       I    between atoms: C23_25  and  O23_43 
REMARK       I    between atoms: C26_28  and  C27_29 
REMARK       I    between atoms: C28_30  and  C29_31 
REMARK       I    between atoms: C30_32  and  C31_33 
REMARK       I    between atoms: C32_34  and  C33_35 
REMARK       I    between atoms: C34_36  and  C35_37 
ROOT
HETATM    1  C1  8UH G1621     -34.630 127.021   6.069  1.00 57.09    -0.018 C 
HETATM    2  C2  8UH G1621     -34.236 126.437   4.719  1.00 57.09     0.045 C 
HETATM    3  C3  8UH G1621     -32.972 126.971   4.071  1.00 57.09     0.123 C 
HETATM    4  C4  8UH G1621     -31.917 127.257   5.115  1.00 57.09     0.066 C 
HETATM    5  C5  8UH G1621     -32.473 128.242   6.101  1.00 57.09    -0.074 C 
HETATM    6  C6  8UH G1621     -33.681 128.052   6.644  1.00 57.09    -0.048 C 
HETATM    7  C7  8UH G1621     -34.128 128.822   7.836  1.00 57.09     0.009 C 
HETATM    8  C8  8UH G1621     -34.615 130.063   7.734  1.00 57.09     0.007 C 
HETATM    9  C9  8UH G1621     -35.088 130.858   8.878  1.00 57.09    -0.062 C 
HETATM   10  C10 8UH G1621     -35.941 131.842   8.584  1.00 57.09     0.007 C 
HETATM   11  C11 8UH G1621     -36.580 132.755   9.523  1.00 57.09     0.001 C 
HETATM   12  C12 8UH G1621     -37.431 133.611   8.968  1.00 57.09     0.007 C 
HETATM   13  C13 8UH G1621     -38.224 134.595   9.716  1.00 57.09    -0.062 C 
HETATM   14  C14 8UH G1621     -38.979 135.467   9.032  1.00 57.09     0.007 C 
HETATM   15  C15 8UH G1621     -39.828 136.437   9.712  1.00 57.09     0.001 C 
HETATM   16  C16 8UH G1621     -34.804 125.853   7.026  1.00 57.09     0.020 C 
HETATM   17  C17 8UH G1621     -35.961 127.715   5.886  1.00 57.09     0.020 C 
HETATM   18  C18 8UH G1621     -31.386 129.004   6.801  1.00 57.09     0.044 C 
HETATM   19  C19 8UH G1621     -34.637 130.580  10.280  1.00 57.09     0.048 C 
HETATM   20  C20 8UH G1621     -38.219 134.582  11.213  1.00 57.09     0.048 C 
HETATM   21  O3  8UH G1621     -32.481 125.964   3.183  1.00 57.09    -0.395 OA
ATOM     22  H3  8UH G1621     -31.690 126.298   2.777  1.00  0.00     0.210 HD
HETATM   23  C21 8UH G1621     -48.771 145.264  11.499  1.00 62.55    -0.018 C 
HETATM   24  C22 8UH G1621     -49.469 145.689  12.789  1.00 62.55     0.045 C 
HETATM   25  C23 8UH G1621     -48.636 146.386  13.861  1.00 62.55     0.123 C 
HETATM   26  C24 8UH G1621     -47.546 147.239  13.243  1.00 62.55     0.066 C 
HETATM   27  C25 8UH G1621     -46.699 146.324  12.401  1.00 62.55    -0.074 C 
HETATM   28  C26 8UH G1621     -47.270 145.503  11.512  1.00 62.55    -0.048 C 
HETATM   29  C27 8UH G1621     -46.425 144.830  10.500  1.00 62.55     0.009 C 
HETATM   30  C28 8UH G1621     -45.881 143.637  10.732  1.00 62.55     0.007 C 
HETATM   31  C29 8UH G1621     -45.033 142.959   9.737  1.00 57.09    -0.062 C 
HETATM   32  C30 8UH G1621     -44.708 141.693  10.009  1.00 57.09     0.007 C 
HETATM   33  C31 8UH G1621     -43.876 140.871   9.145  1.00 57.09     0.001 C 
HETATM   34  C32 8UH G1621     -43.082 140.002   9.757  1.00 57.09     0.007 C 
HETATM   35  C33 8UH G1621     -42.192 139.104   9.022  1.00 57.09    -0.062 C 
HETATM   36  C34 8UH G1621     -41.513 138.157   9.673  1.00 57.09     0.007 C 
HETATM   37  C35 8UH G1621     -40.627 137.218   8.996  1.00 57.09     0.001 C 
HETATM   38  C36 8UH G1621     -49.451 146.002  10.344  1.00 62.55     0.020 C 
HETATM   39  C37 8UH G1621     -48.993 143.770  11.310  1.00 62.55     0.020 C 
HETATM   40  C38 8UH G1621     -45.285 146.803  12.240  1.00 62.55     0.044 C 
HETATM   41  C39 8UH G1621     -44.551 143.653   8.503  1.00 57.09     0.048 C 
HETATM   42  C40 8UH G1621     -42.060 139.298   7.556  1.00 57.09     0.048 C 
HETATM   43  O23 8UH G1621     -49.491 147.216  14.655  1.00 62.55    -0.395 OA
ATOM     44  H23 8UH G1621     -48.972 147.650  15.323  1.00  0.00     0.210 HD
ENDROOT
TORSDOF 12
