REMARK VINA RESULT:   -10.026      0.768     16.548
REMARK INTER + INTRA:         -12.732
REMARK INTER:                 -10.230
REMARK INTRA:                  -2.502
REMARK UNBOUND:                -2.706
REMARK  0 active torsions:
REMARK  status: ('A' for Active; 'I' for Inactive)
REMARK       I    between atoms: C3_3  and  O3_21 
REMARK       I    between atoms: C6_6  and  C7_7 
REMARK       I    between atoms: C8_8  and  C9_9 
REMARK       I    between atoms: C10_10  and  C11_11 
REMARK       I    between atoms: C12_12  and  C13_13 
REMARK       I    between atoms: C14_14  and  C15_15 
REMARK       I    between atoms: C23_25  and  O23_43 
REMARK       I    between atoms: C26_28  and  C27_29 
REMARK       I    between atoms: C28_30  and  C29_31 
REMARK       I    between atoms: C30_32  and  C31_33 
REMARK       I    between atoms: C32_34  and  C33_35 
REMARK       I    between atoms: C34_36  and  C35_37 
ROOT
HETATM    1  C1  8UH V1621     -34.193 127.040   6.730  1.00 16.22    -0.018 C 
HETATM    2  C2  8UH V1621     -34.001 126.790   5.250  1.00 16.22     0.045 C 
HETATM    3  C3  8UH V1621     -33.082 127.758   4.565  1.00 16.22     0.123 C 
HETATM    4  C4  8UH V1621     -31.885 127.929   5.462  1.00 16.22     0.066 C 
HETATM    5  C5  8UH V1621     -32.389 128.678   6.653  1.00 16.22    -0.074 C 
HETATM    6  C6  8UH V1621     -33.455 128.215   7.301  1.00 16.22    -0.048 C 
HETATM    7  C7  8UH V1621     -34.109 128.923   8.410  1.00 16.22     0.009 C 
HETATM    8  C8  8UH V1621     -34.274 130.230   8.239  1.00 16.22     0.007 C 
HETATM    9  C9  8UH V1621     -35.140 130.977   9.168  1.00 16.22    -0.062 C 
HETATM   10  C10 8UH V1621     -35.738 132.078   8.692  1.00 16.22     0.007 C 
HETATM   11  C11 8UH V1621     -36.737 132.840   9.432  1.00 16.22     0.001 C 
HETATM   12  C12 8UH V1621     -37.409 133.806   8.816  1.00 16.22     0.007 C 
HETATM   13  C13 8UH V1621     -38.474 134.561   9.500  1.00 16.22    -0.062 C 
HETATM   14  C14 8UH V1621     -39.187 135.439   8.777  1.00 16.22     0.007 C 
HETATM   15  C15 8UH V1621     -40.281 136.244   9.313  1.00 16.22     0.001 C 
HETATM   16  C16 8UH V1621     -33.635 125.850   7.491  1.00 16.22     0.020 C 
HETATM   17  C17 8UH V1621     -35.672 127.194   6.939  1.00 16.22     0.020 C 
HETATM   18  C18 8UH V1621     -31.413 129.629   7.260  1.00 16.22     0.044 C 
HETATM   19  C19 8UH V1621     -35.402 130.443  10.545  1.00 16.22     0.048 C 
HETATM   20  C20 8UH V1621     -38.723 134.292  10.951  1.00 16.22     0.048 C 
HETATM   21  O3  8UH V1621     -32.733 127.168   3.319  1.00 16.22    -0.395 OA
ATOM     22  H3  8UH V1621     -32.150 127.781   2.885  1.00  0.00     0.210 HD
HETATM   23  C21 8UH V1621     -49.764 144.586  10.573  1.00 94.67    -0.018 C 
HETATM   24  C22 8UH V1621     -50.580 144.931  11.812  1.00 94.67     0.045 C 
HETATM   25  C23 8UH V1621     -49.809 145.448  13.007  1.00 94.67     0.123 C 
HETATM   26  C24 8UH V1621     -48.795 146.456  12.538  1.00 94.67     0.066 C 
HETATM   27  C25 8UH V1621     -47.847 145.809  11.577  1.00 94.67    -0.074 C 
HETATM   28  C26 8UH V1621     -48.295 144.951  10.658  1.00 94.67    -0.048 C 
HETATM   29  C27 8UH V1621     -47.367 144.333   9.680  1.00 94.67     0.009 C 
HETATM   30  C28 8UH V1621     -46.729 143.198   9.957  1.00 94.67     0.007 C 
HETATM   31  C29 8UH V1621     -45.822 142.544   9.014  1.00 16.22    -0.062 C 
HETATM   32  C30 8UH V1621     -45.273 141.381   9.396  1.00 16.22     0.007 C 
HETATM   33  C31 8UH V1621     -44.328 140.618   8.595  1.00 16.22     0.001 C 
HETATM   34  C32 8UH V1621     -43.718 139.573   9.137  1.00 16.22     0.007 C 
HETATM   35  C33 8UH V1621     -42.696 138.817   8.399  1.00 16.22    -0.062 C 
HETATM   36  C34 8UH V1621     -42.006 137.887   9.076  1.00 16.22     0.007 C 
HETATM   37  C35 8UH V1621     -40.925 137.081   8.520  1.00 16.22     0.001 C 
HETATM   38  C36 8UH V1621     -50.445 145.301   9.410  1.00 94.67     0.020 C 
HETATM   39  C37 8UH V1621     -49.841 143.079  10.376  1.00 94.67     0.020 C 
HETATM   40  C38 8UH V1621     -46.410 146.226  11.677  1.00 94.67     0.044 C 
HETATM   41  C39 8UH V1621     -45.607 143.188   7.683  1.00 16.22     0.048 C 
HETATM   42  C40 8UH V1621     -42.454 139.156   6.961  1.00 16.22     0.048 C 
HETATM   43  O23 8UH V1621     -50.718 146.108  13.887  1.00 94.67    -0.395 OA
ATOM     44  H23 8UH V1621     -50.234 146.433  14.637  1.00  0.00     0.210 HD
ENDROOT
TORSDOF 12
