REMARK VINA RESULT:    -9.384      1.929      2.304
REMARK INTER + INTRA:         -11.360
REMARK INTER:                 -11.050
REMARK INTRA:                  -0.310
REMARK UNBOUND:                -1.976
REMARK  0 active torsions:
REMARK  status: ('A' for Active; 'I' for Inactive)
REMARK       I    between atoms: C3_3  and  O3_21 
REMARK       I    between atoms: C6_6  and  C7_7 
REMARK       I    between atoms: C8_8  and  C9_9 
REMARK       I    between atoms: C10_10  and  C11_11 
REMARK       I    between atoms: C12_12  and  C13_13 
REMARK       I    between atoms: C14_14  and  C15_15 
REMARK       I    between atoms: C23_25  and  O23_43 
REMARK       I    between atoms: C26_28  and  C27_29 
REMARK       I    between atoms: C28_30  and  C29_31 
REMARK       I    between atoms: C30_32  and  C31_33 
REMARK       I    between atoms: C32_34  and  C33_35 
REMARK       I    between atoms: C34_36  and  C35_37 
ROOT
HETATM    1  C1  8UH G1621     -50.885 144.472  10.823  1.00 57.09    -0.018 C 
HETATM    2  C2  8UH G1621     -51.712 144.773  12.065  1.00 57.09     0.045 C 
HETATM    3  C3  8UH G1621     -51.169 145.811  13.030  1.00 57.09     0.123 C 
HETATM    4  C4  8UH G1621     -50.486 146.931  12.276  1.00 57.09     0.066 C 
HETATM    5  C5  8UH G1621     -49.386 146.346  11.440  1.00 57.09    -0.074 C 
HETATM    6  C6  8UH G1621     -49.618 145.284  10.661  1.00 57.09    -0.048 C 
HETATM    7  C7  8UH G1621     -48.659 144.873   9.599  1.00 57.09     0.009 C 
HETATM    8  C8  8UH G1621     -47.566 144.154   9.873  1.00 57.09     0.007 C 
HETATM    9  C9  8UH G1621     -46.598 143.708   8.859  1.00 57.09    -0.062 C 
HETATM   10  C10 8UH G1621     -45.853 142.653   9.198  1.00 57.09     0.007 C 
HETATM   11  C11 8UH G1621     -44.847 141.994   8.374  1.00 57.09     0.001 C 
HETATM   12  C12 8UH G1621     -44.285 140.930   8.938  1.00 57.09     0.007 C 
HETATM   13  C13 8UH G1621     -43.278 140.081   8.286  1.00 57.09    -0.062 C 
HETATM   14  C14 8UH G1621     -42.720 139.088   8.992  1.00 57.09     0.007 C 
HETATM   15  C15 8UH G1621     -41.752 138.178   8.394  1.00 57.09     0.001 C 
HETATM   16  C16 8UH G1621     -51.803 144.654   9.623  1.00 57.09     0.020 C 
HETATM   17  C17 8UH G1621     -50.462 143.022  10.906  1.00 57.09     0.020 C 
HETATM   18  C18 8UH G1621     -48.327 147.361  11.126  1.00 57.09     0.044 C 
HETATM   19  C19 8UH G1621     -46.461 144.395   7.535  1.00 57.09     0.048 C 
HETATM   20  C20 8UH G1621     -42.930 140.299   6.846  1.00 57.09     0.048 C 
HETATM   21  O3  8UH G1621     -52.274 146.351  13.756  1.00 57.09    -0.395 OA
ATOM     22  H3  8UH G1621     -52.703 145.647  14.229  1.00  0.00     0.210 HD
HETATM   23  C21 8UH G1621     -34.119 128.051   7.057  1.00 16.39    -0.018 C 
HETATM   24  C22 8UH G1621     -33.403 127.381   5.894  1.00 16.39     0.045 C 
HETATM   25  C23 8UH G1621     -32.314 128.158   5.169  1.00 16.39     0.123 C 
HETATM   26  C24 8UH G1621     -31.600 129.131   6.080  1.00 16.39     0.066 C 
HETATM   27  C25 8UH G1621     -32.620 130.016   6.727  1.00 16.39    -0.074 C 
HETATM   28  C26 8UH G1621     -33.702 129.491   7.303  1.00 16.39    -0.048 C 
HETATM   29  C27 8UH G1621     -34.495 130.316   8.243  1.00 16.39     0.009 C 
HETATM   30  C28 8UH G1621     -35.502 131.097   7.851  1.00 16.39     0.007 C 
HETATM   31  C29 8UH G1621     -36.264 131.907   8.822  1.00 57.09    -0.062 C 
HETATM   32  C30 8UH G1621     -37.363 132.497   8.351  1.00 57.09     0.007 C 
HETATM   33  C31 8UH G1621     -38.236 133.338   9.155  1.00 57.09     0.001 C 
HETATM   34  C32 8UH G1621     -38.803 134.357   8.524  1.00 57.09     0.007 C 
HETATM   35  C33 8UH G1621     -39.710 135.286   9.200  1.00 57.09    -0.062 C 
HETATM   36  C34 8UH G1621     -40.361 136.215   8.495  1.00 57.09     0.007 C 
HETATM   37  C35 8UH G1621     -41.293 137.155   9.104  1.00 57.09     0.001 C 
HETATM   38  C36 8UH G1621     -33.894 127.176   8.283  1.00 16.39     0.020 C 
HETATM   39  C37 8UH G1621     -35.607 128.074   6.744  1.00 16.39     0.020 C 
HETATM   40  C38 8UH G1621     -31.998 131.289   7.218  1.00 16.39     0.044 C 
HETATM   41  C39 8UH G1621     -35.823 132.073  10.242  1.00 57.09     0.048 C 
HETATM   42  C40 8UH G1621     -39.858 135.172  10.672  1.00 57.09     0.048 C 
HETATM   43  O23 8UH G1621     -31.358 127.231   4.650  1.00 16.39    -0.395 OA
ATOM     44  H23 8UH G1621     -30.679 127.716   4.198  1.00  0.00     0.210 HD
ENDROOT
TORSDOF 12
