REMARK VINA RESULT:    -8.452      1.664     16.484
REMARK INTER + INTRA:         -11.227
REMARK INTER:                 -11.014
REMARK INTRA:                  -0.213
REMARK UNBOUND:                -2.775
REMARK  0 active torsions:
REMARK  status: ('A' for Active; 'I' for Inactive)
REMARK       I    between atoms: C3_3  and  O3_21 
REMARK       I    between atoms: C6_6  and  C7_7 
REMARK       I    between atoms: C8_8  and  C9_9 
REMARK       I    between atoms: C10_10  and  C11_11 
REMARK       I    between atoms: C12_12  and  C13_13 
REMARK       I    between atoms: C14_14  and  C15_15 
REMARK       I    between atoms: C23_25  and  O23_43 
REMARK       I    between atoms: C26_28  and  C27_29 
REMARK       I    between atoms: C28_30  and  C29_31 
REMARK       I    between atoms: C30_32  and  C31_33 
REMARK       I    between atoms: C32_34  and  C33_35 
REMARK       I    between atoms: C34_36  and  C35_37 
ROOT
HETATM    1  C1  8UH 61620     -50.050 143.984  12.883  1.00 97.95    -0.018 C 
HETATM    2  C2  8UH 61620     -50.360 144.440  14.305  1.00 97.95     0.045 C 
HETATM    3  C3  8UH 61620     -49.650 145.683  14.810  1.00 97.95     0.123 C 
HETATM    4  C4  8UH 61620     -49.480 146.712  13.716  1.00 97.95     0.066 C 
HETATM    5  C5  8UH 61620     -48.743 146.085  12.571  1.00 97.95    -0.074 C 
HETATM    6  C6  8UH 61620     -49.027 144.843  12.164  1.00 97.95    -0.048 C 
HETATM    7  C7  8UH 61620     -48.344 144.262  10.983  1.00 97.95     0.009 C 
HETATM    8  C8  8UH 61620     -47.196 143.597  11.104  1.00 97.95     0.007 C 
HETATM    9  C9  8UH 61620     -46.508 143.000   9.958  1.00 97.95    -0.062 C 
HETATM   10  C10 8UH 61620     -45.418 142.285  10.225  1.00 97.95     0.007 C 
HETATM   11  C11 8UH 61620     -44.630 141.614   9.208  1.00 97.95     0.001 C 
HETATM   12  C12 8UH 61620     -43.582 140.964   9.683  1.00 97.95     0.007 C 
HETATM   13  C13 8UH 61620     -42.659 140.189   8.846  1.00 97.95    -0.062 C 
HETATM   14  C14 8UH 61620     -41.870 139.340   9.501  1.00 97.95     0.007 C 
HETATM   15  C15 8UH 61620     -40.925 138.460   8.841  1.00 97.95     0.001 C 
HETATM   16  C16 8UH 61620     -51.377 143.950  12.131  1.00 97.95     0.020 C 
HETATM   17  C17 8UH 61620     -49.490 142.570  12.951  1.00 97.95     0.020 C 
HETATM   18  C18 8UH 61620     -47.782 146.981  11.847  1.00 97.95     0.044 C 
HETATM   19  C19 8UH 61620     -47.014 143.185   8.560  1.00 97.95     0.048 C 
HETATM   20  C20 8UH 61620     -42.619 140.329   7.355  1.00 97.95     0.048 C 
HETATM   21  O3  8UH 61620     -50.431 146.274  15.855  1.00 97.95    -0.395 OA
ATOM     22  H3  8UH 61620     -49.986 147.052  16.171  1.00  0.00     0.210 HD
HETATM   23  C21 8UH 61620     -34.057 128.121   7.121  1.00 37.79    -0.018 C 
HETATM   24  C22 8UH 61620     -33.233 127.341   6.112  1.00 37.79     0.045 C 
HETATM   25  C23 8UH 61620     -32.327 128.155   5.218  1.00 37.79     0.123 C 
HETATM   26  C24 8UH 61620     -31.508 129.095   6.062  1.00 37.79     0.066 C 
HETATM   27  C25 8UH 61620     -32.352 129.927   6.978  1.00 37.79    -0.074 C 
HETATM   28  C26 8UH 61620     -33.482 129.463   7.529  1.00 37.79    -0.048 C 
HETATM   29  C27 8UH 61620     -34.189 130.223   8.595  1.00 37.79     0.009 C 
HETATM   30  C28 8UH 61620     -35.032 131.232   8.348  1.00 37.79     0.007 C 
HETATM   31  C29 8UH 61620     -35.726 131.956   9.414  1.00 97.95    -0.062 C 
HETATM   32  C30 8UH 61620     -36.543 132.918   8.998  1.00 97.95     0.007 C 
HETATM   33  C31 8UH 61620     -37.347 133.761   9.860  1.00 97.95     0.001 C 
HETATM   34  C32 8UH 61620     -38.055 134.644   9.177  1.00 97.95     0.007 C 
HETATM   35  C33 8UH 61620     -38.956 135.603   9.811  1.00 97.95    -0.062 C 
HETATM   36  C34 8UH 61620     -39.595 136.457   9.011  1.00 97.95     0.007 C 
HETATM   37  C35 8UH 61620     -40.520 137.428   9.564  1.00 97.95     0.001 C 
HETATM   38  C36 8UH 61620     -34.272 127.184   8.300  1.00 37.79     0.020 C 
HETATM   39  C37 8UH 61620     -35.407 128.418   6.510  1.00 37.79     0.020 C 
HETATM   40  C38 8UH 61620     -31.650 131.159   7.463  1.00 37.79     0.044 C 
HETATM   41  C39 8UH 61620     -35.540 131.629  10.865  1.00 97.95     0.048 C 
HETATM   42  C40 8UH 61620     -39.143 135.615  11.295  1.00 97.95     0.048 C 
HETATM   43  O23 8UH 61620     -31.415 127.264   4.579  1.00 37.79    -0.395 OA
ATOM     44  H23 8UH 61620     -30.845 127.775   4.016  1.00  0.00     0.210 HD
ENDROOT
TORSDOF 12
