REMARK VINA RESULT:    -9.995      0.000      0.000
REMARK INTER + INTRA:         -12.904
REMARK INTER:                  -9.995
REMARK INTRA:                  -2.909
REMARK UNBOUND:                -2.909
REMARK  0 active torsions:
REMARK  status: ('A' for Active; 'I' for Inactive)
REMARK       I    between atoms: C3_3  and  O3_21 
REMARK       I    between atoms: C6_6  and  C7_7 
REMARK       I    between atoms: C8_8  and  C9_9 
REMARK       I    between atoms: C10_10  and  C11_11 
REMARK       I    between atoms: C12_12  and  C13_13 
REMARK       I    between atoms: C14_14  and  C15_15 
REMARK       I    between atoms: C23_25  and  O23_43 
REMARK       I    between atoms: C26_28  and  C27_29 
REMARK       I    between atoms: C28_30  and  C29_31 
REMARK       I    between atoms: C30_32  and  C31_33 
REMARK       I    between atoms: C32_34  and  C33_35 
REMARK       I    between atoms: C34_36  and  C35_37 
ROOT
HETATM    1  C1  8UH s1620     -48.602 144.627  12.015  1.00 51.12    -0.018 C 
HETATM    2  C2  8UH s1620     -49.167 145.022  13.372  1.00 51.12     0.045 C 
HETATM    3  C3  8UH s1620     -48.536 146.177  14.136  1.00 51.12     0.123 C 
HETATM    4  C4  8UH s1620     -47.649 147.047  13.271  1.00 51.12     0.066 C 
HETATM    5  C5  8UH s1620     -46.727 146.182  12.476  1.00 51.12    -0.074 C 
HETATM    6  C6  8UH s1620     -47.231 145.202  11.735  1.00 51.12    -0.048 C 
HETATM    7  C7  8UH s1620     -46.473 144.656  10.594  1.00 51.12     0.009 C 
HETATM    8  C8  8UH s1620     -45.513 143.765  10.797  1.00 51.12     0.007 C 
HETATM    9  C9  8UH s1620     -44.768 143.186   9.683  1.00 51.12    -0.062 C 
HETATM   10  C10 8UH s1620     -43.809 142.326  10.017  1.00 51.12     0.007 C 
HETATM   11  C11 8UH s1620     -42.962 141.600   9.092  1.00 51.12     0.001 C 
HETATM   12  C12 8UH s1620     -42.345 140.592   9.682  1.00 51.12     0.007 C 
HETATM   13  C13 8UH s1620     -41.453 139.660   8.997  1.00 51.12    -0.062 C 
HETATM   14  C14 8UH s1620     -41.006 138.623   9.706  1.00 51.12     0.007 C 
HETATM   15  C15 8UH s1620     -40.154 137.603   9.122  1.00 51.12     0.001 C 
HETATM   16  C16 8UH s1620     -49.622 145.017  10.953  1.00 51.12     0.020 C 
HETATM   17  C17 8UH s1620     -48.462 143.116  11.992  1.00 51.12     0.020 C 
HETATM   18  C18 8UH s1620     -45.648 147.095  11.982  1.00 51.12     0.044 C 
HETATM   19  C19 8UH s1620     -45.101 143.550   8.270  1.00 51.12     0.048 C 
HETATM   20  C20 8UH s1620     -41.084 139.864   7.566  1.00 51.12     0.048 C 
HETATM   21  O3  8UH s1620     -49.583 147.013  14.637  1.00 51.12    -0.395 OA
ATOM     22  H3  8UH s1620     -50.139 146.466  15.179  1.00  0.00     0.210 HD
HETATM   23  C21 8UH s1620     -34.586 126.955   6.154  1.00 57.09    -0.018 C 
HETATM   24  C22 8UH s1620     -34.186 126.303   4.838  1.00 57.09     0.045 C 
HETATM   25  C23 8UH s1620     -32.986 126.881   4.109  1.00 57.09     0.123 C 
HETATM   26  C24 8UH s1620     -31.928 127.323   5.095  1.00 57.09     0.066 C 
HETATM   27  C25 8UH s1620     -32.533 128.336   6.025  1.00 57.09    -0.074 C 
HETATM   28  C26 8UH s1620     -33.706 128.095   6.621  1.00 57.09    -0.048 C 
HETATM   29  C27 8UH s1620     -34.179 128.916   7.768  1.00 57.09     0.009 C 
HETATM   30  C28 8UH s1620     -34.764 130.104   7.593  1.00 57.09     0.007 C 
HETATM   31  C29 8UH s1620     -35.255 130.923   8.692  1.00 51.12    -0.062 C 
HETATM   32  C30 8UH s1620     -36.277 131.745   8.448  1.00 51.12     0.007 C 
HETATM   33  C31 8UH s1620     -36.891 132.597   9.452  1.00 51.12     0.001 C 
HETATM   34  C32 8UH s1620     -37.661 133.568   8.987  1.00 51.12     0.007 C 
HETATM   35  C33 8UH s1620     -38.391 134.512   9.843  1.00 51.12    -0.062 C 
HETATM   36  C34 8UH s1620     -38.976 135.539   9.225  1.00 51.12     0.007 C 
HETATM   37  C35 8UH s1620     -39.785 136.564   9.863  1.00 51.12     0.001 C 
HETATM   38  C36 8UH s1620     -34.642 125.850   7.198  1.00 57.09     0.020 C 
HETATM   39  C37 8UH s1620     -35.973 127.529   5.967  1.00 57.09     0.020 C 
HETATM   40  C38 8UH s1620     -31.489 129.227   6.630  1.00 57.09     0.044 C 
HETATM   41  C39 8UH s1620     -34.627 130.832  10.047  1.00 51.12     0.048 C 
HETATM   42  C40 8UH s1620     -38.491 134.303  11.321  1.00 51.12     0.048 C 
HETATM   43  O23 8UH s1620     -32.443 125.850   3.282  1.00 57.09    -0.395 OA
ATOM     44  H23 8UH s1620     -31.692 126.212   2.825  1.00  0.00     0.210 HD
ENDROOT
TORSDOF 12
