REMARK VINA RESULT:    -9.878      0.000      0.000
REMARK INTER + INTRA:         -13.541
REMARK INTER:                  -9.878
REMARK INTRA:                  -3.664
REMARK UNBOUND:                -3.664
REMARK  0 active torsions:
REMARK  status: ('A' for Active; 'I' for Inactive)
REMARK       I    between atoms: C3_3  and  O3_21 
REMARK       I    between atoms: C6_6  and  C7_7 
REMARK       I    between atoms: C8_8  and  C9_9 
REMARK       I    between atoms: C10_10  and  C11_11 
REMARK       I    between atoms: C12_12  and  C13_13 
REMARK       I    between atoms: C14_14  and  C15_15 
REMARK       I    between atoms: C23_25  and  O23_43 
REMARK       I    between atoms: C26_28  and  C27_29 
REMARK       I    between atoms: C28_30  and  C29_31 
REMARK       I    between atoms: C30_32  and  C31_33 
REMARK       I    between atoms: C32_34  and  C33_35 
REMARK       I    between atoms: C34_36  and  C35_37 
ROOT
HETATM    1  C1  8UH H7620     -48.627 144.871  12.456  1.00 19.07    -0.018 C 
HETATM    2  C2  8UH H7620     -49.321 145.687  13.563  1.00 18.69     0.045 C 
HETATM    3  C3  8UH H7620     -48.450 146.630  14.388  1.00 19.88     0.123 C 
HETATM    4  C4  8UH H7620     -47.330 147.306  13.579  1.00 19.59     0.066 C 
HETATM    5  C5  8UH H7620     -46.694 146.522  12.474  1.00 18.61    -0.074 C 
HETATM    6  C6  8UH H7620     -47.262 145.390  11.927  1.00 18.29    -0.048 C 
HETATM    7  C7  8UH H7620     -46.601 144.647  10.833  1.00 19.20     0.009 C 
HETATM    8  C8  8UH H7620     -45.555 143.786  10.919  1.00 18.47     0.007 C 
HETATM    9  C9  8UH H7620     -44.792 143.179   9.821  1.00 18.73    -0.062 C 
HETATM   10  C10 8UH H7620     -43.848 142.266  10.139  1.00 19.74     0.007 C 
HETATM   11  C11 8UH H7620     -42.987 141.537   9.224  1.00 21.97     0.001 C 
HETATM   12  C12 8UH H7620     -42.207 140.523   9.672  1.00 21.62     0.007 C 
HETATM   13  C13 8UH H7620     -41.301 139.638   8.917  1.00 22.34    -0.062 C 
HETATM   14  C14 8UH H7620     -40.712 138.627   9.594  1.00 21.69     0.007 C 
HETATM   15  C15 8UH H7620     -39.860 137.592   9.079  1.00 22.95     0.001 C 
HETATM   16  C16 8UH H7620     -49.679 144.905  11.332  1.00 17.04     0.020 C 
HETATM   17  C17 8UH H7620     -48.484 143.419  12.952  1.00 20.18     0.020 C 
HETATM   18  C18 8UH H7620     -45.420 147.201  12.129  1.00 19.93     0.044 C 
HETATM   19  C19 8UH H7620     -45.147 143.584   8.414  1.00 16.18     0.048 C 
HETATM   20  C20 8UH H7620     -41.148 139.879   7.444  1.00 18.83     0.048 C 
HETATM   21  O3  8UH H7620     -49.251 147.604  15.039  1.00 19.51    -0.395 OA
ATOM     22  H3  8UH H7620     -48.709 148.191  15.553  1.00  0.00     0.210 HD
HETATM   23  C21 8UH H7620     -33.462 126.436   6.910  1.00 35.06    -0.018 C 
HETATM   24  C22 8UH H7620     -33.997 125.893   5.584  1.00 35.06     0.045 C 
HETATM   25  C23 8UH H7620     -33.688 126.737   4.352  1.00 35.06     0.123 C 
HETATM   26  C24 8UH H7620     -32.510 127.654   4.623  1.00 35.06     0.066 C 
HETATM   27  C25 8UH H7620     -32.937 128.528   5.763  1.00 35.06    -0.074 C 
HETATM   28  C26 8UH H7620     -33.280 127.934   6.907  1.00 35.06    -0.048 C 
HETATM   29  C27 8UH H7620     -33.661 128.699   8.108  1.00 35.06     0.009 C 
HETATM   30  C28 8UH H7620     -34.420 129.774   7.899  1.00 35.06     0.007 C 
HETATM   31  C29 8UH H7620     -35.061 130.537   9.032  1.00 34.32    -0.062 C 
HETATM   32  C30 8UH H7620     -35.805 131.612   8.695  1.00 32.68     0.007 C 
HETATM   33  C31 8UH H7620     -36.537 132.467   9.594  1.00 31.36     0.001 C 
HETATM   34  C32 8UH H7620     -37.220 133.556   9.180  1.00 27.71     0.007 C 
HETATM   35  C33 8UH H7620     -37.999 134.513   9.983  1.00 25.49    -0.062 C 
HETATM   36  C34 8UH H7620     -38.569 135.553   9.335  1.00 25.45     0.007 C 
HETATM   37  C35 8UH H7620     -39.377 136.625   9.877  1.00 24.93     0.001 C 
HETATM   38  C36 8UH H7620     -32.078 125.850   7.164  1.00 35.06     0.020 C 
HETATM   39  C37 8UH H7620     -34.390 126.036   8.047  1.00 35.06     0.020 C 
HETATM   40  C38 8UH H7620     -32.344 129.914   5.682  1.00 35.06     0.044 C 
HETATM   41  C39 8UH H7620     -34.838 130.081  10.446  1.00 34.07     0.048 C 
HETATM   42  C40 8UH H7620     -38.090 134.269  11.460  1.00 21.83     0.048 C 
HETATM   43  O23 8UH H7620     -33.367 125.885   3.248  1.00 35.06    -0.395 OA
ATOM     44  H23 8UH H7620     -34.105 125.311   3.079  1.00  0.00     0.210 HD
ENDROOT
TORSDOF 12
