REMARK VINA RESULT:    -8.572      1.059     16.839
REMARK INTER + INTRA:         -11.380
REMARK INTER:                  -8.745
REMARK INTRA:                  -2.635
REMARK UNBOUND:                -2.808
REMARK  0 active torsions:
REMARK  status: ('A' for Active; 'I' for Inactive)
REMARK       I    between atoms: C3_3  and  O3_21 
REMARK       I    between atoms: C6_6  and  C7_7 
REMARK       I    between atoms: C8_8  and  C9_9 
REMARK       I    between atoms: C10_10  and  C11_11 
REMARK       I    between atoms: C12_12  and  C13_13 
REMARK       I    between atoms: C14_14  and  C15_15 
REMARK       I    between atoms: C23_25  and  O23_43 
REMARK       I    between atoms: C26_28  and  C27_29 
REMARK       I    between atoms: C28_30  and  C29_31 
REMARK       I    between atoms: C30_32  and  C31_33 
REMARK       I    between atoms: C32_34  and  C33_35 
REMARK       I    between atoms: C34_36  and  C35_37 
ROOT
HETATM    1  C1  8UH 8 314     -49.045 145.293  12.664  1.00 73.63    -0.018 C 
HETATM    2  C2  8UH 8 314     -49.778 145.866  13.872  1.00 75.58     0.045 C 
HETATM    3  C3  8UH 8 314     -48.883 146.491  14.929  1.00 77.85     0.123 C 
HETATM    4  C4  8UH 8 314     -47.963 147.514  14.283  1.00 76.46     0.066 C 
HETATM    5  C5  8UH 8 314     -47.172 146.882  13.164  1.00 74.82    -0.074 C 
HETATM    6  C6  8UH 8 314     -47.681 145.907  12.400  1.00 72.89    -0.048 C 
HETATM    7  C7  8UH 8 314     -46.913 145.384  11.244  1.00 69.76     0.009 C 
HETATM    8  C8  8UH 8 314     -45.929 144.500  11.425  1.00 67.74     0.007 C 
HETATM    9  C9  8UH 8 314     -45.148 143.931  10.307  1.00 67.19    -0.062 C 
HETATM   10  C10 8UH 8 314     -44.259 142.972  10.599  1.00 64.55     0.007 C 
HETATM   11  C11 8UH 8 314     -43.421 142.285   9.618  1.00 61.91     0.001 C 
HETATM   12  C12 8UH 8 314     -42.758 141.231  10.090  1.00 60.53     0.007 C 
HETATM   13  C13 8UH 8 314     -41.872 140.368   9.287  1.00 59.33    -0.062 C 
HETATM   14  C14 8UH 8 314     -41.394 139.259   9.877  1.00 60.00     0.007 C 
HETATM   15  C15 8UH 8 314     -40.529 138.297   9.198  1.00 60.35     0.001 C 
HETATM   16  C16 8UH 8 314     -49.934 145.490  11.441  1.00 75.09     0.020 C 
HETATM   17  C17 8UH 8 314     -48.837 143.801  12.891  1.00 73.62     0.020 C 
HETATM   18  C18 8UH 8 314     -45.870 147.538  12.810  1.00 74.16     0.044 C 
HETATM   19  C19 8UH 8 314     -45.353 144.398   8.896  1.00 68.15     0.048 C 
HETATM   20  C20 8UH 8 314     -41.534 140.709   7.866  1.00 57.80     0.048 C 
HETATM   21  O3  8UH 8 314     -49.707 147.144  15.904  1.00 79.25    -0.395 OA
ATOM     22  H3  8UH 8 314     -49.147 147.535  16.565  1.00  0.00     0.210 HD
HETATM   23  C21 8UH 8 314     -34.383 127.537   6.429  1.00 73.56    -0.018 C 
HETATM   24  C22 8UH 8 314     -33.717 126.966   5.175  1.00 73.56     0.045 C 
HETATM   25  C23 8UH 8 314     -32.399 127.582   4.709  1.00 73.56     0.123 C 
HETATM   26  C24 8UH 8 314     -31.588 128.114   5.881  1.00 73.56     0.066 C 
HETATM   27  C25 8UH 8 314     -32.453 129.101   6.616  1.00 73.56    -0.074 C 
HETATM   28  C26 8UH 8 314     -33.677 128.747   7.024  1.00 73.56    -0.048 C 
HETATM   29  C27 8UH 8 314     -34.355 129.516   8.096  1.00 73.56     0.009 C 
HETATM   30  C28 8UH 8 314     -35.054 130.629   7.855  1.00 73.56     0.007 C 
HETATM   31  C29 8UH 8 314     -35.721 131.375   8.944  1.00 75.56    -0.062 C 
HETATM   32  C30 8UH 8 314     -36.604 132.327   8.610  1.00 73.06     0.007 C 
HETATM   33  C31 8UH 8 314     -37.337 133.141   9.578  1.00 70.20     0.001 C 
HETATM   34  C32 8UH 8 314     -38.015 134.167   9.069  1.00 68.68     0.007 C 
HETATM   35  C33 8UH 8 314     -38.834 135.122   9.840  1.00 66.05    -0.062 C 
HETATM   36  C34 8UH 8 314     -39.324 136.196   9.196  1.00 63.06     0.007 C 
HETATM   37  C35 8UH 8 314     -40.163 137.194   9.851  1.00 60.73     0.001 C 
HETATM   38  C36 8UH 8 314     -34.480 126.406   7.452  1.00 73.56     0.020 C 
HETATM   39  C37 8UH 8 314     -35.792 127.984   6.060  1.00 73.56     0.020 C 
HETATM   40  C38 8UH 8 314     -31.570 129.981   7.454  1.00 73.56     0.044 C 
HETATM   41  C39 8UH 8 314     -35.412 131.083  10.384  1.00 73.18     0.048 C 
HETATM   42  C40 8UH 8 314     -39.117 134.899  11.296  1.00 66.25     0.048 C 
HETATM   43  O23 8UH 8 314     -31.635 126.583   4.023  1.00 73.56    -0.395 OA
ATOM     44  H23 8UH 8 314     -30.815 126.966   3.732  1.00  0.00     0.210 HD
ENDROOT
TORSDOF 12
