REMARK VINA RESULT:   -10.788      0.000      0.000
REMARK INTER + INTRA:         -13.921
REMARK INTER:                 -10.788
REMARK INTRA:                  -3.133
REMARK UNBOUND:                -3.133
REMARK  0 active torsions:
REMARK  status: ('A' for Active; 'I' for Inactive)
REMARK       I    between atoms: C3_3  and  O3_21 
REMARK       I    between atoms: C6_6  and  C7_7 
REMARK       I    between atoms: C8_8  and  C9_9 
REMARK       I    between atoms: C10_10  and  C11_11 
REMARK       I    between atoms: C12_12  and  C13_13 
REMARK       I    between atoms: C14_14  and  C15_15 
REMARK       I    between atoms: C23_25  and  O23_43 
REMARK       I    between atoms: C26_28  and  C27_29 
REMARK       I    between atoms: C28_30  and  C29_31 
REMARK       I    between atoms: C30_32  and  C31_33 
REMARK       I    between atoms: C32_34  and  C33_35 
REMARK       I    between atoms: C34_36  and  C35_37 
ROOT
HETATM    1  C1  8UH 8 314     -48.538 144.691  12.028  1.00 73.63    -0.018 C 
HETATM    2  C2  8UH 8 314     -49.276 145.316  13.207  1.00 75.58     0.045 C 
HETATM    3  C3  8UH 8 314     -48.388 146.004  14.230  1.00 77.85     0.123 C 
HETATM    4  C4  8UH 8 314     -47.480 147.003  13.532  1.00 76.46     0.066 C 
HETATM    5  C5  8UH 8 314     -46.683 146.324  12.445  1.00 74.82    -0.074 C 
HETATM    6  C6  8UH 8 314     -47.182 145.307  11.732  1.00 72.89    -0.048 C 
HETATM    7  C7  8UH 8 314     -46.408 144.735  10.603  1.00 69.76     0.009 C 
HETATM    8  C8  8UH 8 314     -45.414 143.872  10.826  1.00 67.74     0.007 C 
HETATM    9  C9  8UH 8 314     -44.628 143.257   9.737  1.00 67.19    -0.062 C 
HETATM   10  C10 8UH 8 314     -43.728 142.324  10.075  1.00 64.55     0.007 C 
HETATM   11  C11 8UH 8 314     -42.882 141.598   9.129  1.00 61.91     0.001 C 
HETATM   12  C12 8UH 8 314     -42.207 140.577   9.652  1.00 60.53     0.007 C 
HETATM   13  C13 8UH 8 314     -41.312 139.684   8.893  1.00 59.33    -0.062 C 
HETATM   14  C14 8UH 8 314     -40.821 138.612   9.536  1.00 60.00     0.007 C 
HETATM   15  C15 8UH 8 314     -39.946 137.627   8.905  1.00 60.35     0.001 C 
HETATM   16  C16 8UH 8 314     -49.430 144.816  10.798  1.00 75.09     0.020 C 
HETATM   17  C17 8UH 8 314     -48.313 143.215  12.330  1.00 73.62     0.020 C 
HETATM   18  C18 8UH 8 314     -45.389 146.977  12.057  1.00 74.16     0.044 C 
HETATM   19  C19 8UH 8 314     -44.839 143.650   8.304  1.00 68.15     0.048 C 
HETATM   20  C20 8UH 8 314     -40.980 139.958   7.456  1.00 57.80     0.048 C 
HETATM   21  O3  8UH 8 314     -49.218 146.695  15.172  1.00 79.25    -0.395 OA
ATOM     22  H3  8UH 8 314     -48.662 147.125  15.812  1.00  0.00     0.210 HD
HETATM   23  C21 8UH 8 314     -33.671 126.669   6.907  1.00 53.78    -0.018 C 
HETATM   24  C22 8UH 8 314     -34.180 126.309   5.511  1.00 53.78     0.045 C 
HETATM   25  C23 8UH 8 314     -33.672 127.195   4.379  1.00 53.78     0.123 C 
HETATM   26  C24 8UH 8 314     -32.385 127.889   4.788  1.00 53.78     0.066 C 
HETATM   27  C25 8UH 8 314     -32.739 128.732   5.977  1.00 53.78    -0.074 C 
HETATM   28  C26 8UH 8 314     -33.268 128.117   7.037  1.00 53.78    -0.048 C 
HETATM   29  C27 8UH 8 314     -33.674 128.874   8.234  1.00 53.78     0.009 C 
HETATM   30  C28 8UH 8 314     -34.384 129.963   7.944  1.00 53.78     0.007 C 
HETATM   31  C29 8UH 8 314     -35.059 130.756   8.992  1.00 75.56    -0.062 C 
HETATM   32  C30 8UH 8 314     -35.954 131.680   8.611  1.00 73.06     0.007 C 
HETATM   33  C31 8UH 8 314     -36.695 132.533   9.539  1.00 70.20     0.001 C 
HETATM   34  C32 8UH 8 314     -37.385 133.525   8.980  1.00 68.68     0.007 C 
HETATM   35  C33 8UH 8 314     -38.214 134.508   9.703  1.00 66.05    -0.062 C 
HETATM   36  C34 8UH 8 314     -38.717 135.542   9.007  1.00 63.06     0.007 C 
HETATM   37  C35 8UH 8 314     -39.566 136.562   9.612  1.00 60.73     0.001 C 
HETATM   38  C36 8UH 8 314     -32.415 125.851   7.199  1.00 53.78     0.020 C 
HETATM   39  C37 8UH 8 314     -34.733 126.344   7.950  1.00 53.78     0.020 C 
HETATM   40  C38 8UH 8 314     -31.994 130.046   6.062  1.00 53.78     0.044 C 
HETATM   41  C39 8UH 8 314     -34.745 130.541  10.444  1.00 73.18     0.048 C 
HETATM   42  C40 8UH 8 314     -38.493 134.355  11.169  1.00 66.25     0.048 C 
HETATM   43  O23 8UH 8 314     -33.422 126.407   3.212  1.00 53.78    -0.395 OA
ATOM     44  H23 8UH 8 314     -34.227 125.973   2.957  1.00  0.00     0.210 HD
ENDROOT
TORSDOF 12
