REMARK VINA RESULT:   -12.528      1.607     16.680
REMARK INTER + INTRA:         -12.802
REMARK INTER:                  -9.618
REMARK INTRA:                  -3.184
REMARK UNBOUND:                -0.274
REMARK  0 active torsions:
REMARK  status: ('A' for Active; 'I' for Inactive)
REMARK       I    between atoms: C3_3  and  O3_21 
REMARK       I    between atoms: C6_6  and  C7_7 
REMARK       I    between atoms: C8_8  and  C9_9 
REMARK       I    between atoms: C10_10  and  C11_11 
REMARK       I    between atoms: C12_12  and  C13_13 
REMARK       I    between atoms: C14_14  and  C15_15 
REMARK       I    between atoms: C23_25  and  O23_43 
REMARK       I    between atoms: C26_28  and  C27_29 
REMARK       I    between atoms: C28_30  and  C29_31 
REMARK       I    between atoms: C30_32  and  C31_33 
REMARK       I    between atoms: C32_34  and  C33_35 
REMARK       I    between atoms: C34_36  and  C35_37 
ROOT
HETATM    1  C1  8UH 6 621     -34.339 127.570   6.366  1.00 27.76    -0.018 C 
HETATM    2  C2  8UH 6 621     -33.707 127.153   5.041  1.00 27.76     0.045 C 
HETATM    3  C3  8UH 6 621     -32.337 127.700   4.661  1.00 27.76     0.123 C 
HETATM    4  C4  8UH 6 621     -31.509 128.075   5.870  1.00 27.76     0.066 C 
HETATM    5  C5  8UH 6 621     -32.323 128.974   6.760  1.00 27.76    -0.074 C 
HETATM    6  C6  8UH 6 621     -33.585 128.675   7.078  1.00 27.76    -0.048 C 
HETATM    7  C7  8UH 6 621     -34.253 129.426   8.169  1.00 27.76     0.009 C 
HETATM    8  C8  8UH 6 621     -35.001 130.514   7.949  1.00 27.76     0.007 C 
HETATM    9  C9  8UH 6 621     -35.641 131.243   9.057  1.00 27.76    -0.062 C 
HETATM   10  C10 8UH 6 621     -36.414 132.306   8.764  1.00 27.76     0.007 C 
HETATM   11  C11 8UH 6 621     -37.113 133.167   9.719  1.00 27.76     0.001 C 
HETATM   12  C12 8UH 6 621     -37.678 134.258   9.212  1.00 27.76     0.007 C 
HETATM   13  C13 8UH 6 621     -38.457 135.286   9.928  1.00 27.76    -0.062 C 
HETATM   14  C14 8UH 6 621     -39.200 136.105   9.171  1.00 27.76     0.007 C 
HETATM   15  C15 8UH 6 621     -40.066 137.159   9.687  1.00 27.76     0.001 C 
HETATM   16  C16 8UH 6 621     -34.454 126.315   7.228  1.00 27.76     0.020 C 
HETATM   17  C17 8UH 6 621     -35.740 128.091   6.088  1.00 27.76     0.020 C 
HETATM   18  C18 8UH 6 621     -31.492 129.879   7.622  1.00 27.76     0.044 C 
HETATM   19  C19 8UH 6 621     -35.406 130.781  10.459  1.00 27.76     0.048 C 
HETATM   20  C20 8UH 6 621     -38.434 135.415  11.417  1.00 27.76     0.048 C 
HETATM   21  O3  8UH 6 621     -31.623 126.713   3.911  1.00 27.76    -0.395 OA
ATOM     22  H3  8UH 6 621     -30.769 127.054   3.675  1.00  0.00     0.210 HD
HETATM   23  C21 8UH 6 621     -49.953 144.914   9.294  1.00 56.99    -0.018 C 
HETATM   24  C22 8UH 6 621     -50.644 145.433  10.554  1.00 56.99     0.045 C 
HETATM   25  C23 8UH 6 621     -49.967 146.560  11.323  1.00 56.99     0.123 C 
HETATM   26  C24 8UH 6 621     -49.164 147.462  10.408  1.00 56.99     0.066 C 
HETATM   27  C25 8UH 6 621     -48.190 146.623   9.631  1.00 56.99    -0.074 C 
HETATM   28  C26 8UH 6 621     -48.562 145.474   9.069  1.00 56.99    -0.048 C 
HETATM   29  C27 8UH 6 621     -47.609 144.739   8.194  1.00 56.99     0.009 C 
HETATM   30  C28 8UH 6 621     -46.827 143.770   8.674  1.00 56.99     0.007 C 
HETATM   31  C29 8UH 6 621     -45.871 143.009   7.861  1.00 27.76    -0.062 C 
HETATM   32  C30 8UH 6 621     -45.306 141.956   8.457  1.00 27.76     0.007 C 
HETATM   33  C31 8UH 6 621     -44.350 141.046   7.842  1.00 27.76     0.001 C 
HETATM   34  C32 8UH 6 621     -43.698 140.267   8.696  1.00 27.76     0.007 C 
HETATM   35  C33 8UH 6 621     -42.715 139.255   8.295  1.00 27.76    -0.062 C 
HETATM   36  C34 8UH 6 621     -41.962 138.651   9.229  1.00 27.76     0.007 C 
HETATM   37  C35 8UH 6 621     -40.999 137.618   8.854  1.00 27.76     0.001 C 
HETATM   38  C36 8UH 6 621     -50.872 145.184   8.104  1.00 56.99     0.020 C 
HETATM   39  C37 8UH 6 621     -49.806 143.414   9.445  1.00 56.99     0.020 C 
HETATM   40  C38 8UH 6 621     -46.879 147.267   9.315  1.00 56.99     0.044 C 
HETATM   41  C39 8UH 6 621     -45.561 143.394   6.446  1.00 27.76     0.048 C 
HETATM   42  C40 8UH 6 621     -42.598 138.895   6.851  1.00 27.76     0.048 C 
HETATM   43  O23 8UH 6 621     -50.974 147.351  11.960  1.00 56.99    -0.395 OA
ATOM     44  H23 8UH 6 621     -50.551 148.054  12.440  1.00  0.00     0.210 HD
ENDROOT
TORSDOF 12
