REMARK VINA RESULT:   -10.119      1.353      1.623
REMARK INTER + INTRA:         -10.832
REMARK INTER:                  -8.295
REMARK INTRA:                  -2.537
REMARK UNBOUND:                -0.713
REMARK  0 active torsions:
REMARK  status: ('A' for Active; 'I' for Inactive)
REMARK       I    between atoms: C3_3  and  O3_21 
REMARK       I    between atoms: C6_6  and  C7_7 
REMARK       I    between atoms: C8_8  and  C9_9 
REMARK       I    between atoms: C10_10  and  C11_11 
REMARK       I    between atoms: C12_12  and  C13_13 
REMARK       I    between atoms: C14_14  and  C15_15 
REMARK       I    between atoms: C23_25  and  O23_43 
REMARK       I    between atoms: C26_28  and  C27_29 
REMARK       I    between atoms: C28_30  and  C29_31 
REMARK       I    between atoms: C30_32  and  C31_33 
REMARK       I    between atoms: C32_34  and  C33_35 
REMARK       I    between atoms: C34_36  and  C35_37 
ROOT
HETATM    1  C1  8UH r 620     -34.694 127.571   6.174  1.00 48.79    -0.018 C 
HETATM    2  C2  8UH r 620     -34.302 127.359   4.718  1.00 49.38     0.045 C 
HETATM    3  C3  8UH r 620     -32.811 127.235   4.408  1.00 51.85     0.123 C 
HETATM    4  C4  8UH r 620     -31.958 128.259   5.136  1.00 54.16     0.066 C 
HETATM    5  C5  8UH r 620     -32.500 128.739   6.454  1.00 52.93    -0.074 C 
HETATM    6  C6  8UH r 620     -33.766 128.555   6.865  1.00 53.44    -0.048 C 
HETATM    7  C7  8UH r 620     -34.280 129.306   8.043  1.00 56.18     0.009 C 
HETATM    8  C8  8UH r 620     -35.020 130.410   7.914  1.00 54.04     0.007 C 
HETATM    9  C9  8UH r 620     -35.559 131.161   9.054  1.00 57.87    -0.062 C 
HETATM   10  C10 8UH r 620     -36.177 132.303   8.766  1.00 59.37     0.007 C 
HETATM   11  C11 8UH r 620     -36.798 133.173   9.749  1.00 54.77     0.001 C 
HETATM   12  C12 8UH r 620     -37.512 134.144   9.208  1.00 53.15     0.007 C 
HETATM   13  C13 8UH r 620     -38.263 135.129   9.984  1.00 52.91    -0.062 C 
HETATM   14  C14 8UH r 620     -39.053 135.931   9.278  1.00 56.79     0.007 C 
HETATM   15  C15 8UH r 620     -39.900 136.934   9.892  1.00 60.51     0.001 C 
HETATM   16  C16 8UH r 620     -34.694 126.236   6.902  1.00 50.92     0.020 C 
HETATM   17  C17 8UH r 620     -36.123 128.105   6.202  1.00 48.05     0.020 C 
HETATM   18  C18 8UH r 620     -31.666 129.882   6.934  1.00 55.82     0.044 C 
HETATM   19  C19 8UH r 620     -35.436 130.668  10.462  1.00 58.46     0.048 C 
HETATM   20  C20 8UH r 620     -38.171 135.209  11.477  1.00 55.54     0.048 C 
HETATM   21  O3  8UH r 620     -32.320 125.912   4.659  1.00 50.70    -0.395 OA
ATOM     22  H3  8UH r 620     -32.853 125.271   4.203  1.00  0.00     0.210 HD
HETATM   23  C21 8UH r 620     -49.036 144.841  12.022  1.00 20.77    -0.018 C 
HETATM   24  C22 8UH r 620     -49.739 145.229  13.333  1.00 19.21     0.045 C 
HETATM   25  C23 8UH r 620     -49.171 146.337  14.216  1.00 20.68     0.123 C 
HETATM   26  C24 8UH r 620     -47.872 146.982  13.720  1.00 17.77     0.066 C 
HETATM   27  C25 8UH r 620     -47.113 146.415  12.566  1.00 19.05    -0.074 C 
HETATM   28  C26 8UH r 620     -47.610 145.419  11.747  1.00 19.48    -0.048 C 
HETATM   29  C27 8UH r 620     -46.883 144.818  10.595  1.00 16.56     0.009 C 
HETATM   30  C28 8UH r 620     -45.918 143.864  10.690  1.00 15.55     0.007 C 
HETATM   31  C29 8UH r 620     -45.159 143.277   9.625  1.00 46.41    -0.062 C 
HETATM   32  C30 8UH r 620     -44.631 142.091   9.890  1.00 51.67     0.007 C 
HETATM   33  C31 8UH r 620     -43.838 141.311   8.969  1.00 48.57     0.001 C 
HETATM   34  C32 8UH r 620     -43.146 140.385   9.598  1.00 50.80     0.007 C 
HETATM   35  C33 8UH r 620     -42.264 139.458   8.900  1.00 54.69    -0.062 C 
HETATM   36  C34 8UH r 620     -41.616 138.569   9.650  1.00 55.71     0.007 C 
HETATM   37  C35 8UH r 620     -40.726 137.580   9.082  1.00 57.66     0.001 C 
HETATM   38  C36 8UH r 620     -50.019 145.319  10.924  1.00 20.67     0.020 C 
HETATM   39  C37 8UH r 620     -49.013 143.299  11.995  1.00 19.98     0.020 C 
HETATM   40  C38 8UH r 620     -45.795 147.103  12.478  1.00 17.40     0.044 C 
HETATM   41  C39 8UH r 620     -44.992 143.961   8.306  1.00 47.78     0.048 C 
HETATM   42  C40 8UH r 620     -42.105 139.543   7.415  1.00 56.30     0.048 C 
HETATM   43  O23 8UH r 620     -50.160 147.332  14.466  1.00 20.33    -0.395 OA
ATOM     44  H23 8UH r 620     -49.806 148.022  15.016  1.00  0.00     0.210 HD
ENDROOT
TORSDOF 12
