REMARK VINA RESULT:    -8.193      2.102      3.215
REMARK INTER + INTRA:         -11.326
REMARK INTER:                  -8.200
REMARK INTRA:                  -3.126
REMARK UNBOUND:                -3.133
REMARK  0 active torsions:
REMARK  status: ('A' for Active; 'I' for Inactive)
REMARK       I    between atoms: C3_3  and  O3_21 
REMARK       I    between atoms: C6_6  and  C7_7 
REMARK       I    between atoms: C8_8  and  C9_9 
REMARK       I    between atoms: C10_10  and  C11_11 
REMARK       I    between atoms: C12_12  and  C13_13 
REMARK       I    between atoms: C14_14  and  C15_15 
REMARK       I    between atoms: C23_25  and  O23_43 
REMARK       I    between atoms: C26_28  and  C27_29 
REMARK       I    between atoms: C28_30  and  C29_31 
REMARK       I    between atoms: C30_32  and  C31_33 
REMARK       I    between atoms: C32_34  and  C33_35 
REMARK       I    between atoms: C34_36  and  C35_37 
ROOT
HETATM    1  C1  8UH 8 314     -48.870 147.670   8.889  1.00 73.63    -0.018 C 
HETATM    2  C2  8UH 8 314     -50.360 147.980   8.783  1.00 75.58     0.045 C 
HETATM    3  C3  8UH 8 314     -51.223 147.372   9.875  1.00 77.85     0.123 C 
HETATM    4  C4  8UH 8 314     -50.661 147.740  11.238  1.00 76.46     0.066 C 
HETATM    5  C5  8UH 8 314     -49.216 147.317  11.347  1.00 74.82    -0.074 C 
HETATM    6  C6  8UH 8 314     -48.393 147.331  10.290  1.00 72.89    -0.048 C 
HETATM    7  C7  8UH 8 314     -46.955 147.008  10.458  1.00 69.76     0.009 C 
HETATM    8  C8  8UH 8 314     -46.547 145.740  10.548  1.00 67.74     0.007 C 
HETATM    9  C9  8UH 8 314     -45.126 145.364  10.693  1.00 67.19    -0.062 C 
HETATM   10  C10 8UH 8 314     -44.826 144.058  10.664  1.00 64.55     0.007 C 
HETATM   11  C11 8UH 8 314     -43.475 143.510  10.771  1.00 61.91     0.001 C 
HETATM   12  C12 8UH 8 314     -43.379 142.207  10.517  1.00 60.53     0.007 C 
HETATM   13  C13 8UH 8 314     -42.121 141.437  10.536  1.00 59.33    -0.062 C 
HETATM   14  C14 8UH 8 314     -42.172 140.163  10.114  1.00 60.00     0.007 C 
HETATM   15  C15 8UH 8 314     -41.003 139.290  10.051  1.00 60.35     0.001 C 
HETATM   16  C16 8UH 8 314     -48.102 148.881   8.372  1.00 75.09     0.020 C 
HETATM   17  C17 8UH 8 314     -48.564 146.472   8.000  1.00 73.62     0.020 C 
HETATM   18  C18 8UH 8 314     -48.689 147.083  12.731  1.00 74.16     0.044 C 
HETATM   19  C19 8UH 8 314     -44.056 146.404  10.852  1.00 68.15     0.048 C 
HETATM   20  C20 8UH 8 314     -40.837 142.061  10.996  1.00 57.80     0.048 C 
HETATM   21  O3  8UH 8 314     -52.553 147.891   9.756  1.00 79.25    -0.395 OA
ATOM     22  H3  8UH 8 314     -53.093 147.510  10.439  1.00  0.00     0.210 HD
HETATM   23  C21 8UH 8 314     -33.532 129.438   6.800  1.00 53.78    -0.018 C 
HETATM   24  C22 8UH 8 314     -32.331 130.182   6.215  1.00 53.78     0.045 C 
HETATM   25  C23 8UH 8 314     -31.471 130.935   7.225  1.00 53.78     0.123 C 
HETATM   26  C24 8UH 8 314     -31.666 130.361   8.617  1.00 53.78     0.066 C 
HETATM   27  C25 8UH 8 314     -33.119 130.559   8.936  1.00 53.78    -0.074 C 
HETATM   28  C26 8UH 8 314     -34.014 130.022   8.105  1.00 53.78    -0.048 C 
HETATM   29  C27 8UH 8 314     -35.461 130.195   8.326  1.00 53.78     0.009 C 
HETATM   30  C28 8UH 8 314     -35.797 131.455   8.598  1.00 53.78     0.007 C 
HETATM   31  C29 8UH 8 314     -37.208 131.890   8.658  1.00 75.56    -0.062 C 
HETATM   32  C30 8UH 8 314     -37.466 133.206   8.685  1.00 73.06     0.007 C 
HETATM   33  C31 8UH 8 314     -38.811 133.776   8.743  1.00 70.20     0.001 C 
HETATM   34  C32 8UH 8 314     -38.870 135.087   8.967  1.00 68.68     0.007 C 
HETATM   35  C33 8UH 8 314     -40.105 135.888   9.058  1.00 66.05    -0.062 C 
HETATM   36  C34 8UH 8 314     -39.998 137.170   9.447  1.00 63.06     0.007 C 
HETATM   37  C35 8UH 8 314     -41.148 138.061   9.553  1.00 60.73     0.001 C 
HETATM   38  C36 8UH 8 314     -33.119 128.000   7.105  1.00 53.78     0.020 C 
HETATM   39  C37 8UH 8 314     -34.678 129.427   5.796  1.00 53.78     0.020 C 
HETATM   40  C38 8UH 8 314     -33.409 130.864  10.388  1.00 53.78     0.044 C 
HETATM   41  C39 8UH 8 314     -38.324 130.886   8.697  1.00 73.18     0.048 C 
HETATM   42  C40 8UH 8 314     -41.440 135.291   8.721  1.00 66.25     0.048 C 
HETATM   43  O23 8UH 8 314     -30.089 130.826   6.870  1.00 53.78    -0.395 OA
ATOM     44  H23 8UH 8 314     -29.967 131.185   5.999  1.00  0.00     0.210 HD
ENDROOT
TORSDOF 12
