REMARK VINA RESULT:   -10.314      2.288      3.482
REMARK INTER + INTRA:         -10.459
REMARK INTER:                  -7.374
REMARK INTRA:                  -3.085
REMARK UNBOUND:                -0.146
REMARK  0 active torsions:
REMARK  status: ('A' for Active; 'I' for Inactive)
REMARK       I    between atoms: C3_3  and  O3_21 
REMARK       I    between atoms: C6_6  and  C7_7 
REMARK       I    between atoms: C8_8  and  C9_9 
REMARK       I    between atoms: C10_10  and  C11_11 
REMARK       I    between atoms: C12_12  and  C13_13 
REMARK       I    between atoms: C14_14  and  C15_15 
REMARK       I    between atoms: C23_25  and  O23_43 
REMARK       I    between atoms: C26_28  and  C27_29 
REMARK       I    between atoms: C28_30  and  C29_31 
REMARK       I    between atoms: C30_32  and  C31_33 
REMARK       I    between atoms: C32_34  and  C33_35 
REMARK       I    between atoms: C34_36  and  C35_37 
ROOT
HETATM    1  C1  8UH X1621     -33.581 130.854   7.585  1.00 31.86    -0.018 C 
HETATM    2  C2  8UH X1621     -32.116 131.099   7.960  1.00 31.86     0.045 C 
HETATM    3  C3  8UH X1621     -31.735 130.897   9.423  1.00 31.86     0.123 C 
HETATM    4  C4  8UH X1621     -32.765 130.056  10.164  1.00 31.86     0.066 C 
HETATM    5  C5  8UH X1621     -34.088 130.735   9.978  1.00 31.86    -0.074 C 
HETATM    6  C6  8UH X1621     -34.556 130.901   8.742  1.00 31.86    -0.048 C 
HETATM    7  C7  8UH X1621     -35.946 131.318   8.466  1.00 31.86     0.009 C 
HETATM    8  C8  8UH X1621     -36.569 132.125   9.331  1.00 31.86     0.007 C 
HETATM    9  C9  8UH X1621     -37.862 132.724   8.931  1.00 31.86    -0.062 C 
HETATM   10  C10 8UH X1621     -38.203 133.886   9.525  1.00 31.86     0.007 C 
HETATM   11  C11 8UH X1621     -39.358 134.685   9.122  1.00 31.86     0.001 C 
HETATM   12  C12 8UH X1621     -39.470 135.936   9.563  1.00 31.86     0.007 C 
HETATM   13  C13 8UH X1621     -40.571 136.818   9.115  1.00 31.86    -0.062 C 
HETATM   14  C14 8UH X1621     -40.521 138.111   9.499  1.00 31.86     0.007 C 
HETATM   15  C15 8UH X1621     -41.515 139.118   9.122  1.00 31.86     0.001 C 
HETATM   16  C16 8UH X1621     -33.719 129.448   7.005  1.00 31.86     0.020 C 
HETATM   17  C17 8UH X1621     -33.962 131.853   6.503  1.00 31.86     0.020 C 
HETATM   18  C18 8UH X1621     -34.941 130.188  11.088  1.00 31.86     0.044 C 
HETATM   19  C19 8UH X1621     -38.683 132.086   7.834  1.00 31.86     0.048 C 
HETATM   20  C20 8UH X1621     -41.655 136.243   8.239  1.00 31.86     0.048 C 
HETATM   21  O3  8UH X1621     -30.474 130.232   9.420  1.00 31.86    -0.395 OA
ATOM     22  H3  8UH X1621     -29.832 130.757   8.957  1.00  0.00     0.210 HD
HETATM   23  C21 8UH X1621     -47.985 150.527   8.712  1.00 27.99    -0.018 C 
HETATM   24  C22 8UH X1621     -48.800 151.046   7.520  1.00 27.99     0.045 C 
HETATM   25  C23 8UH X1621     -49.618 149.996   6.781  1.00 27.99     0.123 C 
HETATM   26  C24 8UH X1621     -50.251 149.070   7.801  1.00 27.99     0.066 C 
HETATM   27  C25 8UH X1621     -49.108 148.334   8.438  1.00 27.99    -0.074 C 
HETATM   28  C26 8UH X1621     -48.112 149.035   8.991  1.00 27.99    -0.048 C 
HETATM   29  C27 8UH X1621     -46.981 148.381   9.688  1.00 27.99     0.009 C 
HETATM   30  C28 8UH X1621     -46.523 147.226   9.188  1.00 27.99     0.007 C 
HETATM   31  C29 8UH X1621     -45.242 146.663   9.697  1.00 31.86    -0.062 C 
HETATM   32  C30 8UH X1621     -44.888 145.463   9.192  1.00 31.86     0.007 C 
HETATM   33  C31 8UH X1621     -43.695 144.721   9.600  1.00 31.86     0.001 C 
HETATM   34  C32 8UH X1621     -43.517 143.484   9.140  1.00 31.86     0.007 C 
HETATM   35  C33 8UH X1621     -42.377 142.649   9.573  1.00 31.86    -0.062 C 
HETATM   36  C34 8UH X1621     -42.380 141.362   9.168  1.00 31.86     0.007 C 
HETATM   37  C35 8UH X1621     -41.368 140.371   9.539  1.00 31.86     0.001 C 
HETATM   38  C36 8UH X1621     -48.552 151.173   9.977  1.00 27.99     0.020 C 
HETATM   39  C37 8UH X1621     -46.529 150.948   8.519  1.00 27.99     0.020 C 
HETATM   40  C38 8UH X1621     -49.563 147.003   8.972  1.00 27.99     0.044 C 
HETATM   41  C39 8UH X1621     -44.431 147.436  10.707  1.00 31.86     0.048 C 
HETATM   42  C40 8UH X1621     -41.322 143.247  10.467  1.00 31.86     0.048 C 
HETATM   43  O23 8UH X1621     -50.630 150.624   5.983  1.00 27.99    -0.395 OA
ATOM     44  H23 8UH X1621     -50.232 151.204   5.344  1.00  0.00     0.210 HD
ENDROOT
TORSDOF 12
