REMARK VINA RESULT:    -7.616      2.301      3.429
REMARK INTER + INTRA:         -11.280
REMARK INTER:                  -8.488
REMARK INTRA:                  -2.791
REMARK UNBOUND:                -3.664
REMARK  0 active torsions:
REMARK  status: ('A' for Active; 'I' for Inactive)
REMARK       I    between atoms: C3_3  and  O3_21 
REMARK       I    between atoms: C6_6  and  C7_7 
REMARK       I    between atoms: C8_8  and  C9_9 
REMARK       I    between atoms: C10_10  and  C11_11 
REMARK       I    between atoms: C12_12  and  C13_13 
REMARK       I    between atoms: C14_14  and  C15_15 
REMARK       I    between atoms: C23_25  and  O23_43 
REMARK       I    between atoms: C26_28  and  C27_29 
REMARK       I    between atoms: C28_30  and  C29_31 
REMARK       I    between atoms: C30_32  and  C31_33 
REMARK       I    between atoms: C32_34  and  C33_35 
REMARK       I    between atoms: C34_36  and  C35_37 
ROOT
HETATM    1  C1  8UH H7620     -48.847 148.321   8.862  1.00 19.07    -0.018 C 
HETATM    2  C2  8UH H7620     -50.308 148.813   8.850  1.00 18.69     0.045 C 
HETATM    3  C3  8UH H7620     -51.180 148.444  10.047  1.00 19.88     0.123 C 
HETATM    4  C4  8UH H7620     -50.425 148.440  11.387  1.00 19.59     0.066 C 
HETATM    5  C5  8UH H7620     -48.992 148.007  11.381  1.00 18.61    -0.074 C 
HETATM    6  C6  8UH H7620     -48.228 147.939  10.235  1.00 18.29    -0.048 C 
HETATM    7  C7  8UH H7620     -46.814 147.508  10.274  1.00 19.20     0.009 C 
HETATM    8  C8  8UH H7620     -46.326 146.247  10.384  1.00 18.47     0.007 C 
HETATM    9  C9  8UH H7620     -44.933 145.832  10.591  1.00 18.73    -0.062 C 
HETATM   10  C10 8UH H7620     -44.660 144.508  10.571  1.00 19.74     0.007 C 
HETATM   11  C11 8UH H7620     -43.363 143.877  10.742  1.00 21.97     0.001 C 
HETATM   12  C12 8UH H7620     -43.210 142.547  10.522  1.00 21.62     0.007 C 
HETATM   13  C13 8UH H7620     -41.990 141.722  10.599  1.00 22.34    -0.062 C 
HETATM   14  C14 8UH H7620     -42.091 140.427  10.225  1.00 21.69     0.007 C 
HETATM   15  C15 8UH H7620     -41.046 139.446  10.135  1.00 22.95     0.001 C 
HETATM   16  C16 8UH H7620     -48.104 149.528   8.262  1.00 17.04     0.020 C 
HETATM   17  C17 8UH H7620     -48.734 147.137   7.883  1.00 20.18     0.020 C 
HETATM   18  C18 8UH H7620     -48.618 147.705  12.785  1.00 19.93     0.044 C 
HETATM   19  C19 8UH H7620     -43.899 146.914  10.768  1.00 16.18     0.048 C 
HETATM   20  C20 8UH H7620     -40.715 142.390  11.020  1.00 18.83     0.048 C 
HETATM   21  O3  8UH H7620     -52.313 149.296  10.117  1.00 19.51    -0.395 OA
ATOM     22  H3  8UH H7620     -52.857 149.067  10.861  1.00  0.00     0.210 HD
HETATM   23  C21 8UH H7620     -33.505 129.315   6.884  1.00 35.06    -0.018 C 
HETATM   24  C22 8UH H7620     -32.245 129.911   6.255  1.00 35.06     0.045 C 
HETATM   25  C23 8UH H7620     -31.366 130.735   7.190  1.00 35.06     0.123 C 
HETATM   26  C24 8UH H7620     -31.655 130.379   8.636  1.00 35.06     0.066 C 
HETATM   27  C25 8UH H7620     -33.102 130.711   8.848  1.00 35.06    -0.074 C 
HETATM   28  C26 8UH H7620     -33.999 130.098   8.076  1.00 35.06    -0.048 C 
HETATM   29  C27 8UH H7620     -35.450 130.307   8.237  1.00 35.06     0.009 C 
HETATM   30  C28 8UH H7620     -35.835 131.556   8.491  1.00 35.06     0.007 C 
HETATM   31  C29 8UH H7620     -37.287 131.968   8.475  1.00 34.32    -0.062 C 
HETATM   32  C30 8UH H7620     -37.552 133.263   8.753  1.00 32.68     0.007 C 
HETATM   33  C31 8UH H7620     -38.849 133.891   8.762  1.00 31.36     0.001 C 
HETATM   34  C32 8UH H7620     -39.036 135.185   9.099  1.00 27.71     0.007 C 
HETATM   35  C33 8UH H7620     -40.294 135.948   9.158  1.00 25.49    -0.062 C 
HETATM   36  C34 8UH H7620     -40.226 137.236   9.562  1.00 25.45     0.007 C 
HETATM   37  C35 8UH H7620     -41.297 138.197   9.707  1.00 24.93     0.001 C 
HETATM   38  C36 8UH H7620     -33.186 127.919   7.408  1.00 35.06     0.020 C 
HETATM   39  C37 8UH H7620     -34.609 129.216   5.843  1.00 35.06     0.020 C 
HETATM   40  C38 8UH H7620     -33.387 131.182  10.253  1.00 35.06     0.044 C 
HETATM   41  C39 8UH H7620     -38.340 130.943   8.169  1.00 34.07     0.048 C 
HETATM   42  C40 8UH H7620     -41.557 135.235   8.778  1.00 21.83     0.048 C 
HETATM   43  O23 8UH H7620     -29.986 130.472   6.916  1.00 35.06    -0.395 OA
ATOM     44  H23 8UH H7620     -29.805 130.695   6.010  1.00  0.00     0.210 HD
ENDROOT
TORSDOF 12
