REMARK VINA RESULT:    -9.233      0.806      1.066
REMARK INTER + INTRA:         -11.752
REMARK INTER:                  -8.732
REMARK INTRA:                  -3.020
REMARK UNBOUND:                -2.519
REMARK  0 active torsions:
REMARK  status: ('A' for Active; 'I' for Inactive)
REMARK       I    between atoms: C3_3  and  O3_21 
REMARK       I    between atoms: C6_6  and  C7_7 
REMARK       I    between atoms: C8_8  and  C9_9 
REMARK       I    between atoms: C10_10  and  C11_11 
REMARK       I    between atoms: C12_12  and  C13_13 
REMARK       I    between atoms: C14_14  and  C15_15 
REMARK       I    between atoms: C23_25  and  O23_43 
REMARK       I    between atoms: C26_28  and  C27_29 
REMARK       I    between atoms: C28_30  and  C29_31 
REMARK       I    between atoms: C30_32  and  C31_33 
REMARK       I    between atoms: C32_34  and  C33_35 
REMARK       I    between atoms: C34_36  and  C35_37 
ROOT
HETATM    1  C1  8UH Y1620     -34.290 128.115   7.013  1.00 33.25    -0.018 C 
HETATM    2  C2  8UH Y1620     -33.621 127.905   5.663  1.00 33.25     0.045 C 
HETATM    3  C3  8UH Y1620     -32.336 128.669   5.399  1.00 33.25     0.123 C 
HETATM    4  C4  8UH Y1620     -31.518 128.807   6.650  1.00 33.25     0.066 C 
HETATM    5  C5  8UH Y1620     -32.321 129.476   7.708  1.00 33.25    -0.074 C 
HETATM    6  C6  8UH Y1620     -33.600 129.148   7.888  1.00 33.25    -0.048 C 
HETATM    7  C7  8UH Y1620     -34.362 129.795   8.971  1.00 33.25     0.009 C 
HETATM    8  C8  8UH Y1620     -35.071 130.882   8.711  1.00 33.25     0.007 C 
HETATM    9  C9  8UH Y1620     -35.858 131.578   9.720  1.00 33.25    -0.062 C 
HETATM   10  C10 8UH Y1620     -36.329 132.755   9.331  1.00 33.25     0.007 C 
HETATM   11  C11 8UH Y1620     -37.156 133.630  10.123  1.00 33.25     0.001 C 
HETATM   12  C12 8UH Y1620     -37.758 134.531   9.375  1.00 33.25     0.007 C 
HETATM   13  C13 8UH Y1620     -38.693 135.499   9.920  1.00 33.25    -0.062 C 
HETATM   14  C14 8UH Y1620     -39.294 136.305   9.056  1.00 33.25     0.007 C 
HETATM   15  C15 8UH Y1620     -40.287 137.252   9.509  1.00 33.25     0.001 C 
HETATM   16  C16 8UH Y1620     -34.379 126.745   7.677  1.00 33.25     0.020 C 
HETATM   17  C17 8UH Y1620     -35.700 128.607   6.740  1.00 33.25     0.020 C 
HETATM   18  C18 8UH Y1620     -31.583 130.453   8.567  1.00 33.25     0.044 C 
HETATM   19  C19 8UH Y1620     -36.089 130.991  11.076  1.00 33.25     0.048 C 
HETATM   20  C20 8UH Y1620     -38.982 135.540  11.381  1.00 33.25     0.048 C 
HETATM   21  O3  8UH Y1620     -31.541 127.943   4.464  1.00 33.25    -0.395 OA
ATOM     22  H3  8UH Y1620     -30.737 128.421   4.299  1.00  0.00     0.210 HD
HETATM   23  C21 8UH Y1620     -50.201 144.640   8.991  1.00 97.95    -0.018 C 
HETATM   24  C22 8UH Y1620     -51.131 144.970  10.153  1.00 97.95     0.045 C 
HETATM   25  C23 8UH Y1620     -50.599 145.901  11.230  1.00 97.95     0.123 C 
HETATM   26  C24 8UH Y1620     -49.717 146.981  10.647  1.00 97.95     0.066 C 
HETATM   27  C25 8UH Y1620     -48.602 146.336   9.879  1.00 97.95    -0.074 C 
HETATM   28  C26 8UH Y1620     -48.828 145.280   9.091  1.00 97.95    -0.048 C 
HETATM   29  C27 8UH Y1620     -47.732 144.697   8.280  1.00 97.95     0.009 C 
HETATM   30  C28 8UH Y1620     -46.945 143.739   8.766  1.00 97.95     0.007 C 
HETATM   31  C29 8UH Y1620     -45.875 143.144   7.980  1.00 33.25    -0.062 C 
HETATM   32  C30 8UH Y1620     -45.364 142.017   8.453  1.00 33.25     0.007 C 
HETATM   33  C31 8UH Y1620     -44.305 141.284   7.799  1.00 33.25     0.001 C 
HETATM   34  C32 8UH Y1620     -43.668 140.453   8.594  1.00 33.25     0.007 C 
HETATM   35  C33 8UH Y1620     -42.590 139.606   8.103  1.00 33.25    -0.062 C 
HETATM   36  C34 8UH Y1620     -42.011 138.800   8.983  1.00 33.25     0.007 C 
HETATM   37  C35 8UH Y1620     -40.967 137.886   8.578  1.00 33.25     0.001 C 
HETATM   38  C36 8UH Y1620     -50.922 145.060   7.714  1.00 97.95     0.020 C 
HETATM   39  C37 8UH Y1620     -49.997 143.130   8.963  1.00 97.95     0.020 C 
HETATM   40  C38 8UH Y1620     -47.274 147.029   9.954  1.00 97.95     0.044 C 
HETATM   41  C39 8UH Y1620     -45.375 143.775   6.718  1.00 33.25     0.048 C 
HETATM   42  C40 8UH Y1620     -42.190 139.633   6.666  1.00 33.25     0.048 C 
HETATM   43  O23 8UH Y1620     -51.704 146.535  11.884  1.00 97.95    -0.395 OA
ATOM     44  H23 8UH Y1620     -51.371 147.118  12.557  1.00  0.00     0.210 HD
ENDROOT
TORSDOF 12
