REMARK VINA RESULT:   -12.106      0.000      0.000
REMARK INTER + INTRA:         -14.734
REMARK INTER:                 -12.106
REMARK INTRA:                  -2.628
REMARK UNBOUND:                -2.628
REMARK  0 active torsions:
REMARK  status: ('A' for Active; 'I' for Inactive)
REMARK       I    between atoms: C3_3  and  O3_21 
REMARK       I    between atoms: C6_6  and  C7_7 
REMARK       I    between atoms: C8_8  and  C9_9 
REMARK       I    between atoms: C10_10  and  C11_11 
REMARK       I    between atoms: C12_12  and  C13_13 
REMARK       I    between atoms: C14_14  and  C15_15 
REMARK       I    between atoms: C23_25  and  O23_43 
REMARK       I    between atoms: C26_28  and  C27_29 
REMARK       I    between atoms: C28_30  and  C29_31 
REMARK       I    between atoms: C30_32  and  C31_33 
REMARK       I    between atoms: C32_34  and  C33_35 
REMARK       I    between atoms: C34_36  and  C35_37 
ROOT
HETATM    1  C1  8UH 9 617     -34.294 126.995   6.469  1.00 40.88    -0.018 C 
HETATM    2  C2  8UH 9 617     -34.014 126.517   5.044  1.00 40.88     0.045 C 
HETATM    3  C3  8UH 9 617     -32.931 127.237   4.246  1.00 40.88     0.123 C 
HETATM    4  C4  8UH 9 617     -31.836 127.774   5.148  1.00 40.88     0.066 C 
HETATM    5  C5  8UH 9 617     -32.483 128.664   6.172  1.00 40.88    -0.074 C 
HETATM    6  C6  8UH 9 617     -33.571 128.273   6.844  1.00 40.88    -0.048 C 
HETATM    7  C7  8UH 9 617     -34.071 129.079   7.994  1.00 40.88     0.009 C 
HETATM    8  C8  8UH 9 617     -35.015 130.010   7.859  1.00 40.88     0.007 C 
HETATM    9  C9  8UH 9 617     -35.529 130.817   8.986  1.00 40.88    -0.062 C 
HETATM   10  C10 8UH 9 617     -36.395 131.789   8.684  1.00 40.88     0.007 C 
HETATM   11  C11 8UH 9 617     -37.033 132.711   9.613  1.00 40.88     0.001 C 
HETATM   12  C12 8UH 9 617     -37.589 133.760   9.021  1.00 40.88     0.007 C 
HETATM   13  C13 8UH 9 617     -38.336 134.824   9.707  1.00 40.88    -0.062 C 
HETATM   14  C14 8UH 9 617     -39.062 135.636   8.923  1.00 40.88     0.007 C 
HETATM   15  C15 8UH 9 617     -39.904 136.708   9.434  1.00 40.88     0.001 C 
HETATM   16  C16 8UH 9 617     -33.953 125.850   7.420  1.00 40.88     0.020 C 
HETATM   17  C17 8UH 9 617     -35.780 127.286   6.585  1.00 40.88     0.020 C 
HETATM   18  C18 8UH 9 617     -31.635 129.796   6.657  1.00 40.88     0.044 C 
HETATM   19  C19 8UH 9 617     -35.100 130.563  10.398  1.00 40.88     0.048 C 
HETATM   20  C20 8UH 9 617     -38.306 134.968  11.199  1.00 40.88     0.048 C 
HETATM   21  O3  8UH 9 617     -32.353 126.307   3.323  1.00 40.88    -0.395 OA
ATOM     22  H3  8UH 9 617     -33.040 125.971   2.759  1.00  0.00     0.210 HD
HETATM   23  C21 8UH 9 617     -49.429 145.331  10.044  1.00 98.00    -0.022 C 
HETATM   24  C22 8UH 9 617     -49.928 146.632  10.665  1.00 98.00     0.045 C 
HETATM   25  C23 8UH 9 617     -49.373 146.917  12.057  1.00 98.00     0.119 C 
HETATM   26  C24 8UH 9 617     -47.856 146.817  12.069  1.00 98.00     0.040 C 
HETATM   27  C25 8UH 9 617     -47.482 145.471  11.514  1.00 98.00     0.013 C 
HETATM   28  C26 8UH 9 617     -47.968 145.111  10.339  1.00 98.00    -0.068 C 
HETATM   29  C27 8UH 9 617     -47.083 144.531   9.316  1.00 98.00     0.004 C 
HETATM   30  C28 8UH 9 617     -46.508 143.360   9.561  1.00 98.00     0.007 C 
HETATM   31  C29 8UH 9 617     -45.636 142.716   8.560  1.00 40.88    -0.062 C 
HETATM   32  C30 8UH 9 617     -45.059 141.569   8.924  1.00 40.88     0.007 C 
HETATM   33  C31 8UH 9 617     -44.190 140.763   8.075  1.00 40.88     0.001 C 
HETATM   34  C32 8UH 9 617     -43.431 139.907   8.740  1.00 40.88     0.007 C 
HETATM   35  C33 8UH 9 617     -42.493 138.950   8.149  1.00 40.88    -0.062 C 
HETATM   36  C34 8UH 9 617     -41.734 138.250   9.004  1.00 40.88     0.007 C 
HETATM   37  C35 8UH 9 617     -40.793 137.220   8.585  1.00 40.88     0.001 C 
HETATM   38  C36 8UH 9 617     -49.668 145.373   8.541  1.00 98.00     0.019 C 
HETATM   39  C37 8UH 9 617     -50.187 144.145  10.618  1.00 98.00     0.019 C 
HETATM   40  C38 8UH 9 617     -46.212 146.268  11.615  1.00 98.00     0.015 C 
HETATM   41  C39 8UH 9 617     -45.429 143.306   7.198  1.00 40.88     0.048 C 
HETATM   42  C40 8UH 9 617     -42.422 138.759   6.663  1.00 40.88     0.048 C 
HETATM   43  O23 8UH 9 617     -49.768 148.225  12.479  1.00 98.00    -0.396 OA
ATOM     44  H23 8UH 9 617     -49.422 148.402  13.347  1.00  0.00     0.210 HD
ENDROOT
TORSDOF 12
