REMARK VINA RESULT:   -11.367      0.000      0.000
REMARK INTER + INTRA:         -14.916
REMARK INTER:                 -11.367
REMARK INTRA:                  -3.549
REMARK UNBOUND:                -3.549
REMARK  0 active torsions:
REMARK  status: ('A' for Active; 'I' for Inactive)
REMARK       I    between atoms: C3_3  and  O3_21 
REMARK       I    between atoms: C6_6  and  C7_7 
REMARK       I    between atoms: C8_8  and  C9_9 
REMARK       I    between atoms: C10_10  and  C11_11 
REMARK       I    between atoms: C12_12  and  C13_13 
REMARK       I    between atoms: C14_14  and  C15_15 
REMARK       I    between atoms: C23_25  and  O23_43 
REMARK       I    between atoms: C26_28  and  C27_29 
REMARK       I    between atoms: C28_30  and  C29_31 
REMARK       I    between atoms: C30_32  and  C31_33 
REMARK       I    between atoms: C32_34  and  C33_35 
REMARK       I    between atoms: C34_36  and  C35_37 
ROOT
HETATM    1  C1  8UH V1621     -49.156 144.063  10.389  1.00 16.22    -0.018 C 
HETATM    2  C2  8UH V1621     -49.727 144.008  11.790  1.00 16.22     0.045 C 
HETATM    3  C3  8UH V1621     -48.842 144.599  12.849  1.00 16.22     0.123 C 
HETATM    4  C4  8UH V1621     -48.313 145.897  12.300  1.00 16.22     0.066 C 
HETATM    5  C5  8UH V1621     -47.372 145.507  11.207  1.00 16.22    -0.074 C 
HETATM    6  C6  8UH V1621     -47.796 144.681  10.255  1.00 16.22    -0.048 C 
HETATM    7  C7  8UH V1621     -46.932 144.137   9.198  1.00 16.22     0.009 C 
HETATM    8  C8  8UH V1621     -45.734 143.719   9.595  1.00 16.22     0.007 C 
HETATM    9  C9  8UH V1621     -44.902 142.929   8.671  1.00 16.22    -0.062 C 
HETATM   10  C10 8UH V1621     -44.030 142.070   9.218  1.00 16.22     0.007 C 
HETATM   11  C11 8UH V1621     -43.245 141.114   8.446  1.00 16.22     0.001 C 
HETATM   12  C12 8UH V1621     -42.546 140.179   9.081  1.00 16.22     0.007 C 
HETATM   13  C13 8UH V1621     -41.790 139.149   8.348  1.00 16.22    -0.062 C 
HETATM   14  C14 8UH V1621     -41.206 138.172   9.058  1.00 16.22     0.007 C 
HETATM   15  C15 8UH V1621     -40.440 137.076   8.469  1.00 16.22     0.001 C 
HETATM   16  C16 8UH V1621     -50.050 144.952   9.543  1.00 16.22     0.020 C 
HETATM   17  C17 8UH V1621     -49.143 142.646   9.889  1.00 16.22     0.020 C 
HETATM   18  C18 8UH V1621     -46.188 146.401  11.045  1.00 16.22     0.044 C 
HETATM   19  C19 8UH V1621     -45.120 143.030   7.190  1.00 16.22     0.048 C 
HETATM   20  C20 8UH V1621     -41.733 139.232   6.854  1.00 16.22     0.048 C 
HETATM   21  O3  8UH V1621     -49.665 144.802  13.992  1.00 16.22    -0.395 OA
ATOM     22  H3  8UH V1621     -49.105 145.176  14.663  1.00  0.00     0.210 HD
HETATM   23  C21 8UH V1621     -33.466 126.688   6.917  1.00 45.52    -0.018 C 
HETATM   24  C22 8UH V1621     -34.198 126.383   5.612  1.00 45.52     0.045 C 
HETATM   25  C23 8UH V1621     -33.976 127.416   4.515  1.00 45.52     0.123 C 
HETATM   26  C24 8UH V1621     -32.579 127.998   4.640  1.00 45.52     0.066 C 
HETATM   27  C25 8UH V1621     -32.540 128.744   5.942  1.00 45.52    -0.074 C 
HETATM   28  C26 8UH V1621     -33.036 128.128   7.024  1.00 45.52    -0.048 C 
HETATM   29  C27 8UH V1621     -33.450 128.895   8.202  1.00 45.52     0.009 C 
HETATM   30  C28 8UH V1621     -34.399 129.761   7.840  1.00 45.52     0.007 C 
HETATM   31  C29 8UH V1621     -35.141 130.574   8.812  1.00 16.22    -0.062 C 
HETATM   32  C30 8UH V1621     -36.102 131.378   8.331  1.00 16.22     0.007 C 
HETATM   33  C31 8UH V1621     -36.909 132.272   9.148  1.00 16.22     0.001 C 
HETATM   34  C32 8UH V1621     -37.708 133.145   8.552  1.00 16.22     0.007 C 
HETATM   35  C33 8UH V1621     -38.485 134.123   9.329  1.00 16.22    -0.062 C 
HETATM   36  C34 8UH V1621     -39.132 135.080   8.646  1.00 16.22     0.007 C 
HETATM   37  C35 8UH V1621     -39.905 136.158   9.253  1.00 16.22     0.001 C 
HETATM   38  C36 8UH V1621     -32.195 125.851   6.992  1.00 45.52     0.020 C 
HETATM   39  C37 8UH V1621     -34.354 126.365   8.109  1.00 45.52     0.020 C 
HETATM   40  C38 8UH V1621     -32.098 130.187   5.903  1.00 45.52     0.044 C 
HETATM   41  C39 8UH V1621     -34.813 130.417  10.262  1.00 16.22     0.048 C 
HETATM   42  C40 8UH V1621     -38.472 134.025  10.822  1.00 16.22     0.048 C 
HETATM   43  O23 8UH V1621     -34.115 126.804   3.229  1.00 45.52    -0.395 OA
ATOM     44  H23 8UH V1621     -33.976 127.449   2.545  1.00  0.00     0.210 HD
ENDROOT
TORSDOF 12
