REMARK VINA RESULT:   -10.382      1.247      1.648
REMARK INTER + INTRA:         -13.543
REMARK INTER:                 -10.767
REMARK INTRA:                  -2.776
REMARK UNBOUND:                -3.161
REMARK  0 active torsions:
REMARK  status: ('A' for Active; 'I' for Inactive)
REMARK       I    between atoms: C3_3  and  O3_21 
REMARK       I    between atoms: C6_6  and  C7_7 
REMARK       I    between atoms: C8_8  and  C9_9 
REMARK       I    between atoms: C10_10  and  C11_11 
REMARK       I    between atoms: C12_12  and  C13_13 
REMARK       I    between atoms: C14_14  and  C15_15 
REMARK       I    between atoms: C23_25  and  O23_43 
REMARK       I    between atoms: C26_28  and  C27_29 
REMARK       I    between atoms: C28_30  and  C29_31 
REMARK       I    between atoms: C30_32  and  C31_33 
REMARK       I    between atoms: C32_34  and  C33_35 
REMARK       I    between atoms: C34_36  and  C35_37 
ROOT
HETATM    1  C1  8UH 5 624     -34.608 127.009   6.200  1.00 23.68    -0.018 C 
HETATM    2  C2  8UH 5 624     -34.315 126.422   4.823  1.00 23.68     0.045 C 
HETATM    3  C3  8UH 5 624     -33.097 126.928   4.059  1.00 23.68     0.123 C 
HETATM    4  C4  8UH 5 624     -32.011 127.429   4.993  1.00 23.68     0.066 C 
HETATM    5  C5  8UH 5 624     -32.612 128.452   5.914  1.00 23.68    -0.074 C 
HETATM    6  C6  8UH 5 624     -33.721 128.176   6.603  1.00 23.68    -0.048 C 
HETATM    7  C7  8UH 5 624     -34.091 128.976   7.803  1.00 23.68     0.009 C 
HETATM    8  C8  8UH 5 624     -34.761 130.131   7.733  1.00 23.68     0.007 C 
HETATM    9  C9  8UH 5 624     -35.136 130.921   8.930  1.00 23.68    -0.062 C 
HETATM   10  C10 8UH 5 624     -35.910 132.003   8.747  1.00 23.68     0.007 C 
HETATM   11  C11 8UH 5 624     -36.415 132.910   9.778  1.00 23.68     0.001 C 
HETATM   12  C12 8UH 5 624     -37.306 133.794   9.318  1.00 23.68     0.007 C 
HETATM   13  C13 8UH 5 624     -38.047 134.836  10.057  1.00 23.68    -0.062 C 
HETATM   14  C14 8UH 5 624     -38.761 135.714   9.332  1.00 23.68     0.007 C 
HETATM   15  C15 8UH 5 624     -39.577 136.766   9.931  1.00 23.68     0.001 C 
HETATM   16  C16 8UH 5 624     -34.489 125.860   7.187  1.00 23.68     0.020 C 
HETATM   17  C17 8UH 5 624     -36.044 127.511   6.207  1.00 23.68     0.020 C 
HETATM   18  C18 8UH 5 624     -31.517 129.292   6.500  1.00 23.68     0.044 C 
HETATM   19  C19 8UH 5 624     -34.671 130.531  10.297  1.00 23.68     0.048 C 
HETATM   20  C20 8UH 5 624     -38.033 134.902  11.553  1.00 23.68     0.048 C 
HETATM   21  O3  8UH 5 624     -32.577 125.850   3.277  1.00 23.68    -0.395 OA
ATOM     22  H3  8UH 5 624     -31.817 126.165   2.800  1.00  0.00     0.210 HD
HETATM   23  C21 8UH 5 624     -47.982 146.127  12.343  1.00 20.77    -0.018 C 
HETATM   24  C22 8UH 5 624     -48.932 146.411  13.518  1.00 19.21     0.045 C 
HETATM   25  C23 8UH 5 624     -48.374 146.800  14.885  1.00 20.68     0.123 C 
HETATM   26  C24 8UH 5 624     -46.846 146.850  14.990  1.00 17.77     0.066 C 
HETATM   27  C25 8UH 5 624     -45.972 146.344  13.887  1.00 19.05    -0.074 C 
HETATM   28  C26 8UH 5 624     -46.453 145.995  12.640  1.00 19.48    -0.048 C 
HETATM   29  C27 8UH 5 624     -45.621 145.477  11.520  1.00 16.56     0.009 C 
HETATM   30  C28 8UH 5 624     -45.186 144.195  11.396  1.00 15.55     0.007 C 
HETATM   31  C29 8UH 5 624     -44.347 143.636  10.360  1.00 23.68    -0.062 C 
HETATM   32  C30 8UH 5 624     -43.956 142.366  10.511  1.00 23.68     0.007 C 
HETATM   33  C31 8UH 5 624     -43.129 141.621   9.571  1.00 23.68     0.001 C 
HETATM   34  C32 8UH 5 624     -42.380 140.649  10.074  1.00 23.68     0.007 C 
HETATM   35  C33 8UH 5 624     -41.517 139.787   9.255  1.00 23.68    -0.062 C 
HETATM   36  C34 8UH 5 624     -40.944 138.733   9.859  1.00 23.68     0.007 C 
HETATM   37  C35 8UH 5 624     -40.096 137.748   9.191  1.00 23.68     0.001 C 
HETATM   38  C36 8UH 5 624     -48.230 147.311  11.376  1.00 20.67     0.020 C 
HETATM   39  C37 8UH 5 624     -48.516 144.846  11.667  1.00 19.98     0.020 C 
HETATM   40  C38 8UH 5 624     -44.566 146.303  14.375  1.00 17.40     0.044 C 
HETATM   41  C39 8UH 5 624     -43.951 144.456   9.170  1.00 23.68     0.048 C 
HETATM   42  C40 8UH 5 624     -41.310 140.094   7.804  1.00 23.68     0.048 C 
HETATM   43  O23 8UH 5 624     -48.945 148.029  15.325  1.00 20.33    -0.395 OA
ATOM     44  H23 8UH 5 624     -49.892 147.997  15.260  1.00  0.00     0.210 HD
ENDROOT
TORSDOF 12
