REMARK VINA RESULT:    -7.698      1.372     16.312
REMARK INTER + INTRA:         -11.039
REMARK INTER:                  -9.266
REMARK INTRA:                  -1.773
REMARK UNBOUND:                -3.340
REMARK  0 active torsions:
REMARK  status: ('A' for Active; 'I' for Inactive)
REMARK       I    between atoms: C3_3  and  O3_21 
REMARK       I    between atoms: C6_6  and  C7_7 
REMARK       I    between atoms: C8_8  and  C9_9 
REMARK       I    between atoms: C10_10  and  C11_11 
REMARK       I    between atoms: C12_12  and  C13_13 
REMARK       I    between atoms: C14_14  and  C15_15 
REMARK       I    between atoms: C23_25  and  O23_43 
REMARK       I    between atoms: C26_28  and  C27_29 
REMARK       I    between atoms: C28_30  and  C29_31 
REMARK       I    between atoms: C30_32  and  C31_33 
REMARK       I    between atoms: C32_34  and  C33_35 
REMARK       I    between atoms: C34_36  and  C35_37 
ROOT
HETATM    1  C1  8UH X1620     -50.048 146.275   7.422  1.00 33.88    -0.022 C 
HETATM    2  C2  8UH X1620     -51.185 145.266   7.508  1.00 33.88     0.045 C 
HETATM    3  C3  8UH X1620     -51.403 144.681   8.886  1.00 33.88     0.119 C 
HETATM    4  C4  8UH X1620     -51.617 145.840   9.834  1.00 33.88     0.040 C 
HETATM    5  C5  8UH X1620     -50.388 146.713   9.845  1.00 33.88     0.013 C 
HETATM    6  C6  8UH X1620     -49.544 146.674   8.808  1.00 33.88    -0.068 C 
HETATM    7  C7  8UH X1620     -48.092 146.689   9.027  1.00 33.88     0.004 C 
HETATM    8  C8  8UH X1620     -47.671 145.418   9.064  1.00 33.88     0.007 C 
HETATM    9  C9  8UH X1620     -46.262 145.028   9.333  1.00 33.88    -0.062 C 
HETATM   10  C10 8UH X1620     -45.999 143.700   9.341  1.00 33.88     0.007 C 
HETATM   11  C11 8UH X1620     -44.670 143.135   9.551  1.00 33.88     0.001 C 
HETATM   12  C12 8UH X1620     -44.479 141.827   9.491  1.00 33.88     0.007 C 
HETATM   13  C13 8UH X1620     -43.129 141.252   9.628  1.00 33.88    -0.062 C 
HETATM   14  C14 8UH X1620     -43.029 139.934   9.392  1.00 33.88     0.007 C 
HETATM   15  C15 8UH X1620     -41.782 139.168   9.402  1.00 33.88     0.001 C 
HETATM   16  C16 8UH X1620     -50.584 147.404   6.544  1.00 33.88     0.019 C 
HETATM   17  C17 8UH X1620     -48.903 145.580   6.689  1.00 33.88     0.019 C 
HETATM   18  C18 8UH X1620     -49.954 146.493  11.271  1.00 33.88     0.015 C 
HETATM   19  C19 8UH X1620     -45.201 146.082   9.563  1.00 33.88     0.048 C 
HETATM   20  C20 8UH X1620     -41.958 142.153   9.920  1.00 33.88     0.048 C 
HETATM   21  O3  8UH X1620     -52.581 143.872   8.816  1.00 33.88    -0.396 OA
ATOM     22  H3  8UH X1620     -52.718 143.504   9.681  1.00  0.00     0.210 HD
HETATM   23  C21 8UH X1620     -33.526 129.333   7.085  1.00 31.86    -0.018 C 
HETATM   24  C22 8UH X1620     -32.171 129.655   6.446  1.00 31.86     0.045 C 
HETATM   25  C23 8UH X1620     -31.238 130.572   7.228  1.00 31.86     0.123 C 
HETATM   26  C24 8UH X1620     -31.620 130.644   8.701  1.00 31.86     0.066 C 
HETATM   27  C25 8UH X1620     -33.058 131.068   8.750  1.00 31.86    -0.074 C 
HETATM   28  C26 8UH X1620     -33.973 130.301   8.159  1.00 31.86    -0.048 C 
HETATM   29  C27 8UH X1620     -35.424 130.490   8.368  1.00 31.86     0.009 C 
HETATM   30  C28 8UH X1620     -35.896 131.719   8.595  1.00 31.86     0.007 C 
HETATM   31  C29 8UH X1620     -37.375 131.962   8.571  1.00 33.88    -0.062 C 
HETATM   32  C30 8UH X1620     -37.717 133.262   8.710  1.00 33.88     0.007 C 
HETATM   33  C31 8UH X1620     -39.083 133.793   8.688  1.00 33.88     0.001 C 
HETATM   34  C32 8UH X1620     -39.250 135.111   8.841  1.00 33.88     0.007 C 
HETATM   35  C33 8UH X1620     -40.585 135.751   8.828  1.00 33.88    -0.062 C 
HETATM   36  C34 8UH X1620     -40.629 137.076   9.077  1.00 33.88     0.007 C 
HETATM   37  C35 8UH X1620     -41.854 137.874   9.101  1.00 33.88     0.001 C 
HETATM   38  C36 8UH X1620     -33.439 127.978   7.783  1.00 31.86     0.020 C 
HETATM   39  C37 8UH X1620     -34.557 129.229   5.973  1.00 31.86     0.020 C 
HETATM   40  C38 8UH X1620     -33.237 131.595  10.146  1.00 31.86     0.044 C 
HETATM   41  C39 8UH X1620     -38.369 130.847   8.348  1.00 33.88     0.048 C 
HETATM   42  C40 8UH X1620     -41.795 134.917   8.501  1.00 33.88     0.048 C 
HETATM   43  O23 8UH X1620     -29.930 130.022   7.092  1.00 31.86    -0.395 OA
ATOM     44  H23 8UH X1620     -29.348 130.594   7.580  1.00  0.00     0.210 HD
ENDROOT
TORSDOF 12
