REMARK VINA RESULT:   -10.195      1.416     16.546
REMARK INTER + INTRA:         -11.538
REMARK INTER:                  -8.629
REMARK INTRA:                  -2.910
REMARK UNBOUND:                -1.344
REMARK  0 active torsions:
REMARK  status: ('A' for Active; 'I' for Inactive)
REMARK       I    between atoms: C3_3  and  O3_21 
REMARK       I    between atoms: C6_6  and  C7_7 
REMARK       I    between atoms: C8_8  and  C9_9 
REMARK       I    between atoms: C10_10  and  C11_11 
REMARK       I    between atoms: C12_12  and  C13_13 
REMARK       I    between atoms: C14_14  and  C15_15 
REMARK       I    between atoms: C23_25  and  O23_43 
REMARK       I    between atoms: C26_28  and  C27_29 
REMARK       I    between atoms: C28_30  and  C29_31 
REMARK       I    between atoms: C30_32  and  C31_33 
REMARK       I    between atoms: C32_34  and  C33_35 
REMARK       I    between atoms: C34_36  and  C35_37 
ROOT
HETATM    1  C1  8UH 71620     -49.133 144.265  12.572  1.00 70.34    -0.018 C 
HETATM    2  C2  8UH 71620     -49.417 144.767  13.973  1.00 70.34     0.045 C 
HETATM    3  C3  8UH 71620     -49.445 146.274  14.159  1.00 70.34     0.123 C 
HETATM    4  C4  8UH 71620     -48.300 146.976  13.452  1.00 70.34     0.066 C 
HETATM    5  C5  8UH 71620     -47.756 146.313  12.220  1.00 70.34    -0.074 C 
HETATM    6  C6  8UH 71620     -48.065 145.064  11.860  1.00 70.34    -0.048 C 
HETATM    7  C7  8UH 71620     -47.391 144.422  10.707  1.00 70.34     0.009 C 
HETATM    8  C8  8UH 71620     -46.318 143.649  10.839  1.00 70.34     0.007 C 
HETATM    9  C9  8UH 71620     -45.681 143.003   9.694  1.00 70.34    -0.062 C 
HETATM   10  C10 8UH 71620     -44.599 142.282   9.968  1.00 70.34     0.007 C 
HETATM   11  C11 8UH 71620     -43.827 141.535   8.998  1.00 70.34     0.001 C 
HETATM   12  C12 8UH 71620     -43.090 140.596   9.567  1.00 70.34     0.007 C 
HETATM   13  C13 8UH 71620     -42.222 139.674   8.836  1.00 70.34    -0.062 C 
HETATM   14  C14 8UH 71620     -41.588 138.758   9.558  1.00 70.34     0.007 C 
HETATM   15  C15 8UH 71620     -40.713 137.773   8.956  1.00 70.34     0.001 C 
HETATM   16  C16 8UH 71620     -50.434 144.251  11.783  1.00 70.34     0.020 C 
HETATM   17  C17 8UH 71620     -48.622 142.838  12.722  1.00 70.34     0.020 C 
HETATM   18  C18 8UH 71620     -46.594 147.051  11.621  1.00 70.34     0.044 C 
HETATM   19  C19 8UH 71620     -46.246 143.146   8.318  1.00 70.34     0.048 C 
HETATM   20  C20 8UH 71620     -42.061 139.756   7.350  1.00 70.34     0.048 C 
HETATM   21  O3  8UH 71620     -50.695 146.830  13.742  1.00 70.34    -0.395 OA
ATOM     22  H3  8UH 71620     -50.712 147.773  13.858  1.00  0.00     0.210 HD
HETATM   23  C21 8UH 71620     -34.327 127.488   6.467  1.00 19.63    -0.018 C 
HETATM   24  C22 8UH 71620     -33.697 126.867   5.222  1.00 19.63     0.045 C 
HETATM   25  C23 8UH 71620     -32.460 127.545   4.655  1.00 19.63     0.123 C 
HETATM   26  C24 8UH 71620     -31.581 128.056   5.776  1.00 19.63     0.066 C 
HETATM   27  C25 8UH 71620     -32.402 129.050   6.536  1.00 19.63    -0.074 C 
HETATM   28  C26 8UH 71620     -33.591 128.693   7.029  1.00 19.63    -0.048 C 
HETATM   29  C27 8UH 71620     -34.221 129.423   8.157  1.00 19.63     0.009 C 
HETATM   30  C28 8UH 71620     -34.869 130.577   7.991  1.00 19.63     0.007 C 
HETATM   31  C29 8UH 71620     -35.510 131.279   9.106  1.00 70.34    -0.062 C 
HETATM   32  C30 8UH 71620     -36.299 132.294   8.774  1.00 70.34     0.007 C 
HETATM   33  C31 8UH 71620     -37.029 133.112   9.724  1.00 70.34     0.001 C 
HETATM   34  C32 8UH 71620     -37.755 134.052   9.141  1.00 70.34     0.007 C 
HETATM   35  C33 8UH 71620     -38.584 135.012   9.868  1.00 70.34    -0.062 C 
HETATM   36  C34 8UH 71620     -39.308 135.857   9.137  1.00 70.34     0.007 C 
HETATM   37  C35 8UH 71620     -40.172 136.852   9.741  1.00 70.34     0.001 C 
HETATM   38  C36 8UH 71620     -34.448 126.386   7.513  1.00 19.63     0.020 C 
HETATM   39  C37 8UH 71620     -35.722 127.955   6.095  1.00 19.63     0.020 C 
HETATM   40  C38 8UH 71620     -31.417 129.867   7.314  1.00 19.63     0.044 C 
HETATM   41  C39 8UH 71620     -35.289 130.871  10.530  1.00 70.34     0.048 C 
HETATM   42  C40 8UH 71620     -38.604 135.037  11.361  1.00 70.34     0.048 C 
HETATM   43  O23 8UH 71620     -31.727 126.591   3.883  1.00 19.63    -0.395 OA
ATOM     44  H23 8UH 71620     -32.280 126.270   3.179  1.00  0.00     0.210 HD
ENDROOT
TORSDOF 12
