REMARK VINA RESULT:    -8.314      1.278     16.569
REMARK INTER + INTRA:         -11.744
REMARK INTER:                 -11.270
REMARK INTRA:                  -0.474
REMARK UNBOUND:                -3.430
REMARK  0 active torsions:
REMARK  status: ('A' for Active; 'I' for Inactive)
REMARK       I    between atoms: C3_3  and  O3_21 
REMARK       I    between atoms: C6_6  and  C7_7 
REMARK       I    between atoms: C8_8  and  C9_9 
REMARK       I    between atoms: C10_10  and  C11_11 
REMARK       I    between atoms: C12_12  and  C13_13 
REMARK       I    between atoms: C14_14  and  C15_15 
REMARK       I    between atoms: C23_25  and  O23_43 
REMARK       I    between atoms: C26_28  and  C27_29 
REMARK       I    between atoms: C28_30  and  C29_31 
REMARK       I    between atoms: C30_32  and  C31_33 
REMARK       I    between atoms: C32_34  and  C33_35 
REMARK       I    between atoms: C34_36  and  C35_37 
ROOT
HETATM    1  C1  8UH S1620     -34.215 128.299   6.868  1.00 51.40    -0.018 C 
HETATM    2  C2  8UH S1620     -33.505 127.889   5.586  1.00 51.40     0.045 C 
HETATM    3  C3  8UH S1620     -32.102 128.412   5.310  1.00 51.40     0.123 C 
HETATM    4  C4  8UH S1620     -31.430 128.987   6.538  1.00 51.40     0.066 C 
HETATM    5  C5  8UH S1620     -32.371 129.914   7.235  1.00 51.40    -0.074 C 
HETATM    6  C6  8UH S1620     -33.584 129.484   7.563  1.00 51.40    -0.048 C 
HETATM    7  C7  8UH S1620     -34.347 130.142   8.639  1.00 51.40     0.009 C 
HETATM    8  C8  8UH S1620     -35.009 131.264   8.397  1.00 51.40     0.007 C 
HETATM    9  C9  8UH S1620     -35.797 131.920   9.436  1.00 51.40    -0.062 C 
HETATM   10  C10 8UH S1620     -36.388 133.056   9.079  1.00 51.40     0.007 C 
HETATM   11  C11 8UH S1620     -37.246 133.866   9.921  1.00 51.40     0.001 C 
HETATM   12  C12 8UH S1620     -37.944 134.736   9.213  1.00 51.40     0.007 C 
HETATM   13  C13 8UH S1620     -38.920 135.663   9.782  1.00 51.40    -0.062 C 
HETATM   14  C14 8UH S1620     -39.629 136.394   8.922  1.00 51.40     0.007 C 
HETATM   15  C15 8UH S1620     -40.662 137.313   9.364  1.00 51.40     0.001 C 
HETATM   16  C16 8UH S1620     -34.295 127.074   7.770  1.00 51.40     0.020 C 
HETATM   17  C17 8UH S1620     -35.633 128.701   6.505  1.00 51.40     0.020 C 
HETATM   18  C18 8UH S1620     -31.520 130.721   8.164  1.00 51.40     0.044 C 
HETATM   19  C19 8UH S1620     -35.921 131.312  10.799  1.00 51.40     0.048 C 
HETATM   20  C20 8UH S1620     -39.112 135.762  11.259  1.00 51.40     0.048 C 
HETATM   21  O3  8UH S1620     -31.294 127.324   4.858  1.00 51.40    -0.395 OA
ATOM     22  H3  8UH S1620     -31.716 126.963   4.086  1.00  0.00     0.210 HD
HETATM   23  C21 8UH S1620     -50.850 144.105  10.628  1.00 26.49    -0.018 C 
HETATM   24  C22 8UH S1620     -51.660 144.473  11.867  1.00 26.49     0.045 C 
HETATM   25  C23 8UH S1620     -51.094 145.557  12.770  1.00 26.49     0.123 C 
HETATM   26  C24 8UH S1620     -50.486 146.665  11.935  1.00 26.49     0.066 C 
HETATM   27  C25 8UH S1620     -49.385 146.054  11.121  1.00 26.49    -0.074 C 
HETATM   28  C26 8UH S1620     -49.578 144.915  10.440  1.00 26.49    -0.048 C 
HETATM   29  C27 8UH S1620     -48.538 144.463   9.471  1.00 26.49     0.009 C 
HETATM   30  C28 8UH S1620     -47.537 143.655   9.830  1.00 26.49     0.007 C 
HETATM   31  C29 8UH S1620     -46.492 143.199   8.927  1.00 51.40    -0.062 C 
HETATM   32  C30 8UH S1620     -45.919 142.019   9.177  1.00 51.40     0.007 C 
HETATM   33  C31 8UH S1620     -44.888 141.425   8.341  1.00 51.40     0.001 C 
HETATM   34  C32 8UH S1620     -44.205 140.434   8.891  1.00 51.40     0.007 C 
HETATM   35  C33 8UH S1620     -43.147 139.689   8.197  1.00 51.40    -0.062 C 
HETATM   36  C34 8UH S1620     -42.433 138.843   8.942  1.00 51.40     0.007 C 
HETATM   37  C35 8UH S1620     -41.375 137.974   8.458  1.00 51.40     0.001 C 
HETATM   38  C36 8UH S1620     -51.775 144.235   9.424  1.00 26.49     0.020 C 
HETATM   39  C37 8UH S1620     -50.446 142.651  10.771  1.00 26.49     0.020 C 
HETATM   40  C38 8UH S1620     -48.261 146.994  10.807  1.00 26.49     0.044 C 
HETATM   41  C39 8UH S1620     -46.090 144.033   7.752  1.00 51.40     0.048 C 
HETATM   42  C40 8UH S1620     -42.916 139.857   6.729  1.00 51.40     0.048 C 
HETATM   43  O23 8UH S1620     -52.143 146.083  13.588  1.00 26.49    -0.395 OA
ATOM     44  H23 8UH S1620     -52.525 145.388  14.112  1.00  0.00     0.210 HD
ENDROOT
TORSDOF 12
