REMARK VINA RESULT:   -12.031      1.526      2.060
REMARK INTER + INTRA:         -12.079
REMARK INTER:                  -9.492
REMARK INTRA:                  -2.587
REMARK UNBOUND:                -0.048
REMARK  0 active torsions:
REMARK  status: ('A' for Active; 'I' for Inactive)
REMARK       I    between atoms: C3_3  and  O3_21 
REMARK       I    between atoms: C6_6  and  C7_7 
REMARK       I    between atoms: C8_8  and  C9_9 
REMARK       I    between atoms: C10_10  and  C11_11 
REMARK       I    between atoms: C12_12  and  C13_13 
REMARK       I    between atoms: C14_14  and  C15_15 
REMARK       I    between atoms: C23_25  and  O23_43 
REMARK       I    between atoms: C26_28  and  C27_29 
REMARK       I    between atoms: C28_30  and  C29_31 
REMARK       I    between atoms: C30_32  and  C31_33 
REMARK       I    between atoms: C32_34  and  C33_35 
REMARK       I    between atoms: C34_36  and  C35_37 
ROOT
HETATM    1  C1  8UH U1621     -34.409 127.004   6.443  1.00 20.50    -0.018 C 
HETATM    2  C2  8UH U1621     -34.250 126.725   4.954  1.00 20.50     0.045 C 
HETATM    3  C3  8UH U1621     -33.110 127.424   4.243  1.00 20.50     0.123 C 
HETATM    4  C4  8UH U1621     -32.028 127.779   5.234  1.00 20.50     0.066 C 
HETATM    5  C5  8UH U1621     -32.670 128.675   6.240  1.00 20.50    -0.074 C 
HETATM    6  C6  8UH U1621     -33.688 128.221   6.947  1.00 20.50    -0.048 C 
HETATM    7  C7  8UH U1621     -34.277 128.950   8.077  1.00 20.50     0.009 C 
HETATM    8  C8  8UH U1621     -34.315 130.279   8.036  1.00 20.50     0.007 C 
HETATM    9  C9  8UH U1621     -35.118 130.991   9.043  1.00 20.50    -0.062 C 
HETATM   10  C10 8UH U1621     -35.565 132.214   8.733  1.00 20.50     0.007 C 
HETATM   11  C11 8UH U1621     -36.493 132.970   9.566  1.00 20.50     0.001 C 
HETATM   12  C12 8UH U1621     -37.052 134.073   9.082  1.00 20.50     0.007 C 
HETATM   13  C13 8UH U1621     -38.055 134.829   9.854  1.00 20.50    -0.062 C 
HETATM   14  C14 8UH U1621     -38.689 135.837   9.240  1.00 20.50     0.007 C 
HETATM   15  C15 8UH U1621     -39.722 136.655   9.868  1.00 20.50     0.001 C 
HETATM   16  C16 8UH U1621     -33.827 125.850   7.239  1.00 20.50     0.020 C 
HETATM   17  C17 8UH U1621     -35.886 127.092   6.740  1.00 20.50     0.020 C 
HETATM   18  C18 8UH U1621     -31.589 129.486   6.861  1.00 20.50     0.044 C 
HETATM   19  C19 8UH U1621     -35.491 130.300  10.317  1.00 20.50     0.048 C 
HETATM   20  C20 8UH U1621     -38.338 134.422  11.266  1.00 20.50     0.048 C 
HETATM   21  O3  8UH U1621     -32.607 126.509   3.281  1.00 20.50    -0.395 OA
ATOM     22  H3  8UH U1621     -31.892 126.947   2.834  1.00  0.00     0.210 HD
HETATM   23  C21 8UH U1621     -48.618 145.676  12.097  1.00 21.49    -0.018 C 
HETATM   24  C22 8UH U1621     -49.542 146.295  13.159  1.00 20.69     0.045 C 
HETATM   25  C23 8UH U1621     -48.963 146.952  14.412  1.00 22.34     0.123 C 
HETATM   26  C24 8UH U1621     -47.431 147.117  14.429  1.00 20.89     0.066 C 
HETATM   27  C25 8UH U1621     -46.567 146.476  13.382  1.00 22.34    -0.074 C 
HETATM   28  C26 8UH U1621     -47.064 145.806  12.286  1.00 21.76    -0.048 C 
HETATM   29  C27 8UH U1621     -46.236 145.163  11.225  1.00 21.22     0.009 C 
HETATM   30  C28 8UH U1621     -45.640 143.935  11.302  1.00 19.00     0.007 C 
HETATM   31  C29 8UH U1621     -44.821 143.317  10.293  1.00 20.50    -0.062 C 
HETATM   32  C30 8UH U1621     -44.344 142.088  10.545  1.00 20.50     0.007 C 
HETATM   33  C31 8UH U1621     -43.468 141.344   9.650  1.00 20.50     0.001 C 
HETATM   34  C32 8UH U1621     -42.921 140.211  10.073  1.00 20.50     0.007 C 
HETATM   35  C33 8UH U1621     -41.962 139.465   9.245  1.00 20.50    -0.062 C 
HETATM   36  C34 8UH U1621     -41.331 138.431   9.821  1.00 20.50     0.007 C 
HETATM   37  C35 8UH U1621     -40.308 137.613   9.172  1.00 20.50     0.001 C 
HETATM   38  C36 8UH U1621     -49.066 146.388  10.800  1.00 20.30     0.020 C 
HETATM   39  C37 8UH U1621     -49.017 144.196  11.980  1.00 19.22     0.020 C 
HETATM   40  C38 8UH U1621     -45.139 146.713  13.706  1.00 22.01     0.044 C 
HETATM   41  C39 8UH U1621     -44.582 144.069   9.022  1.00 20.50     0.048 C 
HETATM   42  C40 8UH U1621     -41.697 139.931   7.849  1.00 20.50     0.048 C 
HETATM   43  O23 8UH U1621     -49.606 148.198  14.665  1.00 21.61    -0.395 OA
ATOM     44  H23 8UH U1621     -49.246 148.606  15.444  1.00  0.00     0.210 HD
ENDROOT
TORSDOF 12
