REMARK VINA RESULT:    -7.305      1.437     16.886
REMARK INTER + INTRA:         -10.225
REMARK INTER:                  -9.723
REMARK INTRA:                  -0.502
REMARK UNBOUND:                -2.919
REMARK  0 active torsions:
REMARK  status: ('A' for Active; 'I' for Inactive)
REMARK       I    between atoms: C3_3  and  O3_21 
REMARK       I    between atoms: C6_6  and  C7_7 
REMARK       I    between atoms: C8_8  and  C9_9 
REMARK       I    between atoms: C10_10  and  C11_11 
REMARK       I    between atoms: C12_12  and  C13_13 
REMARK       I    between atoms: C14_14  and  C15_15 
REMARK       I    between atoms: C23_25  and  O23_43 
REMARK       I    between atoms: C26_28  and  C27_29 
REMARK       I    between atoms: C28_30  and  C29_31 
REMARK       I    between atoms: C30_32  and  C31_33 
REMARK       I    between atoms: C32_34  and  C33_35 
REMARK       I    between atoms: C34_36  and  C35_37 
ROOT
HETATM    1  C1  8UH n1621     -49.604 145.918  11.665  1.00 51.52    -0.018 C 
HETATM    2  C2  8UH n1621     -50.587 145.977  12.825  1.00 51.52     0.045 C 
HETATM    3  C3  8UH n1621     -50.095 146.613  14.106  1.00 51.52     0.123 C 
HETATM    4  C4  8UH n1621     -49.262 147.831  13.784  1.00 51.52     0.066 C 
HETATM    5  C5  8UH n1621     -48.093 147.418  12.939  1.00 51.52    -0.074 C 
HETATM    6  C6  8UH n1621     -48.262 146.584  11.911  1.00 51.52    -0.048 C 
HETATM    7  C7  8UH n1621     -47.167 146.269  10.957  1.00 51.52     0.009 C 
HETATM    8  C8  8UH n1621     -46.249 145.332  11.208  1.00 51.52     0.007 C 
HETATM    9  C9  8UH n1621     -45.179 144.954  10.277  1.00 51.52    -0.062 C 
HETATM   10  C10 8UH n1621     -44.628 143.764  10.510  1.00 51.52     0.007 C 
HETATM   11  C11 8UH n1621     -43.585 143.118   9.730  1.00 51.52     0.001 C 
HETATM   12  C12 8UH n1621     -43.239 141.915  10.172  1.00 51.52     0.007 C 
HETATM   13  C13 8UH n1621     -42.245 141.078   9.492  1.00 51.52    -0.062 C 
HETATM   14  C14 8UH n1621     -41.941 139.886  10.024  1.00 51.52     0.007 C 
HETATM   15  C15 8UH n1621     -40.993 138.987   9.382  1.00 51.52     0.001 C 
HETATM   16  C16 8UH n1621     -50.295 146.501  10.442  1.00 51.52     0.020 C 
HETATM   17  C17 8UH n1621     -49.336 144.457  11.383  1.00 51.52     0.020 C 
HETATM   18  C18 8UH n1621     -46.844 148.216  13.141  1.00 51.52     0.044 C 
HETATM   19  C19 8UH n1621     -44.750 145.834   9.146  1.00 51.52     0.048 C 
HETATM   20  C20 8UH n1621     -41.630 141.540   8.206  1.00 51.52     0.048 C 
HETATM   21  O3  8UH n1621     -51.224 147.038  14.873  1.00 51.52    -0.395 OA
ATOM     22  H3  8UH n1621     -50.914 147.438  15.677  1.00  0.00     0.210 HD
HETATM   23  C21 8UH n1621     -34.054 128.319   7.182  1.00 22.61    -0.018 C 
HETATM   24  C22 8UH n1621     -33.316 127.617   6.028  1.00 23.33     0.045 C 
HETATM   25  C23 8UH n1621     -32.111 128.278   5.349  1.00 24.77     0.123 C 
HETATM   26  C24 8UH n1621     -31.609 129.583   5.990  1.00 22.10     0.066 C 
HETATM   27  C25 8UH n1621     -32.451 130.296   6.991  1.00 21.89    -0.074 C 
HETATM   28  C26 8UH n1621     -33.577 129.756   7.570  1.00 21.83    -0.048 C 
HETATM   29  C27 8UH n1621     -34.412 130.455   8.574  1.00 21.27     0.009 C 
HETATM   30  C28 8UH n1621     -35.346 131.389   8.279  1.00 20.16     0.007 C 
HETATM   31  C29 8UH n1621     -36.178 132.101   9.212  1.00 51.52    -0.062 C 
HETATM   32  C30 8UH n1621     -37.117 132.920   8.725  1.00 51.52     0.007 C 
HETATM   33  C31 8UH n1621     -38.035 133.708   9.538  1.00 51.52     0.001 C 
HETATM   34  C32 8UH n1621     -38.401 134.897   9.063  1.00 51.52     0.007 C 
HETATM   35  C33 8UH n1621     -39.327 135.773   9.795  1.00 51.52    -0.062 C 
HETATM   36  C34 8UH n1621     -39.684 136.964   9.290  1.00 51.52     0.007 C 
HETATM   37  C35 8UH n1621     -40.616 137.857   9.976  1.00 51.52     0.001 C 
HETATM   38  C36 8UH n1621     -33.867 127.352   8.360  1.00 21.21     0.020 C 
HETATM   39  C37 8UH n1621     -35.557 128.317   6.831  1.00 21.56     0.020 C 
HETATM   40  C38 8UH n1621     -31.833 131.616   7.248  1.00 21.82     0.044 C 
HETATM   41  C39 8UH n1621     -35.971 131.910  10.682  1.00 51.52     0.048 C 
HETATM   42  C40 8UH n1621     -39.858 135.303  11.103  1.00 51.52     0.048 C 
HETATM   43  O23 8UH n1621     -31.042 127.346   5.223  1.00 25.40    -0.395 OA
ATOM     44  H23 8UH n1621     -30.295 127.756   4.803  1.00  0.00     0.210 HD
ENDROOT
TORSDOF 12
