REMARK VINA RESULT:   -11.707      0.000      0.000
REMARK INTER + INTRA:         -12.054
REMARK INTER:                 -11.707
REMARK INTRA:                  -0.347
REMARK UNBOUND:                -0.347
REMARK  0 active torsions:
REMARK  status: ('A' for Active; 'I' for Inactive)
REMARK       I    between atoms: C3_3  and  O3_21 
REMARK       I    between atoms: C6_6  and  C7_7 
REMARK       I    between atoms: C8_8  and  C9_9 
REMARK       I    between atoms: C10_10  and  C11_11 
REMARK       I    between atoms: C12_12  and  C13_13 
REMARK       I    between atoms: C14_14  and  C15_15 
REMARK       I    between atoms: C23_25  and  O23_43 
REMARK       I    between atoms: C26_28  and  C27_29 
REMARK       I    between atoms: C28_30  and  C29_31 
REMARK       I    between atoms: C30_32  and  C31_33 
REMARK       I    between atoms: C32_34  and  C33_35 
REMARK       I    between atoms: C34_36  and  C35_37 
ROOT
HETATM    1  C1  8UH 61620     -49.955 144.305  12.581  1.00 97.95    -0.018 C 
HETATM    2  C2  8UH 61620     -50.357 144.688  14.001  1.00 97.95     0.045 C 
HETATM    3  C3  8UH 61620     -49.641 145.868  14.634  1.00 97.95     0.123 C 
HETATM    4  C4  8UH 61620     -49.348 146.952  13.622  1.00 97.95     0.066 C 
HETATM    5  C5  8UH 61620     -48.548 146.363  12.499  1.00 97.95    -0.074 C 
HETATM    6  C6  8UH 61620     -48.847 145.160  11.995  1.00 97.95    -0.048 C 
HETATM    7  C7  8UH 61620     -48.097 144.622  10.835  1.00 97.95     0.009 C 
HETATM    8  C8  8UH 61620     -46.988 143.902  11.001  1.00 97.95     0.007 C 
HETATM    9  C9  8UH 61620     -46.236 143.345   9.875  1.00 97.95    -0.062 C 
HETATM   10  C10 8UH 61620     -45.199 142.570  10.178  1.00 97.95     0.007 C 
HETATM   11  C11 8UH 61620     -44.359 141.927   9.184  1.00 97.95     0.001 C 
HETATM   12  C12 8UH 61620     -43.377 141.206   9.695  1.00 97.95     0.007 C 
HETATM   13  C13 8UH 61620     -42.422 140.443   8.883  1.00 97.95    -0.062 C 
HETATM   14  C14 8UH 61620     -41.719 139.524   9.542  1.00 97.95     0.007 C 
HETATM   15  C15 8UH 61620     -40.760 138.646   8.901  1.00 97.95     0.001 C 
HETATM   16  C16 8UH 61620     -51.220 144.372  11.730  1.00 97.95     0.020 C 
HETATM   17  C17 8UH 61620     -49.456 142.866  12.603  1.00 97.95     0.020 C 
HETATM   18  C18 8UH 61620     -47.501 147.259  11.907  1.00 97.95     0.044 C 
HETATM   19  C19 8UH 61620     -46.625 143.634   8.458  1.00 97.95     0.048 C 
HETATM   20  C20 8UH 61620     -42.262 140.669   7.411  1.00 97.95     0.048 C 
HETATM   21  O3  8UH 61620     -50.478 146.429  15.652  1.00 97.95    -0.395 OA
ATOM     22  H3  8UH 61620     -50.030 147.167  16.049  1.00  0.00     0.210 HD
HETATM   23  C21 8UH 61620     -34.177 128.175   6.982  1.00 23.68    -0.018 C 
HETATM   24  C22 8UH 61620     -33.479 127.668   5.723  1.00 23.68     0.045 C 
HETATM   25  C23 8UH 61620     -32.191 128.350   5.278  1.00 23.68     0.123 C 
HETATM   26  C24 8UH 61620     -31.445 128.967   6.446  1.00 23.68     0.066 C 
HETATM   27  C25 8UH 61620     -32.386 129.879   7.183  1.00 23.68    -0.074 C 
HETATM   28  C26 8UH 61620     -33.582 129.439   7.581  1.00 23.68    -0.048 C 
HETATM   29  C27 8UH 61620     -34.339 130.152   8.645  1.00 23.68     0.009 C 
HETATM   30  C28 8UH 61620     -35.121 131.209   8.403  1.00 23.68     0.007 C 
HETATM   31  C29 8UH 61620     -35.872 131.903   9.458  1.00 97.95    -0.062 C 
HETATM   32  C30 8UH 61620     -36.617 132.921   9.042  1.00 97.95     0.007 C 
HETATM   33  C31 8UH 61620     -37.454 133.746   9.892  1.00 97.95     0.001 C 
HETATM   34  C32 8UH 61620     -38.072 134.697   9.215  1.00 97.95     0.007 C 
HETATM   35  C33 8UH 61620     -38.982 135.654   9.837  1.00 97.95    -0.062 C 
HETATM   36  C34 8UH 61620     -39.524 136.580   9.046  1.00 97.95     0.007 C 
HETATM   37  C35 8UH 61620     -40.452 137.556   9.587  1.00 97.95     0.001 C 
HETATM   38  C36 8UH 61620     -34.148 127.028   7.976  1.00 23.68     0.020 C 
HETATM   39  C37 8UH 61620     -35.625 128.482   6.631  1.00 23.68     0.020 C 
HETATM   40  C38 8UH 61620     -31.592 130.841   8.012  1.00 23.68     0.044 C 
HETATM   41  C39 8UH 61620     -35.812 131.483  10.895  1.00 97.95     0.048 C 
HETATM   42  C40 8UH 61620     -39.283 135.587  11.301  1.00 97.95     0.048 C 
HETATM   43  O23 8UH 61620     -31.355 127.372   4.656  1.00 23.68    -0.395 OA
ATOM     44  H23 8UH 61620     -30.552 127.797   4.379  1.00  0.00     0.210 HD
ENDROOT
TORSDOF 12
