REMARK VINA RESULT:    -7.942      0.000      0.000
REMARK INTER + INTRA:         -10.715
REMARK INTER:                  -7.942
REMARK INTRA:                  -2.774
REMARK UNBOUND:                -2.774
REMARK  0 active torsions:
REMARK  status: ('A' for Active; 'I' for Inactive)
REMARK       I    between atoms: C3_3  and  O3_21 
REMARK       I    between atoms: C6_6  and  C7_7 
REMARK       I    between atoms: C8_8  and  C9_9 
REMARK       I    between atoms: C10_10  and  C11_11 
REMARK       I    between atoms: C12_12  and  C13_13 
REMARK       I    between atoms: C14_14  and  C15_15 
REMARK       I    between atoms: C23_25  and  O23_43 
REMARK       I    between atoms: C26_28  and  C27_29 
REMARK       I    between atoms: C28_30  and  C29_31 
REMARK       I    between atoms: C30_32  and  C31_33 
REMARK       I    between atoms: C32_34  and  C33_35 
REMARK       I    between atoms: C34_36  and  C35_37 
ROOT
HETATM    1  C1  8UH 7 615     -49.902 144.495  12.752  1.00 73.60    -0.018 C 
HETATM    2  C2  8UH 7 615     -50.682 145.151  13.888  1.00 75.55     0.045 C 
HETATM    3  C3  8UH 7 615     -49.826 145.950  14.860  1.00 76.70     0.123 C 
HETATM    4  C4  8UH 7 615     -49.009 146.967  14.087  1.00 74.32     0.066 C 
HETATM    5  C5  8UH 7 615     -48.151 146.257  13.074  1.00 72.24    -0.074 C 
HETATM    6  C6  8UH 7 615     -48.595 145.188  12.405  1.00 72.79    -0.048 C 
HETATM    7  C7  8UH 7 615     -47.808 144.645  11.269  1.00 73.20     0.009 C 
HETATM    8  C8  8UH 7 615     -46.733 143.882  11.479  1.00 73.76     0.007 C 
HETATM    9  C9  8UH 7 615     -45.935 143.313  10.375  1.00 74.91    -0.062 C 
HETATM   10  C10 8UH 7 615     -44.960 142.449  10.690  1.00 76.80     0.007 C 
HETATM   11  C11 8UH 7 615     -44.104 141.794   9.705  1.00 78.16     0.001 C 
HETATM   12  C12 8UH 7 615     -43.248 140.894  10.185  1.00 79.81     0.007 C 
HETATM   13  C13 8UH 7 615     -42.329 140.107   9.344  1.00 80.85    -0.062 C 
HETATM   14  C14 8UH 7 615     -41.696 139.075   9.922  1.00 82.27     0.007 C 
HETATM   15  C15 8UH 7 615     -40.789 138.189   9.200  1.00 83.03     0.001 C 
HETATM   16  C16 8UH 7 615     -50.795 144.458  11.517  1.00 74.39     0.020 C 
HETATM   17  C17 8UH 7 615     -49.568 143.066  13.158  1.00 72.12     0.020 C 
HETATM   18  C18 8UH 7 615     -46.967 147.037  12.584  1.00 72.14     0.044 C 
HETATM   19  C19 8UH 7 615     -46.204 143.685   8.947  1.00 74.86     0.048 C 
HETATM   20  C20 8UH 7 615     -42.122 140.443   7.896  1.00 80.14     0.048 C 
HETATM   21  O3  8UH 7 615     -50.672 146.632  15.794  1.00 78.13    -0.395 OA
ATOM     22  H3  8UH 7 615     -50.136 147.130  16.401  1.00  0.00     0.210 HD
HETATM   23  C21 8UH 7 615     -34.490 127.719   6.381  1.00 27.76    -0.018 C 
HETATM   24  C22 8UH 7 615     -33.863 127.263   5.067  1.00 27.76     0.045 C 
HETATM   25  C23 8UH 7 615     -32.458 127.728   4.707  1.00 27.76     0.123 C 
HETATM   26  C24 8UH 7 615     -31.629 128.058   5.930  1.00 27.76     0.066 C 
HETATM   27  C25 8UH 7 615     -32.403 129.003   6.805  1.00 27.76    -0.074 C 
HETATM   28  C26 8UH 7 615     -33.685 128.779   7.103  1.00 27.76    -0.048 C 
HETATM   29  C27 8UH 7 615     -34.326 129.569   8.183  1.00 27.76     0.009 C 
HETATM   30  C28 8UH 7 615     -35.006 130.698   7.951  1.00 27.76     0.007 C 
HETATM   31  C29 8UH 7 615     -35.625 131.472   9.046  1.00 88.65    -0.062 C 
HETATM   32  C30 8UH 7 615     -36.480 132.441   8.689  1.00 87.62     0.007 C 
HETATM   33  C31 8UH 7 615     -37.212 133.297   9.617  1.00 86.36     0.001 C 
HETATM   34  C32 8UH 7 615     -37.929 134.277   9.070  1.00 84.48     0.007 C 
HETATM   35  C33 8UH 7 615     -38.763 135.224   9.835  1.00 83.44    -0.062 C 
HETATM   36  C34 8UH 7 615     -39.362 136.228   9.178  1.00 83.36     0.007 C 
HETATM   37  C35 8UH 7 615     -40.238 137.172   9.862  1.00 83.46     0.001 C 
HETATM   38  C36 8UH 7 615     -34.691 126.473   7.241  1.00 27.76     0.020 C 
HETATM   39  C37 8UH 7 615     -35.855 128.319   6.080  1.00 27.76     0.020 C 
HETATM   40  C38 8UH 7 615     -31.535 129.861   7.680  1.00 27.76     0.044 C 
HETATM   41  C39 8UH 7 615     -35.316 131.186  10.486  1.00 86.98     0.048 C 
HETATM   42  C40 8UH 7 615     -38.963 135.052  11.311  1.00 83.08     0.048 C 
HETATM   43  O23 8UH 7 615     -31.790 126.701   3.970  1.00 27.76    -0.395 OA
ATOM     44  H23 8UH 7 615     -30.913 126.991   3.746  1.00  0.00     0.210 HD
ENDROOT
TORSDOF 12
