REMARK VINA RESULT:   -10.081      1.655     16.747
REMARK INTER + INTRA:         -10.433
REMARK INTER:                  -7.563
REMARK INTRA:                  -2.870
REMARK UNBOUND:                -0.352
REMARK  0 active torsions:
REMARK  status: ('A' for Active; 'I' for Inactive)
REMARK       I    between atoms: C3_3  and  O3_21 
REMARK       I    between atoms: C6_6  and  C7_7 
REMARK       I    between atoms: C8_8  and  C9_9 
REMARK       I    between atoms: C10_10  and  C11_11 
REMARK       I    between atoms: C12_12  and  C13_13 
REMARK       I    between atoms: C14_14  and  C15_15 
REMARK       I    between atoms: C23_25  and  O23_43 
REMARK       I    between atoms: C26_28  and  C27_29 
REMARK       I    between atoms: C28_30  and  C29_31 
REMARK       I    between atoms: C30_32  and  C31_33 
REMARK       I    between atoms: C32_34  and  C33_35 
REMARK       I    between atoms: C34_36  and  C35_37 
ROOT
HETATM    1  C1  8UH G1620     -49.429 145.030  12.633  1.00 66.29    -0.018 C 
HETATM    2  C2  8UH G1620     -50.041 145.324  13.997  1.00 66.29     0.045 C 
HETATM    3  C3  8UH G1620     -49.287 146.249  14.941  1.00 66.29     0.123 C 
HETATM    4  C4  8UH G1620     -48.513 147.305  14.181  1.00 66.29     0.066 C 
HETATM    5  C5  8UH G1620     -47.610 146.638  13.188  1.00 66.29    -0.074 C 
HETATM    6  C6  8UH G1620     -48.056 145.639  12.417  1.00 66.29    -0.048 C 
HETATM    7  C7  8UH G1620     -47.218 145.110  11.310  1.00 66.29     0.009 C 
HETATM    8  C8  8UH G1620     -46.321 144.142  11.515  1.00 66.29     0.007 C 
HETATM    9  C9  8UH G1620     -45.490 143.593  10.435  1.00 66.29    -0.062 C 
HETATM   10  C10 8UH G1620     -44.567 142.688  10.773  1.00 66.29     0.007 C 
HETATM   11  C11 8UH G1620     -43.686 142.051   9.808  1.00 66.29     0.001 C 
HETATM   12  C12 8UH G1620     -42.984 141.029  10.273  1.00 66.29     0.007 C 
HETATM   13  C13 8UH G1620     -42.053 140.248   9.447  1.00 66.29    -0.062 C 
HETATM   14  C14 8UH G1620     -41.502 139.162   9.999  1.00 66.29     0.007 C 
HETATM   15  C15 8UH G1620     -40.588 138.299   9.269  1.00 66.29     0.001 C 
HETATM   16  C16 8UH G1620     -50.413 145.514  11.575  1.00 66.29     0.020 C 
HETATM   17  C17 8UH G1620     -49.296 143.520  12.510  1.00 66.29     0.020 C 
HETATM   18  C18 8UH G1620     -46.341 147.383  12.891  1.00 66.29     0.044 C 
HETATM   19  C19 8UH G1620     -45.685 144.028   9.015  1.00 66.29     0.048 C 
HETATM   20  C20 8UH G1620     -41.745 140.650   8.037  1.00 66.29     0.048 C 
HETATM   21  O3  8UH G1620     -50.235 146.900  15.791  1.00 66.29    -0.395 OA
ATOM     22  H3  8UH G1620     -50.721 146.238  16.268  1.00  0.00     0.210 HD
HETATM   23  C21 8UH G1620     -34.439 127.805   6.374  1.00 25.46    -0.018 C 
HETATM   24  C22 8UH G1620     -33.719 127.266   5.142  1.00 25.46     0.045 C 
HETATM   25  C23 8UH G1620     -32.362 127.864   4.815  1.00 25.46     0.123 C 
HETATM   26  C24 8UH G1620     -31.583 128.113   6.086  1.00 25.46     0.066 C 
HETATM   27  C25 8UH G1620     -32.379 129.074   6.919  1.00 25.46    -0.074 C 
HETATM   28  C26 8UH G1620     -33.670 128.842   7.176  1.00 25.46    -0.048 C 
HETATM   29  C27 8UH G1620     -34.369 129.560   8.280  1.00 25.46     0.009 C 
HETATM   30  C28 8UH G1620     -34.922 130.764   8.104  1.00 25.46     0.007 C 
HETATM   31  C29 8UH G1620     -35.622 131.508   9.147  1.00 66.29    -0.062 C 
HETATM   32  C30 8UH G1620     -36.438 132.489   8.754  1.00 66.29     0.007 C 
HETATM   33  C31 8UH G1620     -37.230 133.313   9.656  1.00 66.29     0.001 C 
HETATM   34  C32 8UH G1620     -37.889 134.314   9.087  1.00 66.29     0.007 C 
HETATM   35  C33 8UH G1620     -38.754 135.230   9.839  1.00 66.29    -0.062 C 
HETATM   36  C34 8UH G1620     -39.328 136.238   9.175  1.00 66.29     0.007 C 
HETATM   37  C35 8UH G1620     -40.217 137.167   9.855  1.00 66.29     0.001 C 
HETATM   38  C36 8UH G1620     -34.829 126.606   7.234  1.00 25.46     0.020 C 
HETATM   39  C37 8UH G1620     -35.695 128.503   5.894  1.00 25.46     0.020 C 
HETATM   40  C38 8UH G1620     -31.491 129.796   7.882  1.00 25.46     0.044 C 
HETATM   41  C39 8UH G1620     -35.429 131.167  10.595  1.00 66.29     0.048 C 
HETATM   42  C40 8UH G1620     -38.989 135.014  11.305  1.00 66.29     0.048 C 
HETATM   43  O23 8UH G1620     -31.643 126.936   3.998  1.00 25.46    -0.395 OA
ATOM     44  H23 8UH G1620     -32.133 126.780   3.199  1.00  0.00     0.210 HD
ENDROOT
TORSDOF 12
