REMARK VINA RESULT:    -9.163      0.871     16.714
REMARK INTER + INTRA:         -12.108
REMARK INTER:                  -9.018
REMARK INTRA:                  -3.090
REMARK UNBOUND:                -2.945
REMARK  0 active torsions:
REMARK  status: ('A' for Active; 'I' for Inactive)
REMARK       I    between atoms: C3_3  and  O3_21 
REMARK       I    between atoms: C6_6  and  C7_7 
REMARK       I    between atoms: C8_8  and  C9_9 
REMARK       I    between atoms: C10_10  and  C11_11 
REMARK       I    between atoms: C12_12  and  C13_13 
REMARK       I    between atoms: C14_14  and  C15_15 
REMARK       I    between atoms: C23_25  and  O23_43 
REMARK       I    between atoms: C26_28  and  C27_29 
REMARK       I    between atoms: C28_30  and  C29_31 
REMARK       I    between atoms: C30_32  and  C31_33 
REMARK       I    between atoms: C32_34  and  C33_35 
REMARK       I    between atoms: C34_36  and  C35_37 
ROOT
HETATM    1  C1  8UH G1621     -34.535 126.962   6.136  1.00 57.09    -0.018 C 
HETATM    2  C2  8UH G1621     -34.115 126.320   4.820  1.00 57.09     0.045 C 
HETATM    3  C3  8UH G1621     -32.907 126.907   4.113  1.00 57.09     0.123 C 
HETATM    4  C4  8UH G1621     -31.863 127.345   5.116  1.00 57.09     0.066 C 
HETATM    5  C5  8UH G1621     -32.482 128.347   6.045  1.00 57.09    -0.074 C 
HETATM    6  C6  8UH G1621     -33.663 128.100   6.623  1.00 57.09    -0.048 C 
HETATM    7  C7  8UH G1621     -34.152 128.911   7.770  1.00 57.09     0.009 C 
HETATM    8  C8  8UH G1621     -34.739 130.100   7.596  1.00 57.09     0.007 C 
HETATM    9  C9  8UH G1621     -35.257 130.931   8.694  1.00 57.09    -0.062 C 
HETATM   10  C10 8UH G1621     -36.190 131.823   8.353  1.00 57.09     0.007 C 
HETATM   11  C11 8UH G1621     -36.886 132.744   9.241  1.00 57.09     0.001 C 
HETATM   12  C12 8UH G1621     -37.809 133.491   8.648  1.00 57.09     0.007 C 
HETATM   13  C13 8UH G1621     -38.668 134.459   9.345  1.00 57.09    -0.062 C 
HETATM   14  C14 8UH G1621     -39.500 135.220   8.620  1.00 57.09     0.007 C 
HETATM   15  C15 8UH G1621     -40.413 136.165   9.250  1.00 57.09     0.001 C 
HETATM   16  C16 8UH G1621     -34.602 125.850   7.171  1.00 57.09     0.020 C 
HETATM   17  C17 8UH G1621     -35.920 127.535   5.934  1.00 57.09     0.020 C 
HETATM   18  C18 8UH G1621     -31.449 129.237   6.672  1.00 57.09     0.044 C 
HETATM   19  C19 8UH G1621     -34.765 130.784  10.102  1.00 57.09     0.048 C 
HETATM   20  C20 8UH G1621     -38.641 134.546  10.839  1.00 57.09     0.048 C 
HETATM   21  O3  8UH G1621     -32.350 125.884   3.285  1.00 57.09    -0.395 OA
ATOM     22  H3  8UH G1621     -31.594 126.251   2.842  1.00  0.00     0.210 HD
HETATM   23  C21 8UH G1621     -50.004 144.363  10.625  1.00 62.55    -0.018 C 
HETATM   24  C22 8UH G1621     -50.714 144.819  11.897  1.00 62.55     0.045 C 
HETATM   25  C23 8UH G1621     -49.924 145.649  12.904  1.00 62.55     0.123 C 
HETATM   26  C24 8UH G1621     -48.914 146.542  12.210  1.00 62.55     0.066 C 
HETATM   27  C25 8UH G1621     -48.010 145.641  11.414  1.00 62.55    -0.074 C 
HETATM   28  C26 8UH G1621     -48.525 144.720  10.592  1.00 62.55    -0.048 C 
HETATM   29  C27 8UH G1621     -47.644 144.049   9.611  1.00 62.55     0.009 C 
HETATM   30  C28 8UH G1621     -47.004 142.920   9.910  1.00 62.55     0.007 C 
HETATM   31  C29 8UH G1621     -46.119 142.246   8.946  1.00 57.09    -0.062 C 
HETATM   32  C30 8UH G1621     -45.690 141.031   9.294  1.00 57.09     0.007 C 
HETATM   33  C31 8UH G1621     -44.808 140.219   8.471  1.00 57.09     0.001 C 
HETATM   34  C32 8UH G1621     -43.939 139.459   9.124  1.00 57.09     0.007 C 
HETATM   35  C33 8UH G1621     -42.991 138.586   8.432  1.00 57.09    -0.062 C 
HETATM   36  C34 8UH G1621     -42.229 137.741   9.131  1.00 57.09     0.007 C 
HETATM   37  C35 8UH G1621     -41.282 136.831   8.500  1.00 57.09     0.001 C 
HETATM   38  C36 8UH G1621     -50.756 144.966   9.437  1.00 62.55     0.020 C 
HETATM   39  C37 8UH G1621     -50.108 142.847  10.539  1.00 62.55     0.020 C 
HETATM   40  C38 8UH G1621     -46.640 146.218  11.195  1.00 62.55     0.044 C 
HETATM   41  C39 8UH G1621     -45.711 142.891   7.659  1.00 57.09     0.048 C 
HETATM   42  C40 8UH G1621     -42.896 138.690   6.954  1.00 57.09     0.048 C 
HETATM   43  O23 8UH G1621     -50.831 146.461  13.659  1.00 62.55    -0.395 OA
ATOM     44  H23 8UH G1621     -50.339 146.979  14.286  1.00  0.00     0.210 HD
ENDROOT
TORSDOF 12
