REMARK VINA RESULT:    -8.785      0.000      0.000
REMARK INTER + INTRA:         -13.098
REMARK INTER:                  -8.785
REMARK INTRA:                  -4.313
REMARK UNBOUND:                -4.313
REMARK  0 active torsions:
REMARK  status: ('A' for Active; 'I' for Inactive)
REMARK       I    between atoms: C3_3  and  O3_21 
REMARK       I    between atoms: C6_6  and  C7_7 
REMARK       I    between atoms: C8_8  and  C9_9 
REMARK       I    between atoms: C10_10  and  C11_11 
REMARK       I    between atoms: C12_12  and  C13_13 
REMARK       I    between atoms: C14_14  and  C15_15 
REMARK       I    between atoms: C23_25  and  O23_43 
REMARK       I    between atoms: C26_28  and  C27_29 
REMARK       I    between atoms: C28_30  and  C29_31 
REMARK       I    between atoms: C30_32  and  C31_33 
REMARK       I    between atoms: C32_34  and  C33_35 
REMARK       I    between atoms: C34_36  and  C35_37 
ROOT
HETATM    1  C1  8UH 5 620     -50.580 145.312   8.119  1.00 27.86    -0.018 C 
HETATM    2  C2  8UH 5 620     -51.593 146.158   8.881  1.00 27.86     0.045 C 
HETATM    3  C3  8UH 5 620     -51.110 146.617  10.249  1.00 27.86     0.123 C 
HETATM    4  C4  8UH 5 620     -49.804 147.377  10.101  1.00 27.86     0.066 C 
HETATM    5  C5  8UH 5 620     -48.791 146.531   9.377  1.00 27.86    -0.074 C 
HETATM    6  C6  8UH 5 620     -49.148 145.716   8.379  1.00 27.86    -0.048 C 
HETATM    7  C7  8UH 5 620     -48.115 145.160   7.481  1.00 27.86     0.009 C 
HETATM    8  C8  8UH 5 620     -47.117 144.484   8.036  1.00 27.86     0.007 C 
HETATM    9  C9  8UH 5 620     -46.040 143.873   7.236  1.00 27.86    -0.062 C 
HETATM   10  C10 8UH 5 620     -45.240 142.988   7.845  1.00 27.86     0.007 C 
HETATM   11  C11 8UH 5 620     -44.146 142.292   7.175  1.00 27.86     0.001 C 
HETATM   12  C12 8UH 5 620     -43.670 141.226   7.808  1.00 27.86     0.007 C 
HETATM   13  C13 8UH 5 620     -42.582 140.380   7.287  1.00 27.86    -0.062 C 
HETATM   14  C14 8UH 5 620     -42.428 139.170   7.839  1.00 27.86     0.007 C 
HETATM   15  C15 8UH 5 620     -41.398 138.242   7.394  1.00 27.86     0.001 C 
HETATM   16  C16 8UH 5 620     -50.834 145.455   6.624  1.00 27.86     0.020 C 
HETATM   17  C17 8UH 5 620     -50.738 143.850   8.515  1.00 27.86     0.020 C 
HETATM   18  C18 8UH 5 620     -47.431 147.165   9.388  1.00 27.86     0.044 C 
HETATM   19  C19 8UH 5 620     -45.853 144.230   5.794  1.00 27.86     0.048 C 
HETATM   20  C20 8UH 5 620     -41.686 140.847   6.179  1.00 27.86     0.048 C 
HETATM   21  O3  8UH 5 620     -52.093 147.476  10.833  1.00 27.86    -0.395 OA
ATOM     22  H3  8UH 5 620     -51.792 147.762  11.687  1.00  0.00     0.210 HD
HETATM   23  C21 8UH 5 620     -35.555 126.602   6.697  1.00 22.20    -0.018 C 
HETATM   24  C22 8UH 5 620     -35.194 126.011   5.340  1.00 22.20     0.045 C 
HETATM   25  C23 8UH 5 620     -34.227 126.800   4.485  1.00 22.20     0.123 C 
HETATM   26  C24 8UH 5 620     -33.373 127.686   5.357  1.00 22.20     0.066 C 
HETATM   27  C25 8UH 5 620     -34.320 128.588   6.077  1.00 22.20    -0.074 C 
HETATM   28  C26 8UH 5 620     -35.236 128.060   6.865  1.00 22.20    -0.048 C 
HETATM   29  C27 8UH 5 620     -36.101 128.856   7.747  1.00 22.20     0.009 C 
HETATM   30  C28 8UH 5 620     -36.492 130.062   7.348  1.00 22.20     0.007 C 
HETATM   31  C29 8UH 5 620     -37.555 130.778   8.105  1.00 27.86    -0.062 C 
HETATM   32  C30 8UH 5 620     -38.015 131.904   7.546  1.00 27.86     0.007 C 
HETATM   33  C31 8UH 5 620     -39.053 132.733   8.144  1.00 27.86     0.001 C 
HETATM   34  C32 8UH 5 620     -39.277 133.909   7.567  1.00 27.86     0.007 C 
HETATM   35  C33 8UH 5 620     -40.301 134.848   8.053  1.00 27.86    -0.062 C 
HETATM   36  C34 8UH 5 620     -40.401 136.046   7.463  1.00 27.86     0.007 C 
HETATM   37  C35 8UH 5 620     -41.403 137.011   7.894  1.00 27.86     0.001 C 
HETATM   38  C36 8UH 5 620     -34.759 125.902   7.783  1.00 22.20     0.020 C 
HETATM   39  C37 8UH 5 620     -37.023 126.339   6.938  1.00 22.20     0.020 C 
HETATM   40  C38 8UH 5 620     -33.557 129.803   6.471  1.00 22.20     0.044 C 
HETATM   41  C39 8UH 5 620     -38.085 130.284   9.416  1.00 27.86     0.048 C 
HETATM   42  C40 8UH 5 620     -41.215 134.465   9.178  1.00 27.86     0.048 C 
HETATM   43  O23 8UH 5 620     -33.411 125.851   3.809  1.00 22.20    -0.395 OA
ATOM     44  H23 8UH 5 620     -32.804 126.346   3.272  1.00  0.00     0.210 HD
ENDROOT
TORSDOF 12
