REMARK VINA RESULT:    -8.954      0.000      0.000
REMARK INTER + INTRA:         -11.844
REMARK INTER:                  -8.954
REMARK INTRA:                  -2.890
REMARK UNBOUND:                -2.890
REMARK  0 active torsions:
REMARK  status: ('A' for Active; 'I' for Inactive)
REMARK       I    between atoms: C3_3  and  O3_21 
REMARK       I    between atoms: C6_6  and  C7_7 
REMARK       I    between atoms: C8_8  and  C9_9 
REMARK       I    between atoms: C10_10  and  C11_11 
REMARK       I    between atoms: C12_12  and  C13_13 
REMARK       I    between atoms: C14_14  and  C15_15 
REMARK       I    between atoms: C23_25  and  O23_43 
REMARK       I    between atoms: C26_28  and  C27_29 
REMARK       I    between atoms: C28_30  and  C29_31 
REMARK       I    between atoms: C30_32  and  C31_33 
REMARK       I    between atoms: C32_34  and  C33_35 
REMARK       I    between atoms: C34_36  and  C35_37 
ROOT
HETATM    1  C1  8UH 8 314     -34.388 126.787   6.332  1.00 73.63    -0.018 C 
HETATM    2  C2  8UH 8 314     -33.858 125.985   5.148  1.00 75.58     0.045 C 
HETATM    3  C3  8UH 8 314     -32.984 126.767   4.181  1.00 77.85     0.123 C 
HETATM    4  C4  8UH 8 314     -31.868 127.461   4.944  1.00 76.46     0.066 C 
HETATM    5  C5  8UH 8 314     -32.437 128.333   6.037  1.00 74.82    -0.074 C 
HETATM    6  C6  8UH 8 314     -33.554 128.002   6.697  1.00 72.89    -0.048 C 
HETATM    7  C7  8UH 8 314     -34.024 128.830   7.835  1.00 69.76     0.009 C 
HETATM    8  C8  8UH 8 314     -34.688 129.968   7.619  1.00 67.74     0.007 C 
HETATM    9  C9  8UH 8 314     -35.197 130.819   8.715  1.00 67.19    -0.062 C 
HETATM   10  C10 8UH 8 314     -35.942 131.880   8.379  1.00 64.55     0.007 C 
HETATM   11  C11 8UH 8 314     -36.543 132.813   9.331  1.00 61.91     0.001 C 
HETATM   12  C12 8UH 8 314     -37.407 133.674   8.800  1.00 60.53     0.007 C 
HETATM   13  C13 8UH 8 314     -38.157 134.691   9.562  1.00 59.33    -0.062 C 
HETATM   14  C14 8UH 8 314     -39.099 135.384   8.901  1.00 60.00     0.007 C 
HETATM   15  C15 8UH 8 314     -39.938 136.401   9.531  1.00 60.35     0.001 C 
HETATM   16  C16 8UH 8 314     -34.470 125.850   7.531  1.00 75.09     0.020 C 
HETATM   17  C17 8UH 8 314     -35.788 127.280   5.989  1.00 73.62     0.020 C 
HETATM   18  C18 8UH 8 314     -31.582 129.478   6.494  1.00 74.16     0.044 C 
HETATM   19  C19 8UH 8 314     -34.903 130.498  10.152  1.00 68.15     0.048 C 
HETATM   20  C20 8UH 8 314     -37.885 134.925  11.018  1.00 57.80     0.048 C 
HETATM   21  O3  8UH 8 314     -32.414 125.856   3.233  1.00 79.25    -0.395 OA
ATOM     22  H3  8UH 8 314     -31.868 126.345   2.628  1.00  0.00     0.210 HD
HETATM   23  C21 8UH 8 314     -49.568 144.682  11.622  1.00 22.96    -0.018 C 
HETATM   24  C22 8UH 8 314     -50.194 145.615  12.684  1.00 23.40     0.045 C 
HETATM   25  C23 8UH 8 314     -49.299 146.632  13.390  1.00 22.69     0.123 C 
HETATM   26  C24 8UH 8 314     -48.121 147.118  12.548  1.00 22.06     0.066 C 
HETATM   27  C25 8UH 8 314     -47.488 146.173  11.582  1.00 21.38    -0.074 C 
HETATM   28  C26 8UH 8 314     -48.129 145.038  11.130  1.00 22.58    -0.048 C 
HETATM   29  C27 8UH 8 314     -47.482 144.128  10.164  1.00 22.00     0.009 C 
HETATM   30  C28 8UH 8 314     -46.531 143.206  10.408  1.00 20.93     0.007 C 
HETATM   31  C29 8UH 8 314     -45.828 142.433   9.395  1.00 75.56    -0.062 C 
HETATM   32  C30 8UH 8 314     -45.092 141.377   9.773  1.00 73.06     0.007 C 
HETATM   33  C31 8UH 8 314     -44.348 140.524   8.848  1.00 70.20     0.001 C 
HETATM   34  C32 8UH 8 314     -43.516 139.653   9.414  1.00 68.68     0.007 C 
HETATM   35  C33 8UH 8 314     -42.668 138.684   8.694  1.00 66.05    -0.062 C 
HETATM   36  C34 8UH 8 314     -41.767 137.984   9.405  1.00 63.06     0.007 C 
HETATM   37  C35 8UH 8 314     -40.890 136.985   8.803  1.00 60.73     0.001 C 
HETATM   38  C36 8UH 8 314     -50.561 144.752  10.446  1.00 20.65     0.020 C 
HETATM   39  C37 8UH 8 314     -49.607 143.249  12.186  1.00 21.73     0.020 C 
HETATM   40  C38 8UH 8 314     -46.143 146.713  11.242  1.00 21.05     0.044 C 
HETATM   41  C39 8UH 8 314     -45.927 142.824   7.949  1.00 73.18     0.048 C 
HETATM   42  C40 8UH 8 314     -42.811 138.481   7.215  1.00 66.25     0.048 C 
HETATM   43  O23 8UH 8 314     -50.067 147.739  13.840  1.00 22.00    -0.395 OA
ATOM     44  H23 8UH 8 314     -49.510 148.371  14.279  1.00  0.00     0.210 HD
ENDROOT
TORSDOF 12
