REMARK VINA RESULT:    -9.292      1.484     16.343
REMARK INTER + INTRA:         -12.595
REMARK INTER:                 -11.492
REMARK INTRA:                  -1.103
REMARK UNBOUND:                -3.303
REMARK  0 active torsions:
REMARK  status: ('A' for Active; 'I' for Inactive)
REMARK       I    between atoms: C3_3  and  O3_21 
REMARK       I    between atoms: C6_6  and  C7_7 
REMARK       I    between atoms: C8_8  and  C9_9 
REMARK       I    between atoms: C10_10  and  C11_11 
REMARK       I    between atoms: C12_12  and  C13_13 
REMARK       I    between atoms: C14_14  and  C15_15 
REMARK       I    between atoms: C23_25  and  O23_43 
REMARK       I    between atoms: C26_28  and  C27_29 
REMARK       I    between atoms: C28_30  and  C29_31 
REMARK       I    between atoms: C30_32  and  C31_33 
REMARK       I    between atoms: C32_34  and  C33_35 
REMARK       I    between atoms: C34_36  and  C35_37 
ROOT
HETATM    1  C1  8UH R 620     -34.217 128.554   6.868  1.00 48.79    -0.018 C 
HETATM    2  C2  8UH R 620     -33.482 128.435   5.540  1.00 49.38     0.045 C 
HETATM    3  C3  8UH R 620     -31.956 128.407   5.588  1.00 51.85     0.123 C 
HETATM    4  C4  8UH R 620     -31.363 129.438   6.532  1.00 54.16     0.066 C 
HETATM    5  C5  8UH R 620     -32.230 129.823   7.701  1.00 52.93    -0.074 C 
HETATM    6  C6  8UH R 620     -33.542 129.552   7.794  1.00 53.44    -0.048 C 
HETATM    7  C7  8UH R 620     -34.366 130.217   8.840  1.00 56.18     0.009 C 
HETATM    8  C8  8UH R 620     -35.123 131.283   8.577  1.00 54.04     0.007 C 
HETATM    9  C9  8UH R 620     -35.962 131.948   9.582  1.00 57.87    -0.062 C 
HETATM   10  C10 8UH R 620     -36.565 133.068   9.195  1.00 59.37     0.007 C 
HETATM   11  C11 8UH R 620     -37.454 133.856  10.031  1.00 54.77     0.001 C 
HETATM   12  C12 8UH R 620     -38.080 134.813   9.370  1.00 53.15     0.007 C 
HETATM   13  C13 8UH R 620     -39.054 135.717   9.978  1.00 52.91    -0.062 C 
HETATM   14  C14 8UH R 620     -39.705 136.509   9.133  1.00 56.79     0.007 C 
HETATM   15  C15 8UH R 620     -40.734 137.435   9.562  1.00 60.51     0.001 C 
HETATM   16  C16 8UH R 620     -34.304 127.186   7.528  1.00 50.92     0.020 C 
HETATM   17  C17 8UH R 620     -35.644 129.009   6.574  1.00 48.05     0.020 C 
HETATM   18  C18 8UH R 620     -31.605 130.983   8.406  1.00 55.82     0.044 C 
HETATM   19  C19 8UH R 620     -36.143 131.396  10.961  1.00 58.46     0.048 C 
HETATM   20  C20 8UH R 620     -39.322 135.729  11.451  1.00 55.54     0.048 C 
HETATM   21  O3  8UH R 620     -31.453 127.101   5.902  1.00 50.70    -0.395 OA
ATOM     22  H3  8UH R 620     -31.823 126.456   5.312  1.00  0.00     0.210 HD
HETATM   23  C21 8UH R 620     -50.653 145.137   9.036  1.00 27.99    -0.018 C 
HETATM   24  C22 8UH R 620     -51.827 144.795   9.964  1.00 27.99     0.045 C 
HETATM   25  C23 8UH R 620     -51.449 144.486  11.407  1.00 27.99     0.123 C 
HETATM   26  C24 8UH R 620     -50.379 145.466  11.848  1.00 27.99     0.066 C 
HETATM   27  C25 8UH R 620     -49.170 145.137  11.023  1.00 27.99    -0.074 C 
HETATM   28  C26 8UH R 620     -49.278 145.123   9.688  1.00 27.99    -0.048 C 
HETATM   29  C27 8UH R 620     -48.115 144.865   8.808  1.00 27.99     0.009 C 
HETATM   30  C28 8UH R 620     -47.208 143.967   9.216  1.00 27.99     0.007 C 
HETATM   31  C29 8UH R 620     -46.173 143.494   8.272  1.00 46.41    -0.062 C 
HETATM   32  C30 8UH R 620     -45.649 142.326   8.612  1.00 51.67     0.007 C 
HETATM   33  C31 8UH R 620     -44.614 141.636   7.881  1.00 48.57     0.001 C 
HETATM   34  C32 8UH R 620     -44.031 140.717   8.623  1.00 50.80     0.007 C 
HETATM   35  C33 8UH R 620     -42.954 139.874   8.124  1.00 54.69    -0.062 C 
HETATM   36  C34 8UH R 620     -42.445 138.986   8.975  1.00 55.71     0.007 C 
HETATM   37  C35 8UH R 620     -41.384 138.075   8.603  1.00 57.66     0.001 C 
HETATM   38  C36 8UH R 620     -50.821 146.592   8.594  1.00 27.99     0.020 C 
HETATM   39  C37 8UH R 620     -50.715 144.213   7.822  1.00 27.99     0.020 C 
HETATM   40  C38 8UH R 620     -47.910 145.549  11.734  1.00 27.99     0.044 C 
HETATM   41  C39 8UH R 620     -45.743 144.248   7.054  1.00 47.78     0.048 C 
HETATM   42  C40 8UH R 620     -42.455 140.039   6.724  1.00 56.30     0.048 C 
HETATM   43  O23 8UH R 620     -52.600 144.591  12.255  1.00 27.99    -0.395 OA
ATOM     44  H23 8UH R 620     -52.364 144.398  13.155  1.00  0.00     0.210 HD
ENDROOT
TORSDOF 12
