REMARK VINA RESULT:    -9.425      1.330     16.737
REMARK INTER + INTRA:         -12.053
REMARK INTER:                 -11.808
REMARK INTRA:                  -0.245
REMARK UNBOUND:                -2.628
REMARK  0 active torsions:
REMARK  status: ('A' for Active; 'I' for Inactive)
REMARK       I    between atoms: C3_3  and  O3_21 
REMARK       I    between atoms: C6_6  and  C7_7 
REMARK       I    between atoms: C8_8  and  C9_9 
REMARK       I    between atoms: C10_10  and  C11_11 
REMARK       I    between atoms: C12_12  and  C13_13 
REMARK       I    between atoms: C14_14  and  C15_15 
REMARK       I    between atoms: C23_25  and  O23_43 
REMARK       I    between atoms: C26_28  and  C27_29 
REMARK       I    between atoms: C28_30  and  C29_31 
REMARK       I    between atoms: C30_32  and  C31_33 
REMARK       I    between atoms: C32_34  and  C33_35 
REMARK       I    between atoms: C34_36  and  C35_37 
ROOT
HETATM    1  C1  8UH 9 617     -49.739 145.680  11.721  1.00 40.88    -0.018 C 
HETATM    2  C2  8UH 9 617     -50.469 145.725  13.064  1.00 40.88     0.045 C 
HETATM    3  C3  8UH 9 617     -49.773 146.413  14.234  1.00 40.88     0.123 C 
HETATM    4  C4  8UH 9 617     -48.872 147.540  13.766  1.00 40.88     0.066 C 
HETATM    5  C5  8UH 9 617     -47.897 146.963  12.776  1.00 40.88    -0.074 C 
HETATM    6  C6  8UH 9 617     -48.306 146.170  11.781  1.00 40.88    -0.048 C 
HETATM    7  C7  8UH 9 617     -47.360 145.781  10.697  1.00 40.88     0.009 C 
HETATM    8  C8  8UH 9 617     -46.656 144.650  10.733  1.00 40.88     0.007 C 
HETATM    9  C9  8UH 9 617     -45.716 144.242   9.668  1.00 40.88    -0.062 C 
HETATM   10  C10 8UH 9 617     -44.997 143.139   9.890  1.00 40.88     0.007 C 
HETATM   11  C11 8UH 9 617     -44.012 142.542   8.999  1.00 40.88     0.001 C 
HETATM   12  C12 8UH 9 617     -43.230 141.649   9.593  1.00 40.88     0.007 C 
HETATM   13  C13 8UH 9 617     -42.182 140.864   8.927  1.00 40.88    -0.062 C 
HETATM   14  C14 8UH 9 617     -41.700 139.818   9.616  1.00 40.88     0.007 C 
HETATM   15  C15 8UH 9 617     -40.698 138.900   9.092  1.00 40.88     0.001 C 
HETATM   16  C16 8UH 9 617     -50.569 146.471  10.712  1.00 40.88     0.020 C 
HETATM   17  C17 8UH 9 617     -49.685 144.232  11.264  1.00 40.88     0.020 C 
HETATM   18  C18 8UH 9 617     -46.559 147.630  12.740  1.00 40.88     0.044 C 
HETATM   19  C19 8UH 9 617     -45.572 145.026   8.400  1.00 40.88     0.048 C 
HETATM   20  C20 8UH 9 617     -41.705 141.200   7.545  1.00 40.88     0.048 C 
HETATM   21  O3  8UH 9 617     -50.774 146.955  15.103  1.00 40.88    -0.395 OA
ATOM     22  H3  8UH 9 617     -51.339 146.249  15.396  1.00  0.00     0.210 HD
HETATM   23  C21 8UH 9 617     -33.889 128.110   7.460  1.00 98.00    -0.022 C 
HETATM   24  C22 8UH 9 617     -32.585 127.492   6.963  1.00 98.00     0.045 C 
HETATM   25  C23 8UH 9 617     -31.908 128.274   5.841  1.00 98.00     0.119 C 
HETATM   26  C24 8UH 9 617     -31.745 129.738   6.218  1.00 98.00     0.040 C 
HETATM   27  C25 8UH 9 617     -33.099 130.261   6.611  1.00 98.00     0.013 C 
HETATM   28  C26 8UH 9 617     -33.788 129.612   7.533  1.00 98.00    -0.068 C 
HETATM   29  C27 8UH 9 617     -34.424 130.346   8.638  1.00 98.00     0.004 C 
HETATM   30  C28 8UH 9 617     -35.397 131.204   8.357  1.00 98.00     0.007 C 
HETATM   31  C29 8UH 9 617     -36.092 131.945   9.428  1.00 40.88    -0.062 C 
HETATM   32  C30 8UH 9 617     -37.014 132.826   9.038  1.00 40.88     0.007 C 
HETATM   33  C31 8UH 9 617     -37.830 133.634   9.936  1.00 40.88     0.001 C 
HETATM   34  C32 8UH 9 617     -38.377 134.694   9.361  1.00 40.88     0.007 C 
HETATM   35  C33 8UH 9 617     -39.269 135.660  10.006  1.00 40.88    -0.062 C 
HETATM   36  C34 8UH 9 617     -39.622 136.727   9.278  1.00 40.88     0.007 C 
HETATM   37  C35 8UH 9 617     -40.546 137.751   9.748  1.00 40.88     0.001 C 
HETATM   38  C36 8UH 9 617     -34.224 127.531   8.828  1.00 98.00     0.019 C 
HETATM   39  C37 8UH 9 617     -35.027 127.783   6.507  1.00 98.00     0.019 C 
HETATM   40  C38 8UH 9 617     -32.097 131.314   6.993  1.00 98.00     0.015 C 
HETATM   41  C39 8UH 9 617     -35.794 131.702  10.876  1.00 40.88     0.048 C 
HETATM   42  C40 8UH 9 617     -39.772 135.430  11.400  1.00 40.88     0.048 C 
HETATM   43  O23 8UH 9 617     -30.624 127.709   5.562  1.00 98.00    -0.396 OA
ATOM     44  H23 8UH 9 617     -30.203 128.195   4.863  1.00  0.00     0.210 HD
ENDROOT
TORSDOF 12
