REMARK VINA RESULT:    -9.328      1.335     17.209
REMARK INTER + INTRA:         -10.372
REMARK INTER:                  -7.150
REMARK INTRA:                  -3.222
REMARK UNBOUND:                -1.044
REMARK  0 active torsions:
REMARK  status: ('A' for Active; 'I' for Inactive)
REMARK       I    between atoms: C3_3  and  O3_21 
REMARK       I    between atoms: C6_6  and  C7_7 
REMARK       I    between atoms: C8_8  and  C9_9 
REMARK       I    between atoms: C10_10  and  C11_11 
REMARK       I    between atoms: C12_12  and  C13_13 
REMARK       I    between atoms: C14_14  and  C15_15 
REMARK       I    between atoms: C23_25  and  O23_43 
REMARK       I    between atoms: C26_28  and  C27_29 
REMARK       I    between atoms: C28_30  and  C29_31 
REMARK       I    between atoms: C30_32  and  C31_33 
REMARK       I    between atoms: C32_34  and  C33_35 
REMARK       I    between atoms: C34_36  and  C35_37 
ROOT
HETATM    1  C1  8UH D3621     -34.597 127.236   6.015  1.00 23.41    -0.018 C 
HETATM    2  C2  8UH D3621     -34.109 126.485   4.763  1.00 23.79     0.045 C 
HETATM    3  C3  8UH D3621     -32.873 126.963   4.007  1.00 23.28     0.123 C 
HETATM    4  C4  8UH D3621     -31.946 127.872   4.829  1.00 23.70     0.066 C 
HETATM    5  C5  8UH D3621     -32.449 128.577   6.057  1.00 23.84    -0.074 C 
HETATM    6  C6  8UH D3621     -33.669 128.313   6.647  1.00 22.99    -0.048 C 
HETATM    7  C7  8UH D3621     -34.186 128.987   7.868  1.00 20.55     0.009 C 
HETATM    8  C8  8UH D3621     -34.778 130.200   7.887  1.00 19.35     0.007 C 
HETATM    9  C9  8UH D3621     -35.275 130.992   9.014  1.00 18.45    -0.062 C 
HETATM   10  C10 8UH D3621     -35.949 132.127   8.727  1.00 18.11     0.007 C 
HETATM   11  C11 8UH D3621     -36.598 133.005   9.658  1.00 18.44     0.001 C 
HETATM   12  C12 8UH D3621     -37.319 134.078   9.257  1.00 19.34     0.007 C 
HETATM   13  C13 8UH D3621     -38.101 134.973  10.132  1.00 20.12    -0.062 C 
HETATM   14  C14 8UH D3621     -38.794 135.988   9.564  1.00 19.73     0.007 C 
HETATM   15  C15 8UH D3621     -39.666 136.950  10.232  1.00 19.24     0.001 C 
HETATM   16  C16 8UH D3621     -34.828 126.080   6.995  1.00 23.73     0.020 C 
HETATM   17  C17 8UH D3621     -35.961 127.852   5.680  1.00 23.42     0.020 C 
HETATM   18  C18 8UH D3621     -31.421 129.543   6.520  1.00 22.78     0.044 C 
HETATM   19  C19 8UH D3621     -35.068 130.451  10.396  1.00 16.12     0.048 C 
HETATM   20  C20 8UH D3621     -38.088 134.670  11.605  1.00 17.75     0.048 C 
HETATM   21  O3  8UH D3621     -32.154 125.850   3.492  1.00 21.52    -0.395 OA
ATOM     22  H3  8UH D3621     -32.727 125.288   2.983  1.00  0.00     0.210 HD
HETATM   23  C21 8UH D3621     -47.748 146.548  13.524  1.00 87.69    -0.018 C 
HETATM   24  C22 8UH D3621     -48.395 146.725  14.884  1.00 87.69     0.045 C 
HETATM   25  C23 8UH D3621     -47.737 147.726  15.829  1.00 87.69     0.123 C 
HETATM   26  C24 8UH D3621     -46.237 147.900  15.647  1.00 87.69     0.066 C 
HETATM   27  C25 8UH D3621     -45.620 146.880  14.725  1.00 87.69    -0.074 C 
HETATM   28  C26 8UH D3621     -46.250 146.465  13.628  1.00 87.69    -0.048 C 
HETATM   29  C27 8UH D3621     -45.493 145.945  12.467  1.00 87.69     0.009 C 
HETATM   30  C28 8UH D3621     -45.066 144.687  12.437  1.00 87.69     0.007 C 
HETATM   31  C29 8UH D3621     -44.315 144.088  11.287  1.00 21.21    -0.062 C 
HETATM   32  C30 8UH D3621     -43.890 142.808  11.407  1.00 20.08     0.007 C 
HETATM   33  C31 8UH D3621     -43.142 142.060  10.423  1.00 17.89     0.001 C 
HETATM   34  C32 8UH D3621     -42.566 140.861  10.684  1.00 17.64     0.007 C 
HETATM   35  C33 8UH D3621     -41.734 140.025   9.784  1.00 17.45    -0.062 C 
HETATM   36  C34 8UH D3621     -41.160 138.912  10.301  1.00 15.95     0.007 C 
HETATM   37  C35 8UH D3621     -40.277 137.980   9.617  1.00 18.41     0.001 C 
HETATM   38  C36 8UH D3621     -48.179 147.658  12.570  1.00 87.69     0.020 C 
HETATM   39  C37 8UH D3621     -48.237 145.230  12.966  1.00 87.69     0.020 C 
HETATM   40  C38 8UH D3621     -44.190 147.320  14.680  1.00 87.69     0.044 C 
HETATM   41  C39 8UH D3621     -44.001 144.967  10.105  1.00 22.05     0.048 C 
HETATM   42  C40 8UH D3621     -41.523 140.516   8.373  1.00 11.49     0.048 C 
HETATM   43  O23 8UH D3621     -48.361 148.988  15.605  1.00 87.69    -0.395 OA
ATOM     44  H23 8UH D3621     -47.951 149.612  16.193  1.00  0.00     0.210 HD
ENDROOT
TORSDOF 12
