REMARK VINA RESULT:    -9.314      1.333     16.562
REMARK INTER + INTRA:         -11.643
REMARK INTER:                  -9.568
REMARK INTRA:                  -2.075
REMARK UNBOUND:                -2.329
REMARK  0 active torsions:
REMARK  status: ('A' for Active; 'I' for Inactive)
REMARK       I    between atoms: C3_3  and  O3_21 
REMARK       I    between atoms: C6_6  and  C7_7 
REMARK       I    between atoms: C8_8  and  C9_9 
REMARK       I    between atoms: C10_10  and  C11_11 
REMARK       I    between atoms: C12_12  and  C13_13 
REMARK       I    between atoms: C14_14  and  C15_15 
REMARK       I    between atoms: C23_25  and  O23_43 
REMARK       I    between atoms: C26_28  and  C27_29 
REMARK       I    between atoms: C28_30  and  C29_31 
REMARK       I    between atoms: C30_32  and  C31_33 
REMARK       I    between atoms: C32_34  and  C33_35 
REMARK       I    between atoms: C34_36  and  C35_37 
ROOT
HETATM    1  C1  8UH 3 316     -48.662 145.169  12.047  1.00 78.71    -0.018 C 
HETATM    2  C2  8UH 3 316     -49.477 145.314  13.334  1.00 77.73     0.045 C 
HETATM    3  C3  8UH 3 316     -48.725 145.855  14.544  1.00 76.79     0.123 C 
HETATM    4  C4  8UH 3 316     -47.846 147.018  14.126  1.00 76.86     0.066 C 
HETATM    5  C5  8UH 3 316     -46.847 146.503  13.126  1.00 77.66    -0.074 C 
HETATM    6  C6  8UH 3 316     -47.240 145.693  12.141  1.00 78.84    -0.048 C 
HETATM    7  C7  8UH 3 316     -46.265 145.266  11.111  1.00 78.35     0.009 C 
HETATM    8  C8  8UH 3 316     -45.409 144.282  11.382  1.00 77.95     0.007 C 
HETATM    9  C9  8UH 3 316     -44.423 143.802  10.398  1.00 78.35    -0.062 C 
HETATM   10  C10 8UH 3 316     -43.681 142.735  10.725  1.00 77.38     0.007 C 
HETATM   11  C11 8UH 3 316     -42.684 142.142   9.842  1.00 77.06     0.001 C 
HETATM   12  C12 8UH 3 316     -42.241 140.941  10.201  1.00 77.59     0.007 C 
HETATM   13  C13 8UH 3 316     -41.254 140.158   9.434  1.00 77.36    -0.062 C 
HETATM   14  C14 8UH 3 316     -40.961 138.928   9.879  1.00 75.86     0.007 C 
HETATM   15  C15 8UH 3 316     -40.024 138.041   9.203  1.00 74.54     0.001 C 
HETATM   16  C16 8UH 3 316     -49.378 145.919  10.930  1.00 78.56     0.020 C 
HETATM   17  C17 8UH 3 316     -48.593 143.687  11.687  1.00 78.60     0.020 C 
HETATM   18  C18 8UH 3 316     -45.474 147.110  13.140  1.00 77.80     0.044 C 
HETATM   19  C19 8UH 3 316     -44.265 144.483   9.071  1.00 79.41     0.048 C 
HETATM   20  C20 8UH 3 316     -40.611 140.715   8.197  1.00 77.68     0.048 C 
HETATM   21  O3  8UH 3 316     -49.655 146.304  15.536  1.00 76.23    -0.395 OA
ATOM     22  H3  8UH 3 316     -49.186 146.641  16.290  1.00  0.00     0.210 HD
HETATM   23  C21 8UH 3 316     -34.171 126.945   6.705  1.00 16.22    -0.018 C 
HETATM   24  C22 8UH 3 316     -34.162 126.563   5.241  1.00 16.22     0.045 C 
HETATM   25  C23 8UH 3 316     -33.580 127.602   4.327  1.00 16.22     0.123 C 
HETATM   26  C24 8UH 3 316     -32.322 128.103   4.984  1.00 16.22     0.066 C 
HETATM   27  C25 8UH 3 316     -32.782 128.876   6.176  1.00 16.22    -0.074 C 
HETATM   28  C26 8UH 3 316     -33.616 128.298   7.037  1.00 16.22    -0.048 C 
HETATM   29  C27 8UH 3 316     -34.225 128.994   8.179  1.00 16.22     0.009 C 
HETATM   30  C28 8UH 3 316     -34.681 130.215   7.930  1.00 16.22     0.007 C 
HETATM   31  C29 8UH 3 316     -35.538 130.903   8.926  1.00 87.05    -0.062 C 
HETATM   32  C30 8UH 3 316     -36.101 132.063   8.566  1.00 83.33     0.007 C 
HETATM   33  C31 8UH 3 316     -36.970 132.826   9.453  1.00 80.71     0.001 C 
HETATM   34  C32 8UH 3 316     -37.439 133.975   8.979  1.00 78.86     0.007 C 
HETATM   35  C33 8UH 3 316     -38.336 134.865   9.737  1.00 77.40    -0.062 C 
HETATM   36  C34 8UH 3 316     -38.810 135.957   9.119  1.00 76.14     0.007 C 
HETATM   37  C35 8UH 3 316     -39.720 136.883   9.781  1.00 74.61     0.001 C 
HETATM   38  C36 8UH 3 316     -33.269 125.981   7.455  1.00 16.22     0.020 C 
HETATM   39  C37 8UH 3 316     -35.601 126.837   7.155  1.00 16.22     0.020 C 
HETATM   40  C38 8UH 3 316     -31.944 130.061   6.522  1.00 16.22     0.044 C 
HETATM   41  C39 8UH 3 316     -35.773 130.322  10.290  1.00 86.53     0.048 C 
HETATM   42  C40 8UH 3 316     -38.705 134.559  11.157  1.00 77.09     0.048 C 
HETATM   43  O23 8UH 3 316     -33.311 126.946   3.093  1.00 16.22    -0.395 OA
ATOM     44  H23 8UH 3 316     -34.105 126.630   2.678  1.00  0.00     0.210 HD
ENDROOT
TORSDOF 12
