REMARK VINA RESULT:    -8.354      1.615     16.857
REMARK INTER + INTRA:         -11.639
REMARK INTER:                 -11.346
REMARK INTRA:                  -0.293
REMARK UNBOUND:                -3.285
REMARK  0 active torsions:
REMARK  status: ('A' for Active; 'I' for Inactive)
REMARK       I    between atoms: C3_3  and  O3_21 
REMARK       I    between atoms: C6_6  and  C7_7 
REMARK       I    between atoms: C8_8  and  C9_9 
REMARK       I    between atoms: C10_10  and  C11_11 
REMARK       I    between atoms: C12_12  and  C13_13 
REMARK       I    between atoms: C14_14  and  C15_15 
REMARK       I    between atoms: C23_25  and  O23_43 
REMARK       I    between atoms: C26_28  and  C27_29 
REMARK       I    between atoms: C28_30  and  C29_31 
REMARK       I    between atoms: C30_32  and  C31_33 
REMARK       I    between atoms: C32_34  and  C33_35 
REMARK       I    between atoms: C34_36  and  C35_37 
ROOT
HETATM    1  C1  8UH N1621     -48.720 146.056  12.403  1.00 51.88    -0.018 C 
HETATM    2  C2  8UH N1621     -49.601 146.176  13.639  1.00 51.88     0.045 C 
HETATM    3  C3  8UH N1621     -48.977 146.812  14.862  1.00 51.88     0.123 C 
HETATM    4  C4  8UH N1621     -48.128 147.990  14.448  1.00 51.88     0.066 C 
HETATM    5  C5  8UH N1621     -47.053 147.517  13.517  1.00 51.88    -0.074 C 
HETATM    6  C6  8UH N1621     -47.338 146.673  12.524  1.00 51.88    -0.048 C 
HETATM    7  C7  8UH N1621     -46.339 146.295  11.490  1.00 51.88     0.009 C 
HETATM    8  C8  8UH N1621     -45.440 145.328  11.686  1.00 51.88     0.007 C 
HETATM    9  C9  8UH N1621     -44.467 144.890  10.676  1.00 51.88    -0.062 C 
HETATM   10  C10 8UH N1621     -43.946 143.682  10.890  1.00 51.88     0.007 C 
HETATM   11  C11 8UH N1621     -42.997 142.982  10.040  1.00 51.88     0.001 C 
HETATM   12  C12 8UH N1621     -42.663 141.774  10.476  1.00 51.88     0.007 C 
HETATM   13  C13 8UH N1621     -41.763 140.882   9.735  1.00 51.88    -0.062 C 
HETATM   14  C14 8UH N1621     -41.463 139.691  10.266  1.00 51.88     0.007 C 
HETATM   15  C15 8UH N1621     -40.606 138.742   9.566  1.00 51.88     0.001 C 
HETATM   16  C16 8UH N1621     -49.489 146.645  11.231  1.00 51.88     0.020 C 
HETATM   17  C17 8UH N1621     -48.531 144.582  12.130  1.00 51.88     0.020 C 
HETATM   18  C18 8UH N1621     -45.760 148.268  13.599  1.00 51.88     0.044 C 
HETATM   19  C19 8UH N1621     -44.098 145.731   9.496  1.00 51.88     0.048 C 
HETATM   20  C20 8UH N1621     -41.239 141.297   8.395  1.00 51.88     0.048 C 
HETATM   21  O3  8UH N1621     -50.022 147.295  15.712  1.00 51.88    -0.395 OA
ATOM     22  H3  8UH N1621     -49.630 147.694  16.480  1.00  0.00     0.210 HD
HETATM   23  C21 8UH N1621     -34.073 127.817   6.962  1.00 23.07    -0.018 C 
HETATM   24  C22 8UH N1621     -33.333 127.174   5.773  1.00 21.39     0.045 C 
HETATM   25  C23 8UH N1621     -32.359 128.044   4.986  1.00 23.10     0.123 C 
HETATM   26  C24 8UH N1621     -31.701 129.160   5.802  1.00 23.25     0.066 C 
HETATM   27  C25 8UH N1621     -32.534 129.857   6.831  1.00 22.57    -0.074 C 
HETATM   28  C26 8UH N1621     -33.640 129.256   7.387  1.00 22.63    -0.048 C 
HETATM   29  C27 8UH N1621     -34.457 129.939   8.401  1.00 23.01     0.009 C 
HETATM   30  C28 8UH N1621     -35.370 130.900   8.161  1.00 21.85     0.007 C 
HETATM   31  C29 8UH N1621     -36.095 131.665   9.146  1.00 51.88    -0.062 C 
HETATM   32  C30 8UH N1621     -37.039 132.512   8.720  1.00 51.88     0.007 C 
HETATM   33  C31 8UH N1621     -37.856 133.350   9.589  1.00 51.88     0.001 C 
HETATM   34  C32 8UH N1621     -38.213 134.544   9.121  1.00 51.88     0.007 C 
HETATM   35  C33 8UH N1621     -39.040 135.470   9.908  1.00 51.88    -0.062 C 
HETATM   36  C34 8UH N1621     -39.391 136.665   9.409  1.00 51.88     0.007 C 
HETATM   37  C35 8UH N1621     -40.226 137.608  10.150  1.00 51.88     0.001 C 
HETATM   38  C36 8UH N1621     -33.801 126.829   8.111  1.00 21.40     0.020 C 
HETATM   39  C37 8UH N1621     -35.584 127.780   6.642  1.00 21.74     0.020 C 
HETATM   40  C38 8UH N1621     -31.940 131.195   7.093  1.00 21.99     0.044 C 
HETATM   41  C39 8UH N1621     -35.775 131.491  10.598  1.00 51.88     0.048 C 
HETATM   42  C40 8UH N1621     -39.478 135.047  11.265  1.00 51.88     0.048 C 
HETATM   43  O23 8UH N1621     -31.368 127.240   4.373  1.00 24.94    -0.395 OA
ATOM     44  H23 8UH N1621     -30.762 127.782   3.883  1.00  0.00     0.210 HD
ENDROOT
TORSDOF 12
