REMARK VINA RESULT:   -10.474      2.024     16.742
REMARK INTER + INTRA:         -12.337
REMARK INTER:                 -12.185
REMARK INTRA:                  -0.153
REMARK UNBOUND:                -1.863
REMARK  0 active torsions:
REMARK  status: ('A' for Active; 'I' for Inactive)
REMARK       I    between atoms: C3_3  and  O3_21 
REMARK       I    between atoms: C6_6  and  C7_7 
REMARK       I    between atoms: C8_8  and  C9_9 
REMARK       I    between atoms: C10_10  and  C11_11 
REMARK       I    between atoms: C12_12  and  C13_13 
REMARK       I    between atoms: C14_14  and  C15_15 
REMARK       I    between atoms: C23_25  and  O23_43 
REMARK       I    between atoms: C26_28  and  C27_29 
REMARK       I    between atoms: C28_30  and  C29_31 
REMARK       I    between atoms: C30_32  and  C31_33 
REMARK       I    between atoms: C32_34  and  C33_35 
REMARK       I    between atoms: C34_36  and  C35_37 
ROOT
HETATM    1  C1  8UH W1621     -34.171 128.110   7.054  1.00 22.20    -0.018 C 
HETATM    2  C2  8UH W1621     -33.579 127.926   5.662  1.00 22.20     0.045 C 
HETATM    3  C3  8UH W1621     -32.341 128.729   5.332  1.00 22.20     0.123 C 
HETATM    4  C4  8UH W1621     -31.608 129.089   6.601  1.00 22.20     0.066 C 
HETATM    5  C5  8UH W1621     -32.571 129.887   7.417  1.00 22.20    -0.074 C 
HETATM    6  C6  8UH W1621     -33.710 129.336   7.788  1.00 22.20    -0.048 C 
HETATM    7  C7  8UH W1621     -34.646 129.966   8.729  1.00 22.20     0.009 C 
HETATM    8  C8  8UH W1621     -34.766 131.290   8.727  1.00 22.20     0.007 C 
HETATM    9  C9  8UH W1621     -35.869 131.897   9.490  1.00 22.20    -0.062 C 
HETATM   10  C10 8UH W1621     -36.295 133.108   9.112  1.00 22.20     0.007 C 
HETATM   11  C11 8UH W1621     -37.472 133.761   9.673  1.00 22.20     0.001 C 
HETATM   12  C12 8UH W1621     -37.951 134.854   9.091  1.00 22.20     0.007 C 
HETATM   13  C13 8UH W1621     -39.182 135.505   9.573  1.00 22.20    -0.062 C 
HETATM   14  C14 8UH W1621     -39.688 136.508   8.841  1.00 22.20     0.007 C 
HETATM   15  C15 8UH W1621     -40.912 137.227   9.179  1.00 22.20     0.001 C 
HETATM   16  C16 8UH W1621     -33.756 126.948   7.937  1.00 22.20     0.020 C 
HETATM   17  C17 8UH W1621     -35.675 128.094   6.920  1.00 22.20     0.020 C 
HETATM   18  C18 8UH W1621     -31.769 130.724   8.350  1.00 22.20     0.044 C 
HETATM   19  C19 8UH W1621     -36.535 131.114  10.579  1.00 22.20     0.048 C 
HETATM   20  C20 8UH W1621     -39.821 135.003  10.829  1.00 22.20     0.048 C 
HETATM   21  O3  8UH W1621     -31.521 127.901   4.517  1.00 22.20    -0.395 OA
ATOM     22  H3  8UH W1621     -30.743 128.405   4.310  1.00  0.00     0.210 HD
HETATM   23  C21 8UH W1621     -50.612 145.697   8.972  1.00 26.19    -0.018 C 
HETATM   24  C22 8UH W1621     -51.794 146.193   9.796  1.00 26.65     0.045 C 
HETATM   25  C23 8UH W1621     -51.556 146.436  11.274  1.00 28.07     0.123 C 
HETATM   26  C24 8UH W1621     -50.203 147.049  11.525  1.00 30.07     0.066 C 
HETATM   27  C25 8UH W1621     -49.152 146.163  10.941  1.00 28.83    -0.074 C 
HETATM   28  C26 8UH W1621     -49.267 145.718   9.686  1.00 27.49    -0.048 C 
HETATM   29  C27 8UH W1621     -48.094 145.227   8.920  1.00 29.45     0.009 C 
HETATM   30  C28 8UH W1621     -47.519 144.048   9.165  1.00 27.83     0.007 C 
HETATM   31  C29 8UH W1621     -46.387 143.547   8.383  1.00 22.20    -0.062 C 
HETATM   32  C30 8UH W1621     -45.913 142.337   8.715  1.00 22.20     0.007 C 
HETATM   33  C31 8UH W1621     -44.769 141.697   8.079  1.00 22.20     0.001 C 
HETATM   34  C32 8UH W1621     -44.285 140.576   8.597  1.00 22.20     0.007 C 
HETATM   35  C33 8UH W1621     -43.080 139.934   8.050  1.00 22.20    -0.062 C 
HETATM   36  C34 8UH W1621     -42.563 138.907   8.743  1.00 22.20     0.007 C 
HETATM   37  C35 8UH W1621     -41.345 138.189   8.382  1.00 22.20     0.001 C 
HETATM   38  C36 8UH W1621     -50.583 146.594   7.748  1.00 26.46     0.020 C 
HETATM   39  C37 8UH W1621     -50.874 144.261   8.546  1.00 26.61     0.020 C 
HETATM   40  C38 8UH W1621     -47.857 146.614  11.533  1.00 29.43     0.044 C 
HETATM   41  C39 8UH W1621     -45.856 144.383   7.261  1.00 22.20     0.048 C 
HETATM   42  C40 8UH W1621     -42.466 140.492   6.805  1.00 22.20     0.048 C 
HETATM   43  O23 8UH W1621     -52.559 147.323  11.760  1.00 27.44    -0.395 OA
ATOM     44  H23 8UH W1621     -52.411 147.475  12.685  1.00  0.00     0.210 HD
ENDROOT
TORSDOF 12
