REMARK VINA RESULT:    -9.469      0.000      0.000
REMARK INTER + INTRA:          -9.715
REMARK INTER:                  -9.469
REMARK INTRA:                  -0.246
REMARK UNBOUND:                -0.246
REMARK  0 active torsions:
REMARK  status: ('A' for Active; 'I' for Inactive)
REMARK       I    between atoms: C3_3  and  O3_21 
REMARK       I    between atoms: C6_6  and  C7_7 
REMARK       I    between atoms: C8_8  and  C9_9 
REMARK       I    between atoms: C10_10  and  C11_11 
REMARK       I    between atoms: C12_12  and  C13_13 
REMARK       I    between atoms: C14_14  and  C15_15 
REMARK       I    between atoms: C23_25  and  O23_43 
REMARK       I    between atoms: C26_28  and  C27_29 
REMARK       I    between atoms: C28_30  and  C29_31 
REMARK       I    between atoms: C30_32  and  C31_33 
REMARK       I    between atoms: C32_34  and  C33_35 
REMARK       I    between atoms: C34_36  and  C35_37 
ROOT
HETATM    1  C1  8UH 5 620     -50.337 144.082  10.775  1.00 42.32    -0.018 C 
HETATM    2  C2  8UH 5 620     -50.033 143.405  12.108  1.00 42.32     0.045 C 
HETATM    3  C3  8UH 5 620     -49.062 144.166  13.004  1.00 42.32     0.123 C 
HETATM    4  C4  8UH 5 620     -49.255 145.662  12.841  1.00 42.32     0.066 C 
HETATM    5  C5  8UH 5 620     -48.975 146.023  11.407  1.00 42.32    -0.074 C 
HETATM    6  C6  8UH 5 620     -49.340 145.169  10.452  1.00 42.32    -0.048 C 
HETATM    7  C7  8UH 5 620     -48.521 144.989   9.249  1.00 42.32     0.009 C 
HETATM    8  C8  8UH 5 620     -47.496 144.203   9.612  1.00 42.32     0.007 C 
HETATM    9  C9  8UH 5 620     -46.448 143.730   8.672  1.00 42.32    -0.062 C 
HETATM   10  C10 8UH 5 620     -45.539 142.855   9.150  1.00 42.32     0.007 C 
HETATM   11  C11 8UH 5 620     -44.484 142.242   8.341  1.00 42.32     0.001 C 
HETATM   12  C12 8UH 5 620     -43.728 141.291   8.873  1.00 42.32     0.007 C 
HETATM   13  C13 8UH 5 620     -42.712 140.579   8.078  1.00 42.32    -0.062 C 
HETATM   14  C14 8UH 5 620     -42.154 139.516   8.673  1.00 42.32     0.007 C 
HETATM   15  C15 8UH 5 620     -41.171 138.613   8.087  1.00 42.32     0.001 C 
HETATM   16  C16 8UH 5 620     -51.744 144.660  10.838  1.00 42.32     0.020 C 
HETATM   17  C17 8UH 5 620     -50.260 143.048   9.660  1.00 42.32     0.020 C 
HETATM   18  C18 8UH 5 620     -47.774 146.919  11.313  1.00 42.32     0.044 C 
HETATM   19  C19 8UH 5 620     -46.429 144.207   7.245  1.00 42.32     0.048 C 
HETATM   20  C20 8UH 5 620     -42.395 141.011   6.677  1.00 42.32     0.048 C 
HETATM   21  O3  8UH 5 620     -49.307 143.820  14.371  1.00 42.32    -0.395 OA
ATOM     22  H3  8UH 5 620     -49.186 142.884  14.473  1.00  0.00     0.210 HD
HETATM   23  C21 8UH 5 620     -34.149 128.273   7.072  1.00 16.14    -0.018 C 
HETATM   24  C22 8UH 5 620     -33.219 127.708   6.000  1.00 16.14     0.045 C 
HETATM   25  C23 8UH 5 620     -31.976 128.520   5.680  1.00 16.14     0.123 C 
HETATM   26  C24 8UH 5 620     -31.348 129.046   6.948  1.00 16.14     0.066 C 
HETATM   27  C25 8UH 5 620     -32.356 129.914   7.639  1.00 16.14    -0.074 C 
HETATM   28  C26 8UH 5 620     -33.615 129.492   7.803  1.00 16.14    -0.048 C 
HETATM   29  C27 8UH 5 620     -34.504 130.210   8.746  1.00 16.14     0.009 C 
HETATM   30  C28 8UH 5 620     -35.208 131.296   8.415  1.00 16.14     0.007 C 
HETATM   31  C29 8UH 5 620     -36.069 131.977   9.396  1.00 42.32    -0.062 C 
HETATM   32  C30 8UH 5 620     -36.809 132.944   8.843  1.00 42.32     0.007 C 
HETATM   33  C31 8UH 5 620     -37.784 133.778   9.524  1.00 42.32     0.001 C 
HETATM   34  C32 8UH 5 620     -38.391 134.683   8.767  1.00 42.32     0.007 C 
HETATM   35  C33 8UH 5 620     -39.390 135.623   9.285  1.00 42.32    -0.062 C 
HETATM   36  C34 8UH 5 620     -39.822 136.599   8.459  1.00 42.32     0.007 C 
HETATM   37  C35 8UH 5 620     -40.793 137.608   8.868  1.00 42.32     0.001 C 
HETATM   38  C36 8UH 5 620     -34.461 127.136   8.039  1.00 16.14     0.020 C 
HETATM   39  C37 8UH 5 620     -35.444 128.703   6.401  1.00 16.14     0.020 C 
HETATM   40  C38 8UH 5 620     -31.705 130.907   8.557  1.00 16.14     0.044 C 
HETATM   41  C39 8UH 5 620     -36.149 131.540  10.829  1.00 42.32     0.048 C 
HETATM   42  C40 8UH 5 620     -39.851 135.432  10.698  1.00 42.32     0.048 C 
HETATM   43  O23 8UH 5 620     -31.027 127.688   5.012  1.00 16.14    -0.395 OA
ATOM     44  H23 8UH 5 620     -30.249 128.197   4.812  1.00  0.00     0.210 HD
ENDROOT
TORSDOF 12
