REMARK  0 active torsions:
REMARK  status: ('A' for Active; 'I' for Inactive)
REMARK       I    between atoms: C1_1  and  C2_4 
REMARK       I    between atoms: C2_4  and  C3_5 
REMARK       I    between atoms: C3_5  and  C4_6 
REMARK       I    between atoms: C4_6  and  C5_7 
REMARK       I    between atoms: C5_7  and  C6_8 
REMARK       I    between atoms: C6_8  and  C7_9 
REMARK       I    between atoms: C7_9  and  C8_10 
REMARK       I    between atoms: C8_10  and  C9_11 
REMARK       I    between atoms: C9_11  and  CA_12 
REMARK       I    between atoms: CA_12  and  CB_13 
REMARK       I    between atoms: CB_13  and  CC_14 
REMARK       I    between atoms: CC_14  and  CD_15 
REMARK       I    between atoms: CD_15  and  CE_16 
REMARK       I    between atoms: CE_16  and  CF_17 
ROOT
HETATM    1  C1  PLM A 602     -32.457 129.394   5.965  1.00 67.00     0.172 C 
HETATM    2  O1  PLM A 602     -33.208 129.837   6.857  1.00 67.82    -0.648 OA
HETATM    3  O2  PLM A 602     -31.814 130.115   5.155  1.00 60.21    -0.648 OA
HETATM    4  C2  PLM A 602     -32.346 127.892   5.821  1.00 66.32     0.113 C 
HETATM    5  C3  PLM A 602     -32.747 127.416   4.472  1.00 69.45     0.010 C 
HETATM    6  C4  PLM A 602     -34.254 127.355   4.287  1.00 68.61     0.001 C 
HETATM    7  C5  PLM A 602     -34.779 125.963   4.058  1.00 67.98     0.000 C 
HETATM    8  C6  PLM A 602     -34.363 125.355   2.742  1.00 66.51     0.000 C 
HETATM    9  C7  PLM A 602     -35.239 124.217   2.278  1.00 65.92     0.000 C 
HETATM   10  C8  PLM A 602     -35.581 123.208   3.345  1.00 63.91     0.000 C 
HETATM   11  C9  PLM A 602     -34.385 122.606   4.030  1.00 63.09     0.000 C 
HETATM   12  CA  PLM A 602     -34.716 121.682   5.167  1.00 60.21     0.000 C 
HETATM   13  CB  PLM A 602     -33.615 121.580   6.179  1.00 61.66     0.000 C 
HETATM   14  CC  PLM A 602     -33.865 120.582   7.278  1.00 61.80     0.000 C 
HETATM   15  CD  PLM A 602     -32.758 120.474   8.301  1.00 61.53     0.000 C 
HETATM   16  CE  PLM A 602     -31.360 120.494   7.730  1.00 61.91    -0.000 C 
HETATM   17  CF  PLM A 602     -30.742 121.867   7.616  1.00 62.58    -0.005 C 
HETATM   18  CG  PLM A 602     -29.255 121.856   7.360  1.00 63.16     0.005 C 
ENDROOT
TORSDOF 14
