REMARK  0 active torsions:
REMARK  status: ('A' for Active; 'I' for Inactive)
REMARK       I    between atoms: C1_1  and  C2_4 
REMARK       I    between atoms: C2_4  and  C3_5 
REMARK       I    between atoms: C3_5  and  C4_6 
REMARK       I    between atoms: C4_6  and  C5_7 
REMARK       I    between atoms: C5_7  and  C6_8 
REMARK       I    between atoms: C6_8  and  C7_9 
REMARK       I    between atoms: C7_9  and  C8_10 
REMARK       I    between atoms: C8_10  and  C9_11 
REMARK       I    between atoms: C9_11  and  CA_12 
REMARK       I    between atoms: CA_12  and  CB_13 
REMARK       I    between atoms: CB_13  and  CC_14 
REMARK       I    between atoms: CC_14  and  CD_15 
REMARK       I    between atoms: CD_15  and  CE_16 
REMARK       I    between atoms: CE_16  and  CF_17 
ROOT
HETATM    1  C1  PLM B 602     -45.357 109.662 -38.010  1.00 63.36     0.172 C 
HETATM    2  O1  PLM B 602     -46.053 110.017 -38.985  1.00 65.45    -0.648 OA
HETATM    3  O2  PLM B 602     -45.693 108.767 -37.189  1.00 57.35    -0.648 OA
HETATM    4  C2  PLM B 602     -44.040 110.379 -37.789  1.00 62.51     0.113 C 
HETATM    5  C3  PLM B 602     -43.803 110.756 -36.369  1.00 63.10     0.010 C 
HETATM    6  C4  PLM B 602     -44.367 112.121 -36.003  1.00 61.23     0.001 C 
HETATM    7  C5  PLM B 602     -43.322 113.186 -35.810  1.00 59.93     0.000 C 
HETATM    8  C6  PLM B 602     -42.361 112.921 -34.678  1.00 58.80     0.000 C 
HETATM    9  C7  PLM B 602     -41.536 114.117 -34.268  1.00 58.71     0.000 C 
HETATM   10  C8  PLM B 602     -40.816 114.810 -35.399  1.00 57.29     0.000 C 
HETATM   11  C9  PLM B 602     -40.052 113.881 -36.303  1.00 58.28     0.000 C 
HETATM   12  CA  PLM B 602     -39.229 114.565 -37.354  1.00 58.29     0.000 C 
HETATM   13  CB  PLM B 602     -38.594 113.600 -38.311  1.00 59.03     0.000 C 
HETATM   14  CC  PLM B 602     -37.882 114.235 -39.475  1.00 60.78     0.000 C 
HETATM   15  CD  PLM B 602     -37.333 113.258 -40.492  1.00 60.58     0.000 C 
HETATM   16  CE  PLM B 602     -36.801 111.962 -39.917  1.00 60.32    -0.000 C 
HETATM   17  CF  PLM B 602     -37.830 110.881 -39.679  1.00 59.80    -0.005 C 
HETATM   18  CG  PLM B 602     -37.254 109.490 -39.623  1.00 60.49     0.005 C 
ENDROOT
TORSDOF 14
