REMARK  0 active torsions:
REMARK  status: ('A' for Active; 'I' for Inactive)
REMARK       I    between atoms: C9_8  and  C8_9 
REMARK       I    between atoms: C8_9  and  O1_10 
REMARK       I    between atoms: O1_10  and  C7_11 
REMARK       I    between atoms: C3_16  and  C2_17 
REMARK       I    between atoms: C2_17  and  C1_20 
REMARK       I    between atoms: C2_17  and  O_18 
REMARK       I    between atoms: C1_20  and  C_21 
REMARK       I    between atoms: C_21  and  N_22 
ROOT
HETATM    1  F1  XQ7 A 603     -42.227 141.103   6.373  1.00 90.81    -0.206 F 
HETATM    2  C12 XQ7 A 603     -41.982 139.975   7.124  1.00 93.77     0.243 C 
HETATM    3  F   XQ7 A 603     -42.658 140.199   8.303  1.00 97.78    -0.206 F 
HETATM    4  C11 XQ7 A 603     -42.572 138.781   6.434  1.00 92.54     0.079 C 
HETATM    5  C10 XQ7 A 603     -42.164 137.465   7.103  1.00 88.77     0.013 C 
HETATM    6  C13 XQ7 A 603     -40.514 139.878   7.405  1.00 90.87     0.079 C 
HETATM    7  C14 XQ7 A 603     -40.177 138.556   8.097  1.00 89.05     0.013 C 
HETATM    8  C9  XQ7 A 603     -40.648 137.388   7.239  1.00 85.44     0.010 C 
HETATM    9  C8  XQ7 A 603     -40.184 136.056   7.791  1.00 80.50     0.180 C 
HETATM   10  O1  XQ7 A 603     -40.192 136.138   9.226  1.00 71.35    -0.351 OA
HETATM   11  C7  XQ7 A 603     -39.368 135.325   9.973  1.00 66.72     0.069 A 
HETATM   12  C6  XQ7 A 603     -39.400 135.431  11.350  1.00 62.90     0.037 A 
HETATM   13  C5  XQ7 A 603     -38.577 134.620  12.110  1.00 63.00     0.003 A 
HETATM   14  C4  XQ7 A 603     -37.730 133.712  11.502  1.00 62.69     0.010 A 
HETATM   15  C15 XQ7 A 603     -38.516 134.412   9.355  1.00 64.77     0.046 A 
HETATM   16  C3  XQ7 A 603     -37.690 133.591  10.123  1.00 62.38    -0.027 A 
HETATM   17  C2  XQ7 A 603     -36.750 132.585   9.483  1.00 64.70     0.152 C 
HETATM   18  O   XQ7 A 603     -35.562 133.204   9.001  1.00 70.80    -0.391 OA
ATOM     19  HO  XQ7 A 603     -35.158 133.710   9.696  1.00  0.00     0.210 HD
HETATM   20  C1  XQ7 A 603     -37.399 131.771   8.365  1.00 63.76     0.064 C 
HETATM   21  C   XQ7 A 603     -36.422 130.947   7.534  1.00 64.49     0.232 C 
HETATM   22  N   XQ7 A 603     -35.051 130.900   8.033  1.00 63.34    -0.079 N 
ATOM     23  HN1 XQ7 A 603     -34.397 130.349   7.477  1.00  0.00     0.274 HD
ATOM     24  HN2 XQ7 A 603     -35.044 130.577   9.001  1.00  0.00     0.274 HD
ATOM     25  HN3 XQ7 A 603     -34.692 131.847   8.155  1.00  0.00     0.274 HD
ENDROOT
TORSDOF 8
