REMARK  0 active torsions:
REMARK  status: ('A' for Active; 'I' for Inactive)
REMARK       I    between atoms: C9_8  and  C8_9 
REMARK       I    between atoms: C8_9  and  O1_10 
REMARK       I    between atoms: O1_10  and  C7_11 
REMARK       I    between atoms: C3_16  and  C2_17 
REMARK       I    between atoms: C2_17  and  O_18 
REMARK       I    between atoms: C2_17  and  C1_20 
REMARK       I    between atoms: C1_20  and  C_21 
REMARK       I    between atoms: C_21  and  N_22 
ROOT
HETATM    1  F1  XQ7 B 603     -60.101 114.531 -38.592  1.00 89.50    -0.206 F 
HETATM    2  C12 XQ7 B 603     -58.891 114.331 -39.216  1.00 90.63     0.243 C 
HETATM    3  F   XQ7 B 603     -59.225 113.941 -40.494  1.00 90.25    -0.206 F 
HETATM    4  C11 XQ7 B 603     -58.135 115.623 -39.269  1.00 89.14     0.079 C 
HETATM    5  C10 XQ7 B 603     -56.731 115.427 -39.852  1.00 85.92     0.013 C 
HETATM    6  C13 XQ7 B 603     -58.155 113.221 -38.534  1.00 88.46     0.079 C 
HETATM    7  C14 XQ7 B 603     -56.762 113.037 -39.138  1.00 86.13     0.013 C 
HETATM    8  C9  XQ7 B 603     -55.957 114.333 -39.114  1.00 81.25     0.010 C 
HETATM    9  C8  XQ7 B 603     -54.587 114.100 -39.718  1.00 76.24     0.180 C 
HETATM   10  O1  XQ7 B 603     -54.740 114.071 -41.146  1.00 68.93    -0.351 OA
HETATM   11  C7  XQ7 B 603     -53.716 113.637 -41.958  1.00 64.09     0.069 A 
HETATM   12  C6  XQ7 B 603     -53.888 113.693 -43.327  1.00 62.20     0.037 A 
HETATM   13  C5  XQ7 B 603     -52.852 113.307 -44.156  1.00 61.57     0.003 A 
HETATM   14  C4  XQ7 B 603     -51.660 112.853 -43.623  1.00 62.22     0.010 A 
HETATM   15  C15 XQ7 B 603     -52.517 113.183 -41.416  1.00 62.13     0.046 A 
HETATM   16  C3  XQ7 B 603     -51.477 112.782 -42.253  1.00 59.17    -0.027 A 
HETATM   17  C2  XQ7 B 603     -50.171 112.239 -41.702  1.00 59.30     0.152 C 
HETATM   18  O   XQ7 B 603     -50.280 110.869 -41.331  1.00 63.67    -0.391 OA
ATOM     19  HO  XQ7 B 603     -49.463 110.529 -40.986  1.00  0.00     0.210 HD
HETATM   20  C1  XQ7 B 603     -49.628 113.040 -40.528  1.00 56.81     0.064 C 
HETATM   21  C   XQ7 B 603     -48.223 112.605 -40.141  1.00 56.65     0.232 C 
HETATM   22  N   XQ7 B 603     -48.160 111.360 -39.384  1.00 54.87    -0.079 N 
ATOM     23  HN1 XQ7 B 603     -47.218 111.068 -39.124  1.00  0.00     0.274 HD
ATOM     24  HN2 XQ7 B 603     -48.636 110.613 -39.890  1.00  0.00     0.274 HD
ATOM     25  HN3 XQ7 B 603     -48.754 111.418 -38.557  1.00  0.00     0.274 HD
ENDROOT
TORSDOF 8
