REMARK  0 active torsions:
REMARK  status: ('A' for Active; 'I' for Inactive)
REMARK       I    between atoms: C6_6  and  C7_7 
REMARK       I    between atoms: C8_8  and  C9_9 
REMARK       I    between atoms: C10_10  and  C11_11 
REMARK       I    between atoms: C12_16  and  C13_17 
REMARK       I    between atoms: C14_18  and  C15_19 
REMARK       I    between atoms: C16_20  and  C17_21 
REMARK       I    between atoms: C18_22  and  C19_23 
REMARK       I    between atoms: C20_24  and  C21_25 
REMARK       I    between atoms: C22_26  and  C23_27 
REMARK       I    between atoms: C24_28  and  C25_29 
ROOT
HETATM    1  C1  BCR D 404       8.402 -66.416  46.229  1.00 32.35    -0.020 C 
HETATM    2  C2  BCR D 404       9.506 -65.389  46.492  1.00 35.21     0.014 C 
HETATM    3  C3  BCR D 404       9.401 -64.397  47.636  1.00 30.49     0.005 C 
HETATM    4  C4  BCR D 404       7.978 -63.783  47.782  1.00 29.98     0.034 C 
HETATM    5  C5  BCR D 404       6.867 -64.644  47.245  1.00 28.73    -0.077 C 
HETATM    6  C6  BCR D 404       7.037 -65.831  46.550  1.00 29.98    -0.048 C 
HETATM    7  C7  BCR D 404       5.836 -66.561  46.061  1.00 28.21     0.009 C 
HETATM    8  C8  BCR D 404       4.846 -67.020  46.874  1.00 26.47     0.007 C 
HETATM    9  C9  BCR D 404       3.671 -67.636  46.249  1.00 27.48    -0.062 C 
HETATM   10  C10 BCR D 404       2.629 -67.913  47.034  1.00 25.45     0.007 C 
HETATM   11  C11 BCR D 404       1.336 -68.417  46.570  1.00 24.55     0.001 C 
HETATM   12  C33 BCR D 404       5.484 -64.048  47.527  1.00 26.94     0.044 C 
HETATM   13  C31 BCR D 404       8.526 -67.780  46.954  1.00 34.86     0.020 C 
HETATM   14  C32 BCR D 404       8.633 -66.695  44.758  1.00 34.02     0.020 C 
HETATM   15  C34 BCR D 404       3.628 -67.925  44.763  1.00 28.88     0.048 C 
HETATM   16  C12 BCR D 404       0.428 -68.540  47.550  1.00 25.39     0.007 C 
HETATM   17  C13 BCR D 404      -1.002 -68.927  47.279  1.00 26.11    -0.062 C 
HETATM   18  C14 BCR D 404      -1.886 -68.886  48.316  1.00 25.50     0.007 C 
HETATM   19  C15 BCR D 404      -3.331 -69.158  48.174  1.00 25.53     0.001 C 
HETATM   20  C16 BCR D 404      -4.170 -68.987  49.202  1.00 28.34     0.001 C 
HETATM   21  C17 BCR D 404      -5.622 -69.131  49.034  1.00 25.13     0.007 C 
HETATM   22  C18 BCR D 404      -6.590 -68.802  49.950  1.00 24.53    -0.062 C 
HETATM   23  C19 BCR D 404      -8.006 -68.940  49.508  1.00 25.17     0.007 C 
HETATM   24  C20 BCR D 404      -9.037 -68.722  50.342  1.00 27.12     0.001 C 
HETATM   25  C21 BCR D 404     -10.378 -68.787  49.729  1.00 29.28     0.007 C 
HETATM   26  C22 BCR D 404     -11.555 -68.573  50.384  1.00 33.93    -0.062 C 
HETATM   27  C23 BCR D 404     -12.819 -68.591  49.592  1.00 38.17     0.007 C 
HETATM   28  C24 BCR D 404     -13.906 -67.906  50.022  1.00 46.63     0.009 C 
HETATM   29  C25 BCR D 404     -15.192 -67.762  49.234  1.00 52.79    -0.048 C 
HETATM   30  C26 BCR D 404     -15.161 -67.028  48.105  1.00 55.25    -0.077 C 
HETATM   31  C27 BCR D 404     -16.393 -66.834  47.237  1.00 57.58     0.034 C 
HETATM   32  C28 BCR D 404     -17.218 -68.108  47.308  1.00 53.18     0.005 C 
HETATM   33  C29 BCR D 404     -17.686 -68.172  48.736  1.00 51.54     0.014 C 
HETATM   34  C30 BCR D 404     -16.499 -68.350  49.675  1.00 47.55    -0.020 C 
HETATM   35  C35 BCR D 404      -1.415 -69.333  45.880  1.00 27.35     0.048 C 
HETATM   36  C36 BCR D 404      -6.324 -68.266  51.342  1.00 24.12     0.048 C 
HETATM   37  C37 BCR D 404     -11.575 -68.255  51.850  1.00 31.42     0.048 C 
HETATM   38  C38 BCR D 404     -13.877 -66.409  47.640  1.00 57.67     0.044 C 
HETATM   39  C39 BCR D 404     -16.279 -69.844  49.830  1.00 52.80     0.020 C 
HETATM   40  C40 BCR D 404     -16.808 -67.594  50.946  1.00 45.94     0.020 C 
ENDROOT
TORSDOF 10
