REMARK  0 active torsions:
REMARK  status: ('A' for Active; 'I' for Inactive)
REMARK       I    between atoms: C6_6  and  C7_7 
REMARK       I    between atoms: C8_8  and  C9_9 
REMARK       I    between atoms: C10_10  and  C11_11 
REMARK       I    between atoms: C12_16  and  C13_17 
REMARK       I    between atoms: C14_18  and  C15_19 
REMARK       I    between atoms: C16_20  and  C17_21 
REMARK       I    between atoms: C18_22  and  C19_23 
REMARK       I    between atoms: C20_24  and  C21_25 
REMARK       I    between atoms: C22_26  and  C23_27 
REMARK       I    between atoms: C24_28  and  C25_29 
ROOT
HETATM    1  C1  BCR C 515     -56.209 -51.931  37.572  1.00 37.08    -0.020 C 
HETATM    2  C2  BCR C 515     -56.399 -51.370  36.169  1.00 40.43     0.014 C 
HETATM    3  C3  BCR C 515     -57.235 -50.101  36.163  1.00 40.60     0.005 C 
HETATM    4  C4  BCR C 515     -56.518 -49.024  36.939  1.00 41.76     0.034 C 
HETATM    5  C5  BCR C 515     -56.072 -49.527  38.293  1.00 44.35    -0.077 C 
HETATM    6  C6  BCR C 515     -55.925 -50.855  38.579  1.00 38.34    -0.048 C 
HETATM    7  C7  BCR C 515     -55.449 -51.229  39.940  1.00 39.43     0.009 C 
HETATM    8  C8  BCR C 515     -56.111 -50.859  41.045  1.00 35.24     0.007 C 
HETATM    9  C9  BCR C 515     -55.546 -51.253  42.351  1.00 37.97    -0.062 C 
HETATM   10  C10 BCR C 515     -56.140 -50.789  43.480  1.00 36.80     0.007 C 
HETATM   11  C11 BCR C 515     -55.754 -51.050  44.874  1.00 32.61     0.001 C 
HETATM   12  C33 BCR C 515     -55.756 -48.464  39.322  1.00 42.05     0.044 C 
HETATM   13  C31 BCR C 515     -55.047 -52.883  37.434  1.00 31.99     0.020 C 
HETATM   14  C32 BCR C 515     -57.482 -52.686  38.035  1.00 38.11     0.020 C 
HETATM   15  C34 BCR C 515     -54.296 -52.108  42.370  1.00 32.75     0.048 C 
HETATM   16  C12 BCR C 515     -56.522 -50.518  45.859  1.00 33.17     0.007 C 
HETATM   17  C13 BCR C 515     -56.185 -50.743  47.289  1.00 34.98    -0.062 C 
HETATM   18  C14 BCR C 515     -57.096 -50.492  48.261  1.00 34.48     0.007 C 
HETATM   19  C15 BCR C 515     -56.854 -50.656  49.700  1.00 37.70     0.001 C 
HETATM   20  C16 BCR C 515     -57.796 -50.390  50.612  1.00 34.86     0.001 C 
HETATM   21  C17 BCR C 515     -57.499 -50.563  52.037  1.00 31.74     0.007 C 
HETATM   22  C18 BCR C 515     -58.384 -50.479  53.082  1.00 36.05    -0.062 C 
HETATM   23  C19 BCR C 515     -57.830 -50.624  54.452  1.00 34.77     0.007 C 
HETATM   24  C20 BCR C 515     -58.523 -50.377  55.572  1.00 37.78     0.001 C 
HETATM   25  C21 BCR C 515     -57.851 -50.479  56.875  1.00 37.22     0.007 C 
HETATM   26  C22 BCR C 515     -58.417 -50.254  58.080  1.00 37.09    -0.062 C 
HETATM   27  C23 BCR C 515     -57.523 -50.342  59.239  1.00 34.50     0.007 C 
HETATM   28  C24 BCR C 515     -57.832 -49.850  60.441  1.00 34.78     0.009 C 
HETATM   29  C25 BCR C 515     -56.843 -49.904  61.556  1.00 32.41    -0.048 C 
HETATM   30  C26 BCR C 515     -56.320 -51.057  62.064  1.00 31.92    -0.077 C 
HETATM   31  C27 BCR C 515     -55.329 -51.022  63.210  1.00 30.54     0.034 C 
HETATM   32  C28 BCR C 515     -54.657 -49.660  63.359  1.00 33.89     0.005 C 
HETATM   33  C29 BCR C 515     -55.686 -48.543  63.371  1.00 28.08     0.014 C 
HETATM   34  C30 BCR C 515     -56.438 -48.520  62.044  1.00 34.48    -0.020 C 
HETATM   35  C35 BCR C 515     -54.797 -51.233  47.633  1.00 35.00     0.048 C 
HETATM   36  C36 BCR C 515     -59.863 -50.140  52.898  1.00 34.98     0.048 C 
HETATM   37  C37 BCR C 515     -59.873 -49.842  58.253  1.00 38.26     0.048 C 
HETATM   38  C38 BCR C 515     -56.751 -52.442  61.602  1.00 29.97     0.044 C 
HETATM   39  C39 BCR C 515     -55.664 -47.760  60.948  1.00 29.94     0.020 C 
HETATM   40  C40 BCR C 515     -57.732 -47.730  62.258  1.00 31.43     0.020 C 
ENDROOT
TORSDOF 10
