REMARK  0 active torsions:
REMARK  status: ('A' for Active; 'I' for Inactive)
REMARK       I    between atoms: C6_6  and  C7_7 
REMARK       I    between atoms: C8_8  and  C9_9 
REMARK       I    between atoms: C10_10  and  C11_11 
REMARK       I    between atoms: C12_16  and  C13_17 
REMARK       I    between atoms: C14_18  and  C15_19 
REMARK       I    between atoms: C16_20  and  C17_21 
REMARK       I    between atoms: C18_22  and  C19_23 
REMARK       I    between atoms: C20_24  and  C21_25 
REMARK       I    between atoms: C22_26  and  C23_27 
REMARK       I    between atoms: C24_28  and  C25_29 
ROOT
HETATM    1  C1  BCR T 101     -37.693 -32.761  23.865  1.00 48.00    -0.020 C 
HETATM    2  C2  BCR T 101     -37.975 -34.170  24.408  1.00 45.40     0.014 C 
HETATM    3  C3  BCR T 101     -39.213 -34.812  23.839  1.00 45.70     0.005 C 
HETATM    4  C4  BCR T 101     -40.434 -33.904  23.926  1.00 45.85     0.034 C 
HETATM    5  C5  BCR T 101     -40.171 -32.544  23.340  1.00 47.82    -0.077 C 
HETATM    6  C6  BCR T 101     -38.915 -32.011  23.334  1.00 44.72    -0.048 C 
HETATM    7  C7  BCR T 101     -38.762 -30.639  22.761  1.00 42.20     0.009 C 
HETATM    8  C8  BCR T 101     -37.709 -29.825  22.937  1.00 44.51     0.007 C 
HETATM    9  C9  BCR T 101     -37.672 -28.467  22.338  1.00 46.58    -0.062 C 
HETATM   10  C10 BCR T 101     -36.544 -27.751  22.497  1.00 43.07     0.007 C 
HETATM   11  C11 BCR T 101     -36.347 -26.387  22.017  1.00 43.14     0.001 C 
HETATM   12  C33 BCR T 101     -41.374 -31.821  22.790  1.00 47.62     0.044 C 
HETATM   13  C31 BCR T 101     -36.640 -32.852  22.756  1.00 41.19     0.020 C 
HETATM   14  C32 BCR T 101     -37.048 -32.025  25.051  1.00 53.32     0.020 C 
HETATM   15  C34 BCR T 101     -38.864 -27.929  21.570  1.00 45.50     0.048 C 
HETATM   16  C12 BCR T 101     -35.220 -25.744  22.364  1.00 43.45     0.007 C 
HETATM   17  C13 BCR T 101     -34.922 -24.321  22.033  1.00 44.47    -0.062 C 
HETATM   18  C14 BCR T 101     -33.842 -23.815  22.667  1.00 36.71     0.007 C 
HETATM   19  C15 BCR T 101     -33.338 -22.432  22.671  1.00 34.79     0.001 C 
HETATM   20  C16 BCR T 101     -32.065 -22.052  22.519  1.00 32.63     0.001 C 
HETATM   21  C17 BCR T 101     -31.777 -20.604  22.676  1.00 31.36     0.007 C 
HETATM   22  C18 BCR T 101     -30.525 -20.069  22.726  1.00 32.34    -0.062 C 
HETATM   23  C19 BCR T 101     -30.461 -18.613  22.998  1.00 28.96     0.007 C 
HETATM   24  C20 BCR T 101     -29.348 -17.893  23.203  1.00 27.10     0.001 C 
HETATM   25  C21 BCR T 101     -29.552 -16.484  23.596  1.00 26.88     0.007 C 
HETATM   26  C22 BCR T 101     -28.505 -15.665  23.884  1.00 28.28    -0.062 C 
HETATM   27  C23 BCR T 101     -28.877 -14.318  24.344  1.00 26.57     0.007 C 
HETATM   28  C24 BCR T 101     -27.968 -13.420  24.773  1.00 26.41     0.009 C 
HETATM   29  C25 BCR T 101     -28.442 -12.095  25.289  1.00 26.91    -0.048 C 
HETATM   30  C26 BCR T 101     -29.337 -11.325  24.623  1.00 25.86    -0.077 C 
HETATM   31  C27 BCR T 101     -29.853  -9.997  25.148  1.00 27.15     0.034 C 
HETATM   32  C28 BCR T 101     -29.639  -9.914  26.679  1.00 24.72     0.005 C 
HETATM   33  C29 BCR T 101     -28.149 -10.171  26.920  1.00 28.53     0.014 C 
HETATM   34  C30 BCR T 101     -27.787 -11.637  26.618  1.00 28.77    -0.020 C 
HETATM   35  C35 BCR T 101     -35.764 -23.483  21.094  1.00 39.12     0.048 C 
HETATM   36  C36 BCR T 101     -29.257 -20.911  22.630  1.00 30.01     0.048 C 
HETATM   37  C37 BCR T 101     -27.030 -16.080  23.808  1.00 26.82     0.048 C 
HETATM   38  C38 BCR T 101     -29.951 -11.721  23.325  1.00 26.07     0.044 C 
HETATM   39  C39 BCR T 101     -28.239 -12.522  27.787  1.00 27.86     0.020 C 
HETATM   40  C40 BCR T 101     -26.255 -11.699  26.457  1.00 24.32     0.020 C 
ENDROOT
TORSDOF 10
