REMARK  0 active torsions:
REMARK  status: ('A' for Active; 'I' for Inactive)
REMARK       I    between atoms: C6_6  and  C7_7 
REMARK       I    between atoms: C8_8  and  C9_9 
REMARK       I    between atoms: C10_10  and  C11_11 
REMARK       I    between atoms: C12_16  and  C13_17 
REMARK       I    between atoms: C14_18  and  C15_19 
REMARK       I    between atoms: C16_20  and  C17_21 
REMARK       I    between atoms: C18_22  and  C19_23 
REMARK       I    between atoms: C20_24  and  C21_25 
REMARK       I    between atoms: C22_26  and  C23_27 
REMARK       I    between atoms: C24_28  and  C25_29 
ROOT
HETATM    1  C1  BCR K 103      38.149 310.044 360.843  1.00 31.33    -0.020 C 
HETATM    2  C2  BCR K 103      37.967 309.346 362.190  1.00 30.10     0.014 C 
HETATM    3  C3  BCR K 103      39.243 308.664 362.668  1.00 28.21     0.005 C 
HETATM    4  C4  BCR K 103      40.363 309.669 362.805  1.00 35.14     0.034 C 
HETATM    5  C5  BCR K 103      40.538 310.459 361.531  1.00 40.40    -0.077 C 
HETATM    6  C6  BCR K 103      39.535 310.628 360.644  1.00 35.44    -0.048 C 
HETATM    7  C7  BCR K 103      39.660 311.396 359.379  1.00 31.58     0.009 C 
HETATM    8  C8  BCR K 103      40.495 311.090 358.382  1.00 28.28     0.007 C 
HETATM    9  C9  BCR K 103      40.459 311.902 357.156  1.00 28.29    -0.062 C 
HETATM   10  C10 BCR K 103      40.857 311.334 355.997  1.00 35.18     0.007 C 
HETATM   11  C11 BCR K 103      40.810 311.990 354.683  1.00 34.91     0.001 C 
HETATM   12  C33 BCR K 103      41.901 311.050 361.319  1.00 42.08     0.044 C 
HETATM   13  C31 BCR K 103      37.143 311.182 360.734  1.00 32.49     0.020 C 
HETATM   14  C32 BCR K 103      37.902 309.061 359.698  1.00 30.89     0.020 C 
HETATM   15  C34 BCR K 103      39.949 313.305 357.227  1.00 32.35     0.048 C 
HETATM   16  C12 BCR K 103      41.056 311.229 353.610  1.00 43.00     0.007 C 
HETATM   17  C13 BCR K 103      40.971 311.684 352.203  1.00 27.42    -0.062 C 
HETATM   18  C14 BCR K 103      41.251 310.807 351.214  1.00 27.03     0.007 C 
HETATM   19  C15 BCR K 103      41.132 311.129 349.783  1.00 26.89     0.001 C 
HETATM   20  C16 BCR K 103      41.493 310.266 348.820  1.00 26.54     0.001 C 
HETATM   21  C17 BCR K 103      41.312 310.620 347.401  1.00 26.43     0.007 C 
HETATM   22  C18 BCR K 103      41.625 309.819 346.359  1.00 31.95    -0.062 C 
HETATM   23  C19 BCR K 103      41.345 310.320 344.987  1.00 31.47     0.007 C 
HETATM   24  C20 BCR K 103      41.334 309.553 343.888  1.00 26.23     0.001 C 
HETATM   25  C21 BCR K 103      41.017 310.140 342.575  1.00 25.64     0.007 C 
HETATM   26  C22 BCR K 103      40.672 309.374 341.501  1.00 26.67    -0.062 C 
HETATM   27  C23 BCR K 103      40.360 309.956 340.319  1.00 34.76     0.007 C 
HETATM   28  C24 BCR K 103      40.055 309.263 339.209  1.00 34.12     0.009 C 
HETATM   29  C25 BCR K 103      39.694 309.902 337.905  1.00 32.06    -0.048 C 
HETATM   30  C26 BCR K 103      40.613 310.576 337.177  1.00 27.37    -0.077 C 
HETATM   31  C27 BCR K 103      40.308 311.231 335.846  1.00 31.26     0.034 C 
HETATM   32  C28 BCR K 103      38.814 311.336 335.563  1.00 25.08     0.005 C 
HETATM   33  C29 BCR K 103      38.083 310.061 335.951  1.00 31.88     0.014 C 
HETATM   34  C30 BCR K 103      38.255 309.732 337.426  1.00 32.84    -0.020 C 
HETATM   35  C35 BCR K 103      40.494 313.077 351.908  1.00 27.76     0.048 C 
HETATM   36  C36 BCR K 103      42.246 308.459 346.573  1.00 25.82     0.048 C 
HETATM   37  C37 BCR K 103      40.621 307.880 341.619  1.00 29.75     0.048 C 
HETATM   38  C38 BCR K 103      42.032 310.720 337.638  1.00 27.96     0.044 C 
HETATM   39  C39 BCR K 103      37.863 308.274 337.604  1.00 28.93     0.020 C 
HETATM   40  C40 BCR K 103      37.283 310.570 338.250  1.00 24.62     0.020 C 
ENDROOT
TORSDOF 10
