REMARK  0 active torsions:
REMARK  status: ('A' for Active; 'I' for Inactive)
REMARK       I    between atoms: C6_6  and  C7_7 
REMARK       I    between atoms: C8_8  and  C9_9 
REMARK       I    between atoms: C10_10  and  C11_11 
REMARK       I    between atoms: C12_16  and  C13_17 
REMARK       I    between atoms: C14_18  and  C15_19 
REMARK       I    between atoms: C16_20  and  C17_21 
REMARK       I    between atoms: C18_22  and  C19_23 
REMARK       I    between atoms: C20_24  and  C21_25 
REMARK       I    between atoms: C22_26  and  C23_27 
REMARK       I    between atoms: C24_28  and  C25_29 
ROOT
HETATM    1  C1  BCR D 403      -8.061 296.852 334.810  1.00 31.64    -0.020 C 
HETATM    2  C2  BCR D 403      -9.235 295.902 335.012  1.00 36.91     0.014 C 
HETATM    3  C3  BCR D 403      -9.134 295.164 336.336  1.00 34.30     0.005 C 
HETATM    4  C4  BCR D 403      -7.902 294.286 336.325  1.00 20.39     0.034 C 
HETATM    5  C5  BCR D 403      -6.675 295.038 335.873  1.00 30.73    -0.077 C 
HETATM    6  C6  BCR D 403      -6.734 296.206 335.188  1.00 34.13    -0.048 C 
HETATM    7  C7  BCR D 403      -5.479 296.890 334.756  1.00 22.47     0.009 C 
HETATM    8  C8  BCR D 403      -4.630 297.564 335.546  1.00 27.46     0.007 C 
HETATM    9  C9  BCR D 403      -3.411 298.161 334.950  1.00 32.57    -0.062 C 
HETATM   10  C10 BCR D 403      -2.332 298.395 335.716  1.00 21.68     0.007 C 
HETATM   11  C11 BCR D 403      -1.060 298.935 335.217  1.00 23.10     0.001 C 
HETATM   12  C33 BCR D 403      -5.360 294.392 336.223  1.00 25.91     0.044 C 
HETATM   13  C31 BCR D 403      -8.254 298.136 335.617  1.00 40.32     0.020 C 
HETATM   14  C32 BCR D 403      -8.028 297.191 333.324  1.00 29.64     0.020 C 
HETATM   15  C34 BCR D 403      -3.394 298.508 333.489  1.00 31.14     0.048 C 
HETATM   16  C12 BCR D 403      -0.063 298.985 336.107  1.00 20.09     0.007 C 
HETATM   17  C13 BCR D 403       1.329 299.388 335.839  1.00 19.95    -0.062 C 
HETATM   18  C14 BCR D 403       2.224 299.405 336.863  1.00 30.05     0.007 C 
HETATM   19  C15 BCR D 403       3.653 299.701 336.667  1.00 30.83     0.001 C 
HETATM   20  C16 BCR D 403       4.541 299.433 337.643  1.00 27.80     0.001 C 
HETATM   21  C17 BCR D 403       5.990 299.617 337.447  1.00 19.50     0.007 C 
HETATM   22  C18 BCR D 403       6.929 299.308 338.383  1.00 20.25    -0.062 C 
HETATM   23  C19 BCR D 403       8.369 299.437 338.032  1.00 20.98     0.007 C 
HETATM   24  C20 BCR D 403       9.394 299.179 338.855  1.00 19.16     0.001 C 
HETATM   25  C21 BCR D 403      10.752 299.266 338.302  1.00 32.99     0.007 C 
HETATM   26  C22 BCR D 403      11.892 299.018 338.978  1.00 28.53    -0.062 C 
HETATM   27  C23 BCR D 403      13.062 299.068 338.304  1.00 31.07     0.007 C 
HETATM   28  C24 BCR D 403      14.032 298.166 338.573  1.00 50.55     0.009 C 
HETATM   29  C25 BCR D 403      15.340 298.069 337.854  1.00 52.69    -0.048 C 
HETATM   30  C26 BCR D 403      15.365 297.381 336.707  1.00 59.17    -0.077 C 
HETATM   31  C27 BCR D 403      16.630 297.226 335.905  1.00 58.46     0.034 C 
HETATM   32  C28 BCR D 403      17.378 298.538 335.998  1.00 49.26     0.005 C 
HETATM   33  C29 BCR D 403      17.792 298.674 337.447  1.00 44.20     0.014 C 
HETATM   34  C30 BCR D 403      16.607 298.698 338.403  1.00 46.31    -0.020 C 
HETATM   35  C35 BCR D 403       1.766 299.684 334.426  1.00 22.68     0.048 C 
HETATM   36  C36 BCR D 403       6.541 298.770 339.731  1.00 19.40     0.048 C 
HETATM   37  C37 BCR D 403      11.841 298.654 340.434  1.00 20.07     0.048 C 
HETATM   38  C38 BCR D 403      14.115 296.746 336.172  1.00 70.87     0.044 C 
HETATM   39  C39 BCR D 403      16.317 300.151 338.739  1.00 46.29     0.020 C 
HETATM   40  C40 BCR D 403      17.009 297.925 339.649  1.00 32.90     0.020 C 
ENDROOT
TORSDOF 10
