REMARK  0 active torsions:
REMARK  status: ('A' for Active; 'I' for Inactive)
REMARK       I    between atoms: C6_6  and  C7_7 
REMARK       I    between atoms: C8_8  and  C9_9 
REMARK       I    between atoms: C10_10  and  C11_11 
REMARK       I    between atoms: C12_16  and  C13_17 
REMARK       I    between atoms: C14_18  and  C15_19 
REMARK       I    between atoms: C16_20  and  C17_21 
REMARK       I    between atoms: C18_22  and  C19_23 
REMARK       I    between atoms: C20_24  and  C21_25 
REMARK       I    between atoms: C22_26  and  C23_27 
REMARK       I    between atoms: C24_28  and  C25_29 
ROOT
HETATM    1  C1  BCR A 411      51.174 265.702 316.356  1.00 29.84    -0.020 C 
HETATM    2  C2  BCR A 411      52.293 266.672 315.996  1.00 20.54     0.014 C 
HETATM    3  C3  BCR A 411      53.472 266.528 316.943  1.00 26.03     0.005 C 
HETATM    4  C4  BCR A 411      54.065 265.131 316.853  1.00 20.46     0.034 C 
HETATM    5  C5  BCR A 411      53.002 264.057 316.871  1.00 19.96    -0.077 C 
HETATM    6  C6  BCR A 411      51.693 264.302 316.654  1.00 20.82    -0.048 C 
HETATM    7  C7  BCR A 411      50.675 263.207 316.693  1.00 29.43     0.009 C 
HETATM    8  C8  BCR A 411      50.336 262.615 317.854  1.00 22.26     0.007 C 
HETATM    9  C9  BCR A 411      49.307 261.555 317.959  1.00 27.77    -0.062 C 
HETATM   10  C10 BCR A 411      49.047 261.017 319.165  1.00 20.59     0.007 C 
HETATM   11  C11 BCR A 411      48.029 259.982 319.411  1.00 19.27     0.001 C 
HETATM   12  C33 BCR A 411      53.504 262.678 317.149  1.00 23.62     0.044 C 
HETATM   13  C31 BCR A 411      50.195 265.617 315.195  1.00 28.92     0.020 C 
HETATM   14  C32 BCR A 411      50.405 266.256 317.549  1.00 24.51     0.020 C 
HETATM   15  C34 BCR A 411      48.547 261.101 316.740  1.00 30.91     0.048 C 
HETATM   16  C12 BCR A 411      47.899 259.480 320.654  1.00 28.37     0.007 C 
HETATM   17  C13 BCR A 411      46.892 258.465 321.083  1.00 25.83    -0.062 C 
HETATM   18  C14 BCR A 411      46.720 258.222 322.407  1.00 18.99     0.007 C 
HETATM   19  C15 BCR A 411      45.741 257.291 322.979  1.00 23.50     0.001 C 
HETATM   20  C16 BCR A 411      45.671 257.035 324.295  1.00 25.25     0.001 C 
HETATM   21  C17 BCR A 411      44.633 256.125 324.801  1.00 31.30     0.007 C 
HETATM   22  C18 BCR A 411      44.428 255.859 326.111  1.00 27.73    -0.062 C 
HETATM   23  C19 BCR A 411      43.331 254.938 326.507  1.00 16.85     0.007 C 
HETATM   24  C20 BCR A 411      43.278 254.290 327.685  1.00 16.39     0.001 C 
HETATM   25  C21 BCR A 411      42.131 253.400 327.911  1.00 22.31     0.007 C 
HETATM   26  C22 BCR A 411      41.999 252.545 328.946  1.00 26.64    -0.062 C 
HETATM   27  C23 BCR A 411      40.892 251.761 329.022  1.00 23.69     0.007 C 
HETATM   28  C24 BCR A 411      40.716 250.814 329.960  1.00 24.10     0.009 C 
HETATM   29  C25 BCR A 411      39.516 249.934 330.066  1.00 19.96    -0.048 C 
HETATM   30  C26 BCR A 411      38.271 250.435 330.217  1.00 22.82    -0.077 C 
HETATM   31  C27 BCR A 411      37.042 249.560 330.326  1.00 17.59     0.034 C 
HETATM   32  C28 BCR A 411      37.271 248.136 329.835  1.00 18.54     0.005 C 
HETATM   33  C29 BCR A 411      38.574 247.591 330.393  1.00 23.49     0.014 C 
HETATM   34  C30 BCR A 411      39.783 248.432 330.001  1.00 20.77    -0.020 C 
HETATM   35  C35 BCR A 411      46.065 257.740 320.064  1.00 25.20     0.048 C 
HETATM   36  C36 BCR A 411      45.314 256.475 327.154  1.00 17.87     0.048 C 
HETATM   37  C37 BCR A 411      43.078 252.461 329.980  1.00 22.45     0.048 C 
HETATM   38  C38 BCR A 411      37.987 251.912 330.300  1.00 18.48     0.044 C 
HETATM   39  C39 BCR A 411      40.199 248.024 328.597  1.00 15.84     0.020 C 
HETATM   40  C40 BCR A 411      40.928 248.130 330.965  1.00 18.97     0.020 C 
ENDROOT
TORSDOF 10
