REMARK  0 active torsions:
REMARK  status: ('A' for Active; 'I' for Inactive)
REMARK       I    between atoms: C6_6  and  C7_7 
REMARK       I    between atoms: C8_8  and  C9_9 
REMARK       I    between atoms: C10_10  and  C11_11 
REMARK       I    between atoms: C12_16  and  C13_17 
REMARK       I    between atoms: C14_18  and  C15_19 
REMARK       I    between atoms: C16_20  and  C17_21 
REMARK       I    between atoms: C18_22  and  C19_23 
REMARK       I    between atoms: C20_24  and  C21_25 
REMARK       I    between atoms: C22_26  and  C23_27 
REMARK       I    between atoms: C24_28  and  C25_29 
ROOT
HETATM    1  C1  BCR B 618       5.113 249.771 314.544  1.00 32.17    -0.020 C 
HETATM    2  C2  BCR B 618       5.850 249.326 315.803  1.00 31.21     0.014 C 
HETATM    3  C3  BCR B 618       7.347 249.549 315.669  1.00 25.40     0.005 C 
HETATM    4  C4  BCR B 618       7.918 248.702 314.540  1.00 32.46     0.034 C 
HETATM    5  C5  BCR B 618       7.036 248.737 313.305  1.00 24.06    -0.077 C 
HETATM    6  C6  BCR B 618       5.766 249.208 313.294  1.00 29.25    -0.048 C 
HETATM    7  C7  BCR B 618       4.966 249.185 312.037  1.00 12.74     0.009 C 
HETATM    8  C8  BCR B 618       4.950 250.199 311.149  1.00 19.92     0.007 C 
HETATM    9  C9  BCR B 618       4.152 250.151 309.887  1.00 18.47    -0.062 C 
HETATM   10  C10 BCR B 618       4.193 251.178 309.008  1.00 19.37     0.007 C 
HETATM   11  C11 BCR B 618       3.467 251.214 307.723  1.00 24.83     0.001 C 
HETATM   12  C33 BCR B 618       7.650 248.183 312.057  1.00 28.03     0.044 C 
HETATM   13  C31 BCR B 618       5.106 251.296 314.450  1.00 29.30     0.020 C 
HETATM   14  C32 BCR B 618       3.676 249.279 314.636  1.00 21.79     0.020 C 
HETATM   15  C34 BCR B 618       3.317 248.943 309.574  1.00 26.35     0.048 C 
HETATM   16  C12 BCR B 618       3.657 252.247 306.866  1.00 21.16     0.007 C 
HETATM   17  C13 BCR B 618       3.001 252.355 305.529  1.00 24.62    -0.062 C 
HETATM   18  C14 BCR B 618       3.223 253.445 304.740  1.00 15.54     0.007 C 
HETATM   19  C15 BCR B 618       2.665 253.657 303.377  1.00 12.82     0.001 C 
HETATM   20  C16 BCR B 618       2.985 254.747 302.633  1.00 24.30     0.001 C 
HETATM   21  C17 BCR B 618       2.477 254.942 301.252  1.00 16.13     0.007 C 
HETATM   22  C18 BCR B 618       2.912 255.913 300.403  1.00 18.31    -0.062 C 
HETATM   23  C19 BCR B 618       2.370 256.002 299.018  1.00 25.80     0.007 C 
HETATM   24  C20 BCR B 618       2.839 256.817 298.053  1.00 23.93     0.001 C 
HETATM   25  C21 BCR B 618       2.171 256.745 296.749  1.00 21.34     0.007 C 
HETATM   26  C22 BCR B 618       2.554 257.338 295.606  1.00 23.72    -0.062 C 
HETATM   27  C23 BCR B 618       1.799 257.155 294.479  1.00 17.58     0.007 C 
HETATM   28  C24 BCR B 618       2.091 257.706 293.279  1.00 13.80     0.009 C 
HETATM   29  C25 BCR B 618       1.285 257.550 292.027  1.00 25.70    -0.048 C 
HETATM   30  C26 BCR B 618       0.973 256.339 291.494  1.00 16.18    -0.077 C 
HETATM   31  C27 BCR B 618       0.147 256.184 290.227  1.00 28.93     0.034 C 
HETATM   32  C28 BCR B 618       0.073 257.464 289.414  1.00 35.11     0.005 C 
HETATM   33  C29 BCR B 618      -0.249 258.654 290.297  1.00 27.97     0.014 C 
HETATM   34  C30 BCR B 618       0.834 258.847 291.353  1.00 27.33    -0.020 C 
HETATM   35  C35 BCR B 618       2.137 251.207 305.066  1.00 11.92     0.048 C 
HETATM   36  C36 BCR B 618       3.925 256.932 300.836  1.00 19.38     0.048 C 
HETATM   37  C37 BCR B 618       3.775 258.215 295.603  1.00 13.28     0.048 C 
HETATM   38  C38 BCR B 618       1.394 255.040 292.121  1.00 17.46     0.044 C 
HETATM   39  C39 BCR B 618       0.256 259.777 292.407  1.00 25.99     0.020 C 
HETATM   40  C40 BCR B 618       2.027 259.547 290.714  1.00 23.14     0.020 C 
ENDROOT
TORSDOF 10
