REMARK  0 active torsions:
REMARK  status: ('A' for Active; 'I' for Inactive)
REMARK       I    between atoms: C6_6  and  C7_7 
REMARK       I    between atoms: C8_8  and  C9_9 
REMARK       I    between atoms: C10_10  and  C11_11 
REMARK       I    between atoms: C12_16  and  C13_17 
REMARK       I    between atoms: C14_18  and  C15_19 
REMARK       I    between atoms: C16_20  and  C17_21 
REMARK       I    between atoms: C18_22  and  C19_23 
REMARK       I    between atoms: C20_24  and  C21_25 
REMARK       I    between atoms: C22_26  and  C23_27 
REMARK       I    between atoms: C24_28  and  C25_29 
ROOT
HETATM    1  C1  BCR C 515      46.824 308.008 365.299  1.00 43.74    -0.020 C 
HETATM    2  C2  BCR C 515      45.639 307.992 366.255  1.00 33.04     0.014 C 
HETATM    3  C3  BCR C 515      44.347 308.248 365.505  1.00 39.49     0.005 C 
HETATM    4  C4  BCR C 515      44.383 309.633 364.888  1.00 35.85     0.034 C 
HETATM    5  C5  BCR C 515      45.604 309.801 364.015  1.00 30.47    -0.077 C 
HETATM    6  C6  BCR C 515      46.721 309.067 364.200  1.00 45.08    -0.048 C 
HETATM    7  C7  BCR C 515      47.913 309.270 363.324  1.00 35.93     0.009 C 
HETATM    8  C8  BCR C 515      48.000 308.963 362.020  1.00 40.16     0.007 C 
HETATM    9  C9  BCR C 515      49.257 309.225 361.271  1.00 37.91    -0.062 C 
HETATM   10  C10 BCR C 515      49.303 309.073 359.926  1.00 40.13     0.007 C 
HETATM   11  C11 BCR C 515      50.503 309.299 359.097  1.00 37.53     0.001 C 
HETATM   12  C33 BCR C 515      45.511 310.842 362.932  1.00 32.24     0.044 C 
HETATM   13  C31 BCR C 515      46.903 306.647 364.624  1.00 38.68     0.020 C 
HETATM   14  C32 BCR C 515      48.078 308.238 366.138  1.00 37.12     0.020 C 
HETATM   15  C34 BCR C 515      50.481 309.657 362.027  1.00 53.32     0.048 C 
HETATM   16  C12 BCR C 515      50.435 309.089 357.770  1.00 49.88     0.007 C 
HETATM   17  C13 BCR C 515      51.573 309.280 356.832  1.00 44.94    -0.062 C 
HETATM   18  C14 BCR C 515      51.412 309.006 355.509  1.00 48.13     0.007 C 
HETATM   19  C15 BCR C 515      52.462 309.157 354.480  1.00 45.78     0.001 C 
HETATM   20  C16 BCR C 515      52.220 308.888 353.181  1.00 42.98     0.001 C 
HETATM   21  C17 BCR C 515      53.243 309.038 352.135  1.00 35.18     0.007 C 
HETATM   22  C18 BCR C 515      53.108 308.612 350.851  1.00 46.37    -0.062 C 
HETATM   23  C19 BCR C 515      54.231 308.823 349.902  1.00 46.12     0.007 C 
HETATM   24  C20 BCR C 515      54.260 308.327 348.658  1.00 39.74     0.001 C 
HETATM   25  C21 BCR C 515      55.441 308.605 347.832  1.00 40.38     0.007 C 
HETATM   26  C22 BCR C 515      55.692 308.049 346.626  1.00 42.03    -0.062 C 
HETATM   27  C23 BCR C 515      56.833 308.403 345.993  1.00 46.40     0.007 C 
HETATM   28  C24 BCR C 515      57.143 308.075 344.724  1.00 51.13     0.009 C 
HETATM   29  C25 BCR C 515      58.428 308.503 344.091  1.00 38.87    -0.048 C 
HETATM   30  C26 BCR C 515      58.621 309.779 343.702  1.00 44.05    -0.077 C 
HETATM   31  C27 BCR C 515      59.910 310.267 343.058  1.00 33.55     0.034 C 
HETATM   32  C28 BCR C 515      61.050 309.266 343.197  1.00 33.51     0.005 C 
HETATM   33  C29 BCR C 515      60.539 307.876 342.865  1.00 35.48     0.014 C 
HETATM   34  C30 BCR C 515      59.508 307.457 343.905  1.00 38.75    -0.020 C 
HETATM   35  C35 BCR C 515      52.888 309.766 357.367  1.00 34.72     0.048 C 
HETATM   36  C36 BCR C 515      51.862 307.917 350.362  1.00 29.10     0.048 C 
HETATM   37  C37 BCR C 515      54.731 307.068 346.004  1.00 29.31     0.048 C 
HETATM   38  C38 BCR C 515      57.542 310.811 343.893  1.00 41.01     0.044 C 
HETATM   39  C39 BCR C 515      60.215 307.267 345.241  1.00 38.61     0.020 C 
HETATM   40  C40 BCR C 515      58.859 306.155 343.463  1.00 30.77     0.020 C 
ENDROOT
TORSDOF 10
