REMARK  0 active torsions:
REMARK  status: ('A' for Active; 'I' for Inactive)
REMARK       I    between atoms: C6_6  and  C7_7 
REMARK       I    between atoms: C8_8  and  C9_9 
REMARK       I    between atoms: C10_10  and  C11_11 
REMARK       I    between atoms: C12_16  and  C13_17 
REMARK       I    between atoms: C14_18  and  C15_19 
REMARK       I    between atoms: C16_20  and  C17_21 
REMARK       I    between atoms: C18_22  and  C19_23 
REMARK       I    between atoms: C20_24  and  C21_25 
REMARK       I    between atoms: C22_26  and  C23_27 
REMARK       I    between atoms: C24_28  and  C25_29 
ROOT
HETATM    1  C1  BCR K 102      35.873 313.381 353.482  1.00 41.29    -0.020 C 
HETATM    2  C2  BCR K 102      36.279 313.714 354.914  1.00 34.85     0.014 C 
HETATM    3  C3  BCR K 102      36.107 312.522 355.841  1.00 30.40     0.005 C 
HETATM    4  C4  BCR K 102      36.959 311.346 355.382  1.00 33.17     0.034 C 
HETATM    5  C5  BCR K 102      37.044 311.217 353.879  1.00 30.48    -0.077 C 
HETATM    6  C6  BCR K 102      36.564 312.119 353.003  1.00 35.91    -0.048 C 
HETATM    7  C7  BCR K 102      36.723 311.835 351.544  1.00 31.64     0.009 C 
HETATM    8  C8  BCR K 102      35.719 311.983 350.665  1.00 31.88     0.007 C 
HETATM    9  C9  BCR K 102      35.823 311.684 349.215  1.00 37.16    -0.062 C 
HETATM   10  C10 BCR K 102      34.722 311.816 348.435  1.00 29.99     0.007 C 
HETATM   11  C11 BCR K 102      34.613 311.519 346.997  1.00 26.11     0.001 C 
HETATM   12  C33 BCR K 102      37.731 309.988 353.366  1.00 26.98     0.044 C 
HETATM   13  C31 BCR K 102      36.261 314.588 352.637  1.00 30.36     0.020 C 
HETATM   14  C32 BCR K 102      34.364 313.141 353.417  1.00 47.86     0.020 C 
HETATM   15  C34 BCR K 102      37.138 311.228 348.670  1.00 25.90     0.048 C 
HETATM   16  C12 BCR K 102      33.389 311.633 346.456  1.00 29.14     0.007 C 
HETATM   17  C13 BCR K 102      33.043 311.298 345.050  1.00 25.00    -0.062 C 
HETATM   18  C14 BCR K 102      31.734 311.300 344.694  1.00 24.50     0.007 C 
HETATM   19  C15 BCR K 102      31.240 310.921 343.362  1.00 30.28     0.001 C 
HETATM   20  C16 BCR K 102      29.930 310.729 343.143  1.00 32.56     0.001 C 
HETATM   21  C17 BCR K 102      29.446 310.303 341.823  1.00 33.23     0.007 C 
HETATM   22  C18 BCR K 102      28.142 310.094 341.535  1.00 32.04    -0.062 C 
HETATM   23  C19 BCR K 102      27.760 309.638 340.172  1.00 23.78     0.007 C 
HETATM   24  C20 BCR K 102      26.550 309.172 339.825  1.00 27.80     0.001 C 
HETATM   25  C21 BCR K 102      26.355 308.766 338.423  1.00 28.10     0.007 C 
HETATM   26  C22 BCR K 102      25.189 308.474 337.807  1.00 35.25    -0.062 C 
HETATM   27  C23 BCR K 102      25.241 308.148 336.486  1.00 39.65     0.007 C 
HETATM   28  C24 BCR K 102      24.236 308.418 335.638  1.00 30.30     0.009 C 
HETATM   29  C25 BCR K 102      24.276 308.125 334.177  1.00 31.56    -0.048 C 
HETATM   30  C26 BCR K 102      24.947 308.952 333.354  1.00 30.88    -0.077 C 
HETATM   31  C27 BCR K 102      25.037 308.730 331.862  1.00 24.32     0.034 C 
HETATM   32  C28 BCR K 102      24.761 307.287 331.503  1.00 28.11     0.005 C 
HETATM   33  C29 BCR K 102      23.444 306.892 332.143  1.00 26.57     0.014 C 
HETATM   34  C30 BCR K 102      23.535 306.909 333.665  1.00 33.55    -0.020 C 
HETATM   35  C35 BCR K 102      34.119 310.876 344.084  1.00 24.65     0.048 C 
HETATM   36  C36 BCR K 102      27.077 310.354 342.557  1.00 32.76     0.048 C 
HETATM   37  C37 BCR K 102      23.884 308.543 338.547  1.00 22.12     0.048 C 
HETATM   38  C38 BCR K 102      25.663 310.166 333.894  1.00 27.43     0.044 C 
HETATM   39  C39 BCR K 102      24.250 305.669 334.181  1.00 35.79     0.020 C 
HETATM   40  C40 BCR K 102      22.122 306.952 334.221  1.00 38.30     0.020 C 
ENDROOT
TORSDOF 10
