REMARK  0 active torsions:
REMARK  status: ('A' for Active; 'I' for Inactive)
REMARK       I    between atoms: C6_6  and  C7_7 
REMARK       I    between atoms: C8_8  and  C9_9 
REMARK       I    between atoms: C10_10  and  C11_11 
REMARK       I    between atoms: C12_16  and  C13_17 
REMARK       I    between atoms: C14_18  and  C15_19 
REMARK       I    between atoms: C16_20  and  C17_21 
REMARK       I    between atoms: C18_22  and  C19_23 
REMARK       I    between atoms: C20_24  and  C21_25 
REMARK       I    between atoms: C22_26  and  C23_27 
REMARK       I    between atoms: C24_28  and  C25_29 
ROOT
HETATM    1  C1  BCR B 620     -22.601 252.708 299.711  1.00 37.79    -0.020 C 
HETATM    2  C2  BCR B 620     -24.031 252.277 300.012  1.00 35.37     0.014 C 
HETATM    3  C3  BCR B 620     -24.878 252.134 298.767  1.00 36.48     0.005 C 
HETATM    4  C4  BCR B 620     -24.986 253.509 298.142  1.00 39.27     0.034 C 
HETATM    5  C5  BCR B 620     -23.607 254.048 297.835  1.00 42.60    -0.077 C 
HETATM    6  C6  BCR B 620     -22.504 253.689 298.543  1.00 28.70    -0.048 C 
HETATM    7  C7  BCR B 620     -21.142 254.227 298.240  1.00 32.59     0.009 C 
HETATM    8  C8  BCR B 620     -20.572 254.200 297.021  1.00 37.02     0.007 C 
HETATM    9  C9  BCR B 620     -19.225 254.732 296.718  1.00 36.25    -0.062 C 
HETATM   10  C10 BCR B 620     -18.728 254.545 295.470  1.00 26.68     0.007 C 
HETATM   11  C11 BCR B 620     -17.392 254.944 294.990  1.00 28.95     0.001 C 
HETATM   12  C33 BCR B 620     -23.572 255.017 296.687  1.00 49.87     0.044 C 
HETATM   13  C31 BCR B 620     -21.742 251.469 299.455  1.00 22.29     0.020 C 
HETATM   14  C32 BCR B 620     -22.071 253.403 300.954  1.00 31.04     0.020 C 
HETATM   15  C34 BCR B 620     -18.466 255.458 297.796  1.00 35.26     0.048 C 
HETATM   16  C12 BCR B 620     -17.044 254.563 293.746  1.00 26.61     0.007 C 
HETATM   17  C13 BCR B 620     -15.727 254.805 293.097  1.00 16.97    -0.062 C 
HETATM   18  C14 BCR B 620     -15.538 254.403 291.810  1.00 21.22     0.007 C 
HETATM   19  C15 BCR B 620     -14.265 254.510 291.078  1.00 28.31     0.001 C 
HETATM   20  C16 BCR B 620     -14.131 254.080 289.805  1.00 26.43     0.001 C 
HETATM   21  C17 BCR B 620     -12.822 254.135 289.127  1.00 21.75     0.007 C 
HETATM   22  C18 BCR B 620     -12.576 253.793 287.832  1.00 17.08    -0.062 C 
HETATM   23  C19 BCR B 620     -11.177 253.871 287.329  1.00 22.22     0.007 C 
HETATM   24  C20 BCR B 620     -10.749 253.453 286.126  1.00 26.39     0.001 C 
HETATM   25  C21 BCR B 620      -9.316 253.571 285.838  1.00 28.06     0.007 C 
HETATM   26  C22 BCR B 620      -8.705 253.290 284.665  1.00 31.03    -0.062 C 
HETATM   27  C23 BCR B 620      -7.367 253.423 284.579  1.00 32.45     0.007 C 
HETATM   28  C24 BCR B 620      -6.657 252.837 283.597  1.00 22.88     0.009 C 
HETATM   29  C25 BCR B 620      -5.180 252.959 283.503  1.00 23.62    -0.048 C 
HETATM   30  C26 BCR B 620      -4.394 252.191 284.289  1.00 23.31    -0.077 C 
HETATM   31  C27 BCR B 620      -2.877 252.239 284.267  1.00 21.45     0.034 C 
HETATM   32  C28 BCR B 620      -2.334 253.489 283.579  1.00 16.09     0.005 C 
HETATM   33  C29 BCR B 620      -3.091 253.749 282.296  1.00 25.48     0.014 C 
HETATM   34  C30 BCR B 620      -4.596 253.924 282.490  1.00 37.58    -0.020 C 
HETATM   35  C35 BCR B 620     -14.609 255.432 293.892  1.00 20.61     0.048 C 
HETATM   36  C36 BCR B 620     -13.695 253.334 286.924  1.00 18.89     0.048 C 
HETATM   37  C37 BCR B 620      -9.478 252.831 283.459  1.00 23.40     0.048 C 
HETATM   38  C38 BCR B 620      -5.010 251.223 285.254  1.00 23.13     0.044 C 
HETATM   39  C39 BCR B 620      -5.274 253.612 281.155  1.00 25.03     0.020 C 
HETATM   40  C40 BCR B 620      -4.883 255.377 282.867  1.00 32.22     0.020 C 
ENDROOT
TORSDOF 10
