REMARK  0 active torsions:
REMARK  status: ('A' for Active; 'I' for Inactive)
REMARK       I    between atoms: C6_6  and  C7_7 
REMARK       I    between atoms: C8_8  and  C9_9 
REMARK       I    between atoms: C10_10  and  C11_11 
REMARK       I    between atoms: C12_16  and  C13_17 
REMARK       I    between atoms: C14_18  and  C15_19 
REMARK       I    between atoms: C16_20  and  C17_21 
REMARK       I    between atoms: C18_22  and  C19_23 
REMARK       I    between atoms: C20_24  and  C21_25 
REMARK       I    between atoms: C22_26  and  C23_27 
REMARK       I    between atoms: C24_28  and  C25_29 
ROOT
HETATM    1  C1  BCR C 516      56.280  51.847  37.505  1.00 38.71    -0.020 C 
HETATM    2  C2  BCR C 516      56.446  51.283  36.097  1.00 40.37     0.014 C 
HETATM    3  C3  BCR C 516      57.245  49.993  36.085  1.00 39.69     0.005 C 
HETATM    4  C4  BCR C 516      56.557  48.886  36.867  1.00 41.33     0.034 C 
HETATM    5  C5  BCR C 516      56.130  49.412  38.223  1.00 43.22    -0.077 C 
HETATM    6  C6  BCR C 516      56.031  50.749  38.513  1.00 38.85    -0.048 C 
HETATM    7  C7  BCR C 516      55.575  51.118  39.877  1.00 37.25     0.009 C 
HETATM    8  C8  BCR C 516      56.260  50.824  40.980  1.00 33.22     0.007 C 
HETATM    9  C9  BCR C 516      55.682  51.166  42.317  1.00 35.01    -0.062 C 
HETATM   10  C10 BCR C 516      56.269  50.669  43.421  1.00 35.85     0.007 C 
HETATM   11  C11 BCR C 516      55.809  50.878  44.806  1.00 37.17     0.001 C 
HETATM   12  C33 BCR C 516      55.827  48.356  39.263  1.00 40.82     0.044 C 
HETATM   13  C31 BCR C 516      55.076  52.771  37.389  1.00 36.16     0.020 C 
HETATM   14  C32 BCR C 516      57.499  52.646  37.953  1.00 40.70     0.020 C 
HETATM   15  C34 BCR C 516      54.394  51.941  42.416  1.00 34.02     0.048 C 
HETATM   16  C12 BCR C 516      56.588  50.473  45.824  1.00 35.87     0.007 C 
HETATM   17  C13 BCR C 516      56.227  50.633  47.256  1.00 34.56    -0.062 C 
HETATM   18  C14 BCR C 516      57.172  50.420  48.193  1.00 35.22     0.007 C 
HETATM   19  C15 BCR C 516      56.931  50.515  49.645  1.00 35.10     0.001 C 
HETATM   20  C16 BCR C 516      57.890  50.359  50.575  1.00 33.14     0.001 C 
HETATM   21  C17 BCR C 516      57.558  50.427  52.017  1.00 30.41     0.007 C 
HETATM   22  C18 BCR C 516      58.461  50.405  53.045  1.00 33.67    -0.062 C 
HETATM   23  C19 BCR C 516      57.960  50.464  54.444  1.00 30.53     0.007 C 
HETATM   24  C20 BCR C 516      58.656  50.186  55.552  1.00 32.24     0.001 C 
HETATM   25  C21 BCR C 516      57.999  50.252  56.870  1.00 31.30     0.007 C 
HETATM   26  C22 BCR C 516      58.550  50.055  58.078  1.00 33.04    -0.062 C 
HETATM   27  C23 BCR C 516      57.633  50.137  59.242  1.00 28.50     0.007 C 
HETATM   28  C24 BCR C 516      57.965  49.691  60.452  1.00 30.95     0.009 C 
HETATM   29  C25 BCR C 516      56.999  49.717  61.586  1.00 30.63    -0.048 C 
HETATM   30  C26 BCR C 516      56.453  50.860  62.078  1.00 30.70    -0.077 C 
HETATM   31  C27 BCR C 516      55.440  50.840  63.206  1.00 30.34     0.034 C 
HETATM   32  C28 BCR C 516      54.851  49.449  63.475  1.00 30.27     0.005 C 
HETATM   33  C29 BCR C 516      55.948  48.401  63.484  1.00 31.08     0.014 C 
HETATM   34  C30 BCR C 516      56.642  48.345  62.101  1.00 31.36    -0.020 C 
HETATM   35  C35 BCR C 516      54.811  51.016  47.630  1.00 39.88     0.048 C 
HETATM   36  C36 BCR C 516      59.968  50.302  52.792  1.00 32.24     0.048 C 
HETATM   37  C37 BCR C 516      60.026  49.735  58.216  1.00 34.59     0.048 C 
HETATM   38  C38 BCR C 516      56.844  52.234  61.558  1.00 34.55     0.044 C 
HETATM   39  C39 BCR C 516      55.772  47.627  61.041  1.00 33.09     0.020 C 
HETATM   40  C40 BCR C 516      57.913  47.503  62.261  1.00 32.68     0.020 C 
ENDROOT
TORSDOF 10
