REMARK  0 active torsions:
REMARK  status: ('A' for Active; 'I' for Inactive)
REMARK       I    between atoms: C6_6  and  C7_7 
REMARK       I    between atoms: C8_8  and  C9_9 
REMARK       I    between atoms: C10_10  and  C11_11 
REMARK       I    between atoms: C12_16  and  C13_17 
REMARK       I    between atoms: C14_18  and  C15_19 
REMARK       I    between atoms: C16_20  and  C17_21 
REMARK       I    between atoms: C18_22  and  C19_23 
REMARK       I    between atoms: C20_24  and  C21_25 
REMARK       I    between atoms: C22_26  and  C23_27 
REMARK       I    between atoms: C24_28  and  C25_29 
ROOT
HETATM    1  C1  BCR C 515     -54.241  75.628 -63.847  1.00 39.71    -0.020 C 
HETATM    2  C2  BCR C 515     -53.606  75.772 -65.215  1.00 40.37     0.014 C 
HETATM    3  C3  BCR C 515     -52.287  76.498 -65.100  1.00 43.17     0.005 C 
HETATM    4  C4  BCR C 515     -52.565  77.906 -64.624  1.00 48.98     0.034 C 
HETATM    5  C5  BCR C 515     -53.281  77.865 -63.299  1.00 42.59    -0.077 C 
HETATM    6  C6  BCR C 515     -54.084  76.852 -62.972  1.00 38.03    -0.048 C 
HETATM    7  C7  BCR C 515     -54.878  76.912 -61.728  1.00 39.13     0.009 C 
HETATM    8  C8  BCR C 515     -54.404  76.750 -60.495  1.00 40.01     0.007 C 
HETATM    9  C9  BCR C 515     -55.315  76.841 -59.337  1.00 48.45    -0.062 C 
HETATM   10  C10 BCR C 515     -54.831  76.724 -58.097  1.00 46.14     0.007 C 
HETATM   11  C11 BCR C 515     -55.684  76.808 -56.915  1.00 42.52     0.001 C 
HETATM   12  C33 BCR C 515     -53.064  79.017 -62.367  1.00 41.43     0.044 C 
HETATM   13  C31 BCR C 515     -53.615  74.439 -63.147  1.00 36.91     0.020 C 
HETATM   14  C32 BCR C 515     -55.722  75.357 -64.035  1.00 47.25     0.020 C 
HETATM   15  C34 BCR C 515     -56.787  77.043 -59.541  1.00 41.23     0.048 C 
HETATM   16  C12 BCR C 515     -55.213  76.358 -55.758  1.00 42.82     0.007 C 
HETATM   17  C13 BCR C 515     -55.963  76.414 -54.489  1.00 44.74    -0.062 C 
HETATM   18  C14 BCR C 515     -55.261  76.299 -53.357  1.00 43.56     0.007 C 
HETATM   19  C15 BCR C 515     -55.866  76.366 -52.038  1.00 39.26     0.001 C 
HETATM   20  C16 BCR C 515     -55.086  76.247 -50.971  1.00 40.16     0.001 C 
HETATM   21  C17 BCR C 515     -55.671  76.343 -49.644  1.00 42.34     0.007 C 
HETATM   22  C18 BCR C 515     -55.005  76.043 -48.526  1.00 44.22    -0.062 C 
HETATM   23  C19 BCR C 515     -55.715  76.207 -47.249  1.00 48.96     0.007 C 
HETATM   24  C20 BCR C 515     -55.225  75.831 -46.078  1.00 51.51     0.001 C 
HETATM   25  C21 BCR C 515     -56.075  76.090 -44.928  1.00 48.83     0.007 C 
HETATM   26  C22 BCR C 515     -55.822  75.598 -43.717  1.00 46.78    -0.062 C 
HETATM   27  C23 BCR C 515     -56.752  75.937 -42.636  1.00 46.17     0.007 C 
HETATM   28  C24 BCR C 515     -56.434  75.766 -41.360  1.00 45.08     0.009 C 
HETATM   29  C25 BCR C 515     -57.369  76.123 -40.277  1.00 45.02    -0.048 C 
HETATM   30  C26 BCR C 515     -57.611  77.403 -39.996  1.00 46.86    -0.077 C 
HETATM   31  C27 BCR C 515     -58.639  77.826 -38.975  1.00 50.72     0.034 C 
HETATM   32  C28 BCR C 515     -59.630  76.711 -38.737  1.00 55.86     0.005 C 
HETATM   33  C29 BCR C 515     -58.838  75.488 -38.334  1.00 52.85     0.014 C 
HETATM   34  C30 BCR C 515     -58.001  74.997 -39.504  1.00 52.22    -0.020 C 
HETATM   35  C35 BCR C 515     -57.450  76.602 -54.450  1.00 45.43     0.048 C 
HETATM   36  C36 BCR C 515     -53.585  75.571 -48.567  1.00 42.28     0.048 C 
HETATM   37  C37 BCR C 515     -54.631  74.728 -43.478  1.00 46.03     0.048 C 
HETATM   38  C38 BCR C 515     -56.852  78.496 -40.688  1.00 45.04     0.044 C 
HETATM   39  C39 BCR C 515     -58.884  74.202 -40.452  1.00 52.25     0.020 C 
HETATM   40  C40 BCR C 515     -56.880  74.122 -38.981  1.00 47.46     0.020 C 
ENDROOT
TORSDOF 10
