REMARK  0 active torsions:
REMARK  status: ('A' for Active; 'I' for Inactive)
REMARK       I    between atoms: C6_6  and  C7_7 
REMARK       I    between atoms: C8_8  and  C9_9 
REMARK       I    between atoms: C10_10  and  C11_11 
REMARK       I    between atoms: C12_16  and  C13_17 
REMARK       I    between atoms: C14_18  and  C15_19 
REMARK       I    between atoms: C16_20  and  C17_21 
REMARK       I    between atoms: C18_22  and  C19_23 
REMARK       I    between atoms: C20_24  and  C21_25 
REMARK       I    between atoms: C22_26  and  C23_27 
REMARK       I    between atoms: C24_28  and  C25_29 
ROOT
HETATM    1  C1  BCR B 616       8.852  24.499 -31.584  1.00 31.32    -0.020 C 
HETATM    2  C2  BCR B 616       7.738  23.963 -32.459  1.00 32.97     0.014 C 
HETATM    3  C3  BCR B 616       6.429  24.107 -31.717  1.00 29.93     0.005 C 
HETATM    4  C4  BCR B 616       6.421  23.163 -30.539  1.00 26.02     0.034 C 
HETATM    5  C5  BCR B 616       7.716  23.251 -29.765  1.00 31.50    -0.077 C 
HETATM    6  C6  BCR B 616       8.816  23.881 -30.216  1.00 32.71    -0.048 C 
HETATM    7  C7  BCR B 616       9.994  23.960 -29.320  1.00 27.07     0.009 C 
HETATM    8  C8  BCR B 616      10.292  25.063 -28.632  1.00 26.19     0.007 C 
HETATM    9  C9  BCR B 616      11.431  25.141 -27.691  1.00 26.80    -0.062 C 
HETATM   10  C10 BCR B 616      11.578  26.202 -26.897  1.00 24.87     0.007 C 
HETATM   11  C11 BCR B 616      12.652  26.299 -25.913  1.00 26.76     0.001 C 
HETATM   12  C33 BCR B 616       7.722  22.573 -28.430  1.00 25.10     0.044 C 
HETATM   13  C31 BCR B 616       8.674  26.003 -31.461  1.00 28.04     0.020 C 
HETATM   14  C32 BCR B 616      10.184  24.154 -32.205  1.00 25.30     0.020 C 
HETATM   15  C34 BCR B 616      12.420  24.029 -27.573  1.00 25.88     0.048 C 
HETATM   16  C12 BCR B 616      12.721  27.412 -25.188  1.00 27.03     0.007 C 
HETATM   17  C13 BCR B 616      13.698  27.655 -24.118  1.00 24.87    -0.062 C 
HETATM   18  C14 BCR B 616      13.641  28.805 -23.427  1.00 25.36     0.007 C 
HETATM   19  C15 BCR B 616      14.549  29.092 -22.321  1.00 24.12     0.001 C 
HETATM   20  C16 BCR B 616      14.384  30.144 -21.531  1.00 24.28     0.001 C 
HETATM   21  C17 BCR B 616      15.291  30.368 -20.418  1.00 25.58     0.007 C 
HETATM   22  C18 BCR B 616      15.177  31.420 -19.599  1.00 28.46    -0.062 C 
HETATM   23  C19 BCR B 616      16.134  31.546 -18.485  1.00 23.05     0.007 C 
HETATM   24  C20 BCR B 616      16.047  32.418 -17.490  1.00 21.86     0.001 C 
HETATM   25  C21 BCR B 616      17.094  32.354 -16.480  1.00 26.78     0.007 C 
HETATM   26  C22 BCR B 616      17.086  33.002 -15.308  1.00 25.31    -0.062 C 
HETATM   27  C23 BCR B 616      18.223  32.836 -14.380  1.00 19.67     0.007 C 
HETATM   28  C24 BCR B 616      18.263  33.477 -13.218  1.00 21.08     0.009 C 
HETATM   29  C25 BCR B 616      19.369  33.384 -12.238  1.00 24.69    -0.048 C 
HETATM   30  C26 BCR B 616      19.789  32.217 -11.756  1.00 24.70    -0.077 C 
HETATM   31  C27 BCR B 616      21.145  32.094 -11.119  1.00 28.87     0.034 C 
HETATM   32  C28 BCR B 616      21.378  33.287 -10.226  1.00 22.34     0.005 C 
HETATM   33  C29 BCR B 616      21.364  34.509 -11.111  1.00 23.43     0.014 C 
HETATM   34  C30 BCR B 616      20.008  34.682 -11.774  1.00 25.38    -0.020 C 
HETATM   35  C35 BCR B 616      14.708  26.604 -23.792  1.00 22.52     0.048 C 
HETATM   36  C36 BCR B 616      14.106  32.444 -19.811  1.00 21.22     0.048 C 
HETATM   37  C37 BCR B 616      15.938  33.893 -14.959  1.00 24.02     0.048 C 
HETATM   38  C38 BCR B 616      18.953  30.977 -11.793  1.00 26.85     0.044 C 
HETATM   39  C39 BCR B 616      20.200  35.589 -12.971  1.00 22.16     0.020 C 
HETATM   40  C40 BCR B 616      19.097  35.378 -10.789  1.00 23.21     0.020 C 
ENDROOT
TORSDOF 10
