REMARK  0 active torsions:
REMARK  status: ('A' for Active; 'I' for Inactive)
REMARK       I    between atoms: C6_6  and  C7_7 
REMARK       I    between atoms: C8_8  and  C9_9 
REMARK       I    between atoms: C10_10  and  C11_11 
REMARK       I    between atoms: C12_16  and  C13_17 
REMARK       I    between atoms: C14_18  and  C15_19 
REMARK       I    between atoms: C16_20  and  C17_21 
REMARK       I    between atoms: C18_22  and  C19_23 
REMARK       I    between atoms: C20_24  and  C21_25 
REMARK       I    between atoms: C22_26  and  C23_27 
REMARK       I    between atoms: C24_28  and  C25_29 
ROOT
HETATM    1  C1  BCR C 516     -46.511  50.455 -24.842  1.00 30.02    -0.020 C 
HETATM    2  C2  BCR C 516     -46.149  49.970 -23.455  1.00 30.87     0.014 C 
HETATM    3  C3  BCR C 516     -46.847  48.666 -23.155  1.00 30.68     0.005 C 
HETATM    4  C4  BCR C 516     -46.444  47.569 -24.115  1.00 31.80     0.034 C 
HETATM    5  C5  BCR C 516     -46.238  48.090 -25.508  1.00 32.46    -0.077 C 
HETATM    6  C6  BCR C 516     -46.435  49.354 -25.845  1.00 30.66    -0.048 C 
HETATM    7  C7  BCR C 516     -46.527  49.736 -27.255  1.00 30.01     0.009 C 
HETATM    8  C8  BCR C 516     -47.589  49.465 -27.989  1.00 34.00     0.007 C 
HETATM    9  C9  BCR C 516     -47.585  49.878 -29.394  1.00 33.37    -0.062 C 
HETATM   10  C10 BCR C 516     -48.410  49.271 -30.240  1.00 32.41     0.007 C 
HETATM   11  C11 BCR C 516     -48.483  49.595 -31.655  1.00 36.14     0.001 C 
HETATM   12  C33 BCR C 516     -45.764  47.114 -26.532  1.00 28.57     0.044 C 
HETATM   13  C31 BCR C 516     -45.561  51.550 -25.288  1.00 26.76     0.020 C 
HETATM   14  C32 BCR C 516     -47.925  50.996 -24.859  1.00 31.67     0.020 C 
HETATM   15  C34 BCR C 516     -46.657  50.965 -29.844  1.00 31.81     0.048 C 
HETATM   16  C12 BCR C 516     -49.380  48.914 -32.347  1.00 35.77     0.007 C 
HETATM   17  C13 BCR C 516     -49.622  49.065 -33.785  1.00 38.22    -0.062 C 
HETATM   18  C14 BCR C 516     -50.797  48.619 -34.269  1.00 37.80     0.007 C 
HETATM   19  C15 BCR C 516     -51.152  48.696 -35.683  1.00 32.13     0.001 C 
HETATM   20  C16 BCR C 516     -52.407  48.603 -36.114  1.00 37.10     0.001 C 
HETATM   21  C17 BCR C 516     -52.627  48.678 -37.554  1.00 38.20     0.007 C 
HETATM   22  C18 BCR C 516     -53.758  48.323 -38.168  1.00 31.50    -0.062 C 
HETATM   23  C19 BCR C 516     -53.793  48.436 -39.627  1.00 25.76     0.007 C 
HETATM   24  C20 BCR C 516     -54.828  48.171 -40.404  1.00 25.99     0.001 C 
HETATM   25  C21 BCR C 516     -54.552  48.349 -41.815  1.00 30.28     0.007 C 
HETATM   26  C22 BCR C 516     -55.383  48.043 -42.799  1.00 28.61    -0.062 C 
HETATM   27  C23 BCR C 516     -54.944  48.259 -44.180  1.00 24.47     0.007 C 
HETATM   28  C24 BCR C 516     -55.615  47.696 -45.174  1.00 23.15     0.009 C 
HETATM   29  C25 BCR C 516     -55.272  47.817 -46.599  1.00 23.34    -0.048 C 
HETATM   30  C26 BCR C 516     -55.218  48.985 -47.245  1.00 21.26    -0.077 C 
HETATM   31  C27 BCR C 516     -54.852  49.078 -48.698  1.00 23.10     0.034 C 
HETATM   32  C28 BCR C 516     -54.062  47.867 -49.124  1.00 24.68     0.005 C 
HETATM   33  C29 BCR C 516     -54.834  46.619 -48.787  1.00 25.94     0.014 C 
HETATM   34  C30 BCR C 516     -55.027  46.502 -47.285  1.00 23.98    -0.020 C 
HETATM   35  C35 BCR C 516     -48.580  49.683 -34.666  1.00 31.22     0.048 C 
HETATM   36  C36 BCR C 516     -54.924  47.803 -37.400  1.00 33.32     0.048 C 
HETATM   37  C37 BCR C 516     -56.741  47.484 -42.518  1.00 23.79     0.048 C 
HETATM   38  C38 BCR C 516     -55.533  50.286 -46.577  1.00 23.96     0.044 C 
HETATM   39  C39 BCR C 516     -53.788  45.884 -46.670  1.00 22.89     0.020 C 
HETATM   40  C40 BCR C 516     -56.210  45.601 -46.989  1.00 22.73     0.020 C 
ENDROOT
TORSDOF 10
