REMARK  0 active torsions:
REMARK  status: ('A' for Active; 'I' for Inactive)
REMARK       I    between atoms: C6_6  and  C7_7 
REMARK       I    between atoms: C8_8  and  C9_9 
REMARK       I    between atoms: C10_10  and  C11_11 
REMARK       I    between atoms: C12_16  and  C13_17 
REMARK       I    between atoms: C14_18  and  C15_19 
REMARK       I    between atoms: C16_20  and  C17_21 
REMARK       I    between atoms: C18_22  and  C19_23 
REMARK       I    between atoms: C20_24  and  C21_25 
REMARK       I    between atoms: C22_26  and  C23_27 
REMARK       I    between atoms: C24_28  and  C25_29 
ROOT
HETATM    1  C1  BCR T 101     -22.425  34.051 -18.797  1.00 32.60    -0.020 C 
HETATM    2  C2  BCR T 101     -23.226  35.284 -19.158  1.00 30.90     0.014 C 
HETATM    3  C3  BCR T 101     -23.574  36.000 -17.879  1.00 28.16     0.005 C 
HETATM    4  C4  BCR T 101     -24.563  35.132 -17.134  1.00 29.77     0.034 C 
HETATM    5  C5  BCR T 101     -23.966  33.771 -16.893  1.00 32.17    -0.077 C 
HETATM    6  C6  BCR T 101     -23.069  33.238 -17.704  1.00 29.39    -0.048 C 
HETATM    7  C7  BCR T 101     -22.722  31.816 -17.484  1.00 28.67     0.009 C 
HETATM    8  C8  BCR T 101     -21.517  31.420 -17.082  1.00 29.80     0.007 C 
HETATM    9  C9  BCR T 101     -21.145  30.013 -16.832  1.00 31.04    -0.062 C 
HETATM   10  C10 BCR T 101     -20.030  29.480 -17.379  1.00 28.41     0.007 C 
HETATM   11  C11 BCR T 101     -19.600  28.094 -17.158  1.00 26.93     0.001 C 
HETATM   12  C33 BCR T 101     -24.396  32.981 -15.699  1.00 33.39     0.044 C 
HETATM   13  C31 BCR T 101     -21.060  34.535 -18.341  1.00 27.27     0.020 C 
HETATM   14  C32 BCR T 101     -22.301  33.135 -19.995  1.00 36.11     0.020 C 
HETATM   15  C34 BCR T 101     -21.995  29.196 -15.917  1.00 28.67     0.048 C 
HETATM   16  C12 BCR T 101     -18.439  27.671 -17.666  1.00 30.79     0.007 C 
HETATM   17  C13 BCR T 101     -17.926  26.289 -17.505  1.00 29.61    -0.062 C 
HETATM   18  C14 BCR T 101     -16.986  25.840 -18.345  1.00 22.63     0.007 C 
HETATM   19  C15 BCR T 101     -16.449  24.480 -18.277  1.00 27.56     0.001 C 
HETATM   20  C16 BCR T 101     -15.409  24.128 -19.037  1.00 31.88     0.001 C 
HETATM   21  C17 BCR T 101     -14.906  22.759 -19.023  1.00 32.33     0.007 C 
HETATM   22  C18 BCR T 101     -13.806  22.345 -19.676  1.00 31.34    -0.062 C 
HETATM   23  C19 BCR T 101     -13.426  20.927 -19.616  1.00 29.71     0.007 C 
HETATM   24  C20 BCR T 101     -13.054  20.326 -20.738  1.00 28.34     0.001 C 
HETATM   25  C21 BCR T 101     -12.674  18.922 -20.721  1.00 28.44     0.007 C 
HETATM   26  C22 BCR T 101     -12.291  18.343 -21.856  1.00 29.84    -0.062 C 
HETATM   27  C23 BCR T 101     -11.911  16.927 -21.876  1.00 28.52     0.007 C 
HETATM   28  C24 BCR T 101     -12.406  16.163 -22.840  1.00 29.55     0.009 C 
HETATM   29  C25 BCR T 101     -12.179  14.715 -23.030  1.00 32.84    -0.048 C 
HETATM   30  C26 BCR T 101     -12.486  13.830 -22.085  1.00 34.45    -0.077 C 
HETATM   31  C27 BCR T 101     -13.285  12.603 -22.445  1.00 26.80     0.034 C 
HETATM   32  C28 BCR T 101     -13.420  12.492 -23.949  1.00 27.07     0.005 C 
HETATM   33  C29 BCR T 101     -12.068  12.776 -24.579  1.00 27.30     0.014 C 
HETATM   34  C30 BCR T 101     -11.705  14.233 -24.368  1.00 29.51    -0.020 C 
HETATM   35  C35 BCR T 101     -18.435  25.400 -16.416  1.00 26.61     0.048 C 
HETATM   36  C36 BCR T 101     -12.942  23.288 -20.447  1.00 26.15     0.048 C 
HETATM   37  C37 BCR T 101     -12.269  19.148 -23.112  1.00 37.78     0.048 C 
HETATM   38  C38 BCR T 101     -12.077  14.001 -20.656  1.00 31.59     0.044 C 
HETATM   39  C39 BCR T 101     -12.396  15.051 -25.442  1.00 30.31     0.020 C 
HETATM   40  C40 BCR T 101     -10.204  14.413 -24.438  1.00 28.93     0.020 C 
ENDROOT
TORSDOF 10
