REMARK  0 active torsions:
REMARK  status: ('A' for Active; 'I' for Inactive)
REMARK       I    between atoms: C6_6  and  C7_7 
REMARK       I    between atoms: C8_8  and  C9_9 
REMARK       I    between atoms: C10_10  and  C11_11 
REMARK       I    between atoms: C12_16  and  C13_17 
REMARK       I    between atoms: C14_18  and  C15_19 
REMARK       I    between atoms: C16_20  and  C17_21 
REMARK       I    between atoms: C18_22  and  C19_23 
REMARK       I    between atoms: C20_24  and  C21_25 
REMARK       I    between atoms: C22_26  and  C23_27 
REMARK       I    between atoms: C24_28  and  C25_29 
ROOT
HETATM    1  C1  BCR A 407     -36.227  35.273 -17.120  1.00 28.23    -0.020 C 
HETATM    2  C2  BCR A 407     -37.314  36.203 -16.602  1.00 26.63     0.014 C 
HETATM    3  C3  BCR A 407     -38.656  35.869 -17.217  1.00 25.93     0.005 C 
HETATM    4  C4  BCR A 407     -39.018  34.483 -16.752  1.00 23.77     0.034 C 
HETATM    5  C5  BCR A 407     -37.986  33.504 -17.223  1.00 26.68    -0.077 C 
HETATM    6  C6  BCR A 407     -36.703  33.864 -17.403  1.00 30.50    -0.048 C 
HETATM    7  C7  BCR A 407     -35.714  32.861 -17.856  1.00 26.48     0.009 C 
HETATM    8  C8  BCR A 407     -35.559  32.505 -19.133  1.00 26.44     0.007 C 
HETATM    9  C9  BCR A 407     -34.565  31.482 -19.541  1.00 31.91    -0.062 C 
HETATM   10  C10 BCR A 407     -34.687  30.874 -20.734  1.00 26.39     0.007 C 
HETATM   11  C11 BCR A 407     -33.813  29.839 -21.284  1.00 23.46     0.001 C 
HETATM   12  C33 BCR A 407     -38.442  32.101 -17.452  1.00 20.48     0.044 C 
HETATM   13  C31 BCR A 407     -35.124  35.187 -16.084  1.00 26.58     0.020 C 
HETATM   14  C32 BCR A 407     -35.712  35.874 -18.411  1.00 24.38     0.020 C 
HETATM   15  C34 BCR A 407     -33.439  31.138 -18.622  1.00 31.33     0.048 C 
HETATM   16  C12 BCR A 407     -33.997  29.489 -22.556  1.00 19.64     0.007 C 
HETATM   17  C13 BCR A 407     -33.205  28.470 -23.265  1.00 19.50    -0.062 C 
HETATM   18  C14 BCR A 407     -33.362  28.318 -24.584  1.00 21.08     0.007 C 
HETATM   19  C15 BCR A 407     -32.620  27.357 -25.392  1.00 20.35     0.001 C 
HETATM   20  C16 BCR A 407     -32.926  27.139 -26.671  1.00 19.61     0.001 C 
HETATM   21  C17 BCR A 407     -32.127  26.204 -27.456  1.00 24.39     0.007 C 
HETATM   22  C18 BCR A 407     -32.382  25.912 -28.739  1.00 24.75    -0.062 C 
HETATM   23  C19 BCR A 407     -31.489  24.972 -29.460  1.00 22.75     0.007 C 
HETATM   24  C20 BCR A 407     -31.648  24.560 -30.719  1.00 20.02     0.001 C 
HETATM   25  C21 BCR A 407     -30.655  23.644 -31.273  1.00 24.21     0.007 C 
HETATM   26  C22 BCR A 407     -30.739  22.918 -32.401  1.00 23.81    -0.062 C 
HETATM   27  C23 BCR A 407     -29.590  22.054 -32.804  1.00 24.49     0.007 C 
HETATM   28  C24 BCR A 407     -29.591  21.233 -33.863  1.00 22.45     0.009 C 
HETATM   29  C25 BCR A 407     -28.450  20.384 -34.296  1.00 22.37    -0.048 C 
HETATM   30  C26 BCR A 407     -27.505  20.924 -35.076  1.00 25.07    -0.077 C 
HETATM   31  C27 BCR A 407     -26.400  20.086 -35.667  1.00 22.42     0.034 C 
HETATM   32  C28 BCR A 407     -25.937  19.069 -34.652  1.00 19.60     0.005 C 
HETATM   33  C29 BCR A 407     -27.087  18.180 -34.242  1.00 23.51     0.014 C 
HETATM   34  C30 BCR A 407     -28.396  18.912 -33.923  1.00 25.52    -0.020 C 
HETATM   35  C35 BCR A 407     -32.265  27.599 -22.504  1.00 19.07     0.048 C 
HETATM   36  C36 BCR A 407     -33.567  26.536 -29.403  1.00 14.49     0.048 C 
HETATM   37  C37 BCR A 407     -31.971  22.986 -33.241  1.00 19.80     0.048 C 
HETATM   38  C38 BCR A 407     -27.510  22.380 -35.418  1.00 20.56     0.044 C 
HETATM   39  C39 BCR A 407     -28.640  18.795 -32.435  1.00 27.97     0.020 C 
HETATM   40  C40 BCR A 407     -29.471  18.149 -34.658  1.00 17.98     0.020 C 
ENDROOT
TORSDOF 10
