REMARK  0 active torsions:
REMARK  status: ('A' for Active; 'I' for Inactive)
REMARK       I    between atoms: C6_6  and  C7_7 
REMARK       I    between atoms: C8_8  and  C9_9 
REMARK       I    between atoms: C10_10  and  C11_11 
REMARK       I    between atoms: C12_16  and  C13_17 
REMARK       I    between atoms: C14_18  and  C15_19 
REMARK       I    between atoms: C16_20  and  C17_21 
REMARK       I    between atoms: C18_22  and  C19_23 
REMARK       I    between atoms: C20_24  and  C21_25 
REMARK       I    between atoms: C22_26  and  C23_27 
REMARK       I    between atoms: C24_28  and  C25_29 
ROOT
HETATM    1  C1  BCR K 102     -45.259  79.264 -63.044  1.00 44.36    -0.020 C 
HETATM    2  C2  BCR K 102     -45.462  78.366 -64.253  1.00 45.66     0.014 C 
HETATM    3  C3  BCR K 102     -46.625  77.420 -64.062  1.00 45.76     0.005 C 
HETATM    4  C4  BCR K 102     -47.910  78.179 -63.803  1.00 46.84     0.034 C 
HETATM    5  C5  BCR K 102     -47.732  79.258 -62.768  1.00 45.49    -0.077 C 
HETATM    6  C6  BCR K 102     -46.533  79.598 -62.306  1.00 44.85    -0.048 C 
HETATM    7  C7  BCR K 102     -46.356  80.375 -61.068  1.00 41.42     0.009 C 
HETATM    8  C8  BCR K 102     -46.629  79.922 -59.853  1.00 39.50     0.007 C 
HETATM    9  C9  BCR K 102     -46.340  80.808 -58.715  1.00 44.88    -0.062 C 
HETATM   10  C10 BCR K 102     -45.961  80.246 -57.563  1.00 44.81     0.007 C 
HETATM   11  C11 BCR K 102     -45.577  80.966 -56.353  1.00 45.72     0.001 C 
HETATM   12  C33 BCR K 102     -48.964  79.964 -62.288  1.00 46.47     0.044 C 
HETATM   13  C31 BCR K 102     -44.631  80.570 -63.498  1.00 48.64     0.020 C 
HETATM   14  C32 BCR K 102     -44.328  78.573 -62.067  1.00 40.14     0.020 C 
HETATM   15  C34 BCR K 102     -46.441  82.291 -58.854  1.00 47.98     0.048 C 
HETATM   16  C12 BCR K 102     -45.148  80.180 -55.372  1.00 46.57     0.007 C 
HETATM   17  C13 BCR K 102     -44.639  80.621 -54.065  1.00 43.65    -0.062 C 
HETATM   18  C14 BCR K 102     -44.526  79.740 -53.061  1.00 41.27     0.007 C 
HETATM   19  C15 BCR K 102     -43.970  80.154 -51.781  1.00 46.01     0.001 C 
HETATM   20  C16 BCR K 102     -43.842  79.300 -50.769  1.00 47.96     0.001 C 
HETATM   21  C17 BCR K 102     -43.226  79.777 -49.534  1.00 48.87     0.007 C 
HETATM   22  C18 BCR K 102     -43.040  79.000 -48.457  1.00 44.87    -0.062 C 
HETATM   23  C19 BCR K 102     -42.372  79.564 -47.276  1.00 44.84     0.007 C 
HETATM   24  C20 BCR K 102     -42.028  78.797 -46.249  1.00 40.19     0.001 C 
HETATM   25  C21 BCR K 102     -41.336  79.450 -45.155  1.00 40.61     0.007 C 
HETATM   26  C22 BCR K 102     -40.566  78.775 -44.298  1.00 41.40    -0.062 C 
HETATM   27  C23 BCR K 102     -39.857  79.513 -43.242  1.00 40.78     0.007 C 
HETATM   28  C24 BCR K 102     -39.115  78.871 -42.352  1.00 40.34     0.009 C 
HETATM   29  C25 BCR K 102     -38.355  79.565 -41.298  1.00 39.31    -0.048 C 
HETATM   30  C26 BCR K 102     -38.931  80.122 -40.236  1.00 41.98    -0.077 C 
HETATM   31  C27 BCR K 102     -38.167  80.937 -39.226  1.00 42.86     0.034 C 
HETATM   32  C28 BCR K 102     -36.822  81.347 -39.783  1.00 43.57     0.005 C 
HETATM   33  C29 BCR K 102     -36.114  80.119 -40.314  1.00 41.79     0.014 C 
HETATM   34  C30 BCR K 102     -36.872  79.557 -41.497  1.00 41.39    -0.020 C 
HETATM   35  C35 BCR K 102     -44.188  82.032 -53.884  1.00 47.44     0.048 C 
HETATM   36  C36 BCR K 102     -43.476  77.571 -48.438  1.00 40.18     0.048 C 
HETATM   37  C37 BCR K 102     -40.403  77.293 -44.423  1.00 41.35     0.048 C 
HETATM   38  C38 BCR K 102     -40.392  79.935 -39.988  1.00 46.90     0.044 C 
HETATM   39  C39 BCR K 102     -36.500  78.103 -41.727  1.00 44.18     0.020 C 
HETATM   40  C40 BCR K 102     -36.536  80.352 -42.741  1.00 41.68     0.020 C 
ENDROOT
TORSDOF 10
