REMARK  0 active torsions:
REMARK  status: ('A' for Active; 'I' for Inactive)
REMARK       I    between atoms: C6_6  and  C7_7 
REMARK       I    between atoms: C8_8  and  C9_9 
REMARK       I    between atoms: C10_10  and  C11_11 
REMARK       I    between atoms: C12_16  and  C13_17 
REMARK       I    between atoms: C14_18  and  C15_19 
REMARK       I    between atoms: C16_20  and  C17_21 
REMARK       I    between atoms: C18_22  and  C19_23 
REMARK       I    between atoms: C20_24  and  C21_25 
REMARK       I    between atoms: C22_26  and  C23_27 
REMARK       I    between atoms: C24_28  and  C25_29 
ROOT
HETATM    1  C1  BCR D 404       8.947  71.528 -55.794  1.00 29.33    -0.020 C 
HETATM    2  C2  BCR D 404      10.083  70.559 -56.023  1.00 25.95     0.014 C 
HETATM    3  C3  BCR D 404       9.749  69.701 -57.222  1.00 26.55     0.005 C 
HETATM    4  C4  BCR D 404       8.617  68.781 -56.833  1.00 23.72     0.034 C 
HETATM    5  C5  BCR D 404       7.499  69.577 -56.215  1.00 25.63    -0.077 C 
HETATM    6  C6  BCR D 404       7.672  70.753 -55.604  1.00 23.11    -0.048 C 
HETATM    7  C7  BCR D 404       6.588  71.261 -54.732  1.00 27.25     0.009 C 
HETATM    8  C8  BCR D 404       5.555  72.034 -55.119  1.00 31.75     0.007 C 
HETATM    9  C9  BCR D 404       4.513  72.417 -54.134  1.00 30.45    -0.062 C 
HETATM   10  C10 BCR D 404       3.236  72.586 -54.533  1.00 28.92     0.007 C 
HETATM   11  C11 BCR D 404       2.113  72.916 -53.641  1.00 28.53     0.001 C 
HETATM   12  C33 BCR D 404       6.145  68.954 -56.299  1.00 27.97     0.044 C 
HETATM   13  C31 BCR D 404       8.830  72.437 -57.000  1.00 31.59     0.020 C 
HETATM   14  C32 BCR D 404       9.220  72.374 -54.565  1.00 33.86     0.020 C 
HETATM   15  C34 BCR D 404       4.877  72.602 -52.697  1.00 24.62     0.048 C 
HETATM   16  C12 BCR D 404       0.871  72.923 -54.157  1.00 31.92     0.007 C 
HETATM   17  C13 BCR D 404      -0.399  73.157 -53.419  1.00 28.09    -0.062 C 
HETATM   18  C14 BCR D 404      -1.581  73.000 -54.050  1.00 31.13     0.007 C 
HETATM   19  C15 BCR D 404      -2.872  73.140 -53.356  1.00 33.62     0.001 C 
HETATM   20  C16 BCR D 404      -3.979  72.621 -53.903  1.00 32.82     0.001 C 
HETATM   21  C17 BCR D 404      -5.283  72.643 -53.229  1.00 36.56     0.007 C 
HETATM   22  C18 BCR D 404      -6.425  72.214 -53.804  1.00 38.25    -0.062 C 
HETATM   23  C19 BCR D 404      -7.679  72.194 -53.019  1.00 39.93     0.007 C 
HETATM   24  C20 BCR D 404      -8.901  71.912 -53.476  1.00 37.81     0.001 C 
HETATM   25  C21 BCR D 404      -9.957  71.895 -52.462  1.00 37.37     0.007 C 
HETATM   26  C22 BCR D 404     -11.239  71.554 -52.669  1.00 39.01    -0.062 C 
HETATM   27  C23 BCR D 404     -12.149  71.532 -51.508  1.00 44.21     0.007 C 
HETATM   28  C24 BCR D 404     -13.070  70.570 -51.462  1.00 45.60     0.009 C 
HETATM   29  C25 BCR D 404     -14.022  70.381 -50.346  1.00 49.42    -0.048 C 
HETATM   30  C26 BCR D 404     -13.569  69.954 -49.172  1.00 50.69    -0.077 C 
HETATM   31  C27 BCR D 404     -14.204  70.375 -47.869  1.00 48.97     0.034 C 
HETATM   32  C28 BCR D 404     -15.686  70.671 -48.059  1.00 45.61     0.005 C 
HETATM   33  C29 BCR D 404     -16.223  70.015 -49.319  1.00 44.72     0.014 C 
HETATM   34  C30 BCR D 404     -15.501  70.583 -50.524  1.00 44.79    -0.020 C 
HETATM   35  C35 BCR D 404      -0.391  73.524 -51.972  1.00 26.94     0.048 C 
HETATM   36  C36 BCR D 404      -6.420  71.711 -55.211  1.00 35.64     0.048 C 
HETATM   37  C37 BCR D 404     -11.735  71.185 -54.031  1.00 34.59     0.048 C 
HETATM   38  C38 BCR D 404     -12.427  68.988 -49.140  1.00 46.70     0.044 C 
HETATM   39  C39 BCR D 404     -15.767  72.070 -50.630  1.00 50.31     0.020 C 
HETATM   40  C40 BCR D 404     -15.947  69.848 -51.776  1.00 44.71     0.020 C 
ENDROOT
TORSDOF 10
