REMARK  0 active torsions:
REMARK  status: ('A' for Active; 'I' for Inactive)
REMARK       I    between atoms: C6_6  and  C7_7 
REMARK       I    between atoms: C8_8  and  C9_9 
REMARK       I    between atoms: C10_10  and  C11_11 
REMARK       I    between atoms: C12_16  and  C13_17 
REMARK       I    between atoms: C14_18  and  C15_19 
REMARK       I    between atoms: C16_20  and  C17_21 
REMARK       I    between atoms: C18_22  and  C19_23 
REMARK       I    between atoms: C20_24  and  C21_25 
REMARK       I    between atoms: C22_26  and  C23_27 
REMARK       I    between atoms: C24_28  and  C25_29 
ROOT
HETATM    1  C1  BCR H 102      16.803 -51.220 163.446  1.00 28.14    -0.020 C 
HETATM    2  C2  BCR H 102      15.774 -51.722 162.470  1.00 33.62     0.014 C 
HETATM    3  C3  BCR H 102      15.956 -53.219 162.155  1.00 29.10     0.005 C 
HETATM    4  C4  BCR H 102      17.377 -53.589 161.696  1.00 27.97     0.034 C 
HETATM    5  C5  BCR H 102      18.470 -52.806 162.393  1.00 24.08    -0.077 C 
HETATM    6  C6  BCR H 102      18.240 -51.676 163.112  1.00 23.59    -0.048 C 
HETATM    7  C7  BCR H 102      19.347 -50.883 163.679  1.00 25.03     0.009 C 
HETATM    8  C8  BCR H 102      20.426 -51.403 164.245  1.00 25.08     0.007 C 
HETATM    9  C9  BCR H 102      21.443 -50.519 164.929  1.00 28.37    -0.062 C 
HETATM   10  C10 BCR H 102      22.397 -51.082 165.672  1.00 29.64     0.007 C 
HETATM   11  C11 BCR H 102      23.342 -50.410 166.552  1.00 28.00     0.001 C 
HETATM   12  C33 BCR H 102      19.853 -53.304 161.945  1.00 24.87     0.044 C 
HETATM   13  C31 BCR H 102      16.501 -51.785 164.839  1.00 29.74     0.020 C 
HETATM   14  C32 BCR H 102      16.607 -49.712 163.539  1.00 29.39     0.020 C 
HETATM   15  C34 BCR H 102      21.364 -49.013 164.780  1.00 29.30     0.048 C 
HETATM   16  C12 BCR H 102      23.915 -51.096 167.548  1.00 33.99     0.007 C 
HETATM   17  C13 BCR H 102      24.843 -50.474 168.558  1.00 31.24    -0.062 C 
HETATM   18  C14 BCR H 102      25.362 -51.236 169.561  1.00 30.81     0.007 C 
HETATM   19  C15 BCR H 102      26.228 -50.865 170.690  1.00 33.09     0.001 C 
HETATM   20  C16 BCR H 102      26.468 -51.800 171.646  1.00 34.61     0.001 C 
HETATM   21  C17 BCR H 102      27.293 -51.502 172.804  1.00 27.93     0.007 C 
HETATM   22  C18 BCR H 102      27.468 -52.365 173.848  1.00 34.07    -0.062 C 
HETATM   23  C19 BCR H 102      28.353 -51.868 174.933  1.00 31.80     0.007 C 
HETATM   24  C20 BCR H 102      28.776 -52.611 175.936  1.00 36.40     0.001 C 
HETATM   25  C21 BCR H 102      29.620 -52.026 176.958  1.00 43.19     0.007 C 
HETATM   26  C22 BCR H 102      29.906 -52.651 178.123  1.00 40.90    -0.062 C 
HETATM   27  C23 BCR H 102      30.764 -51.934 179.121  1.00 39.46     0.007 C 
HETATM   28  C24 BCR H 102      31.289 -52.581 180.167  1.00 42.36     0.009 C 
HETATM   29  C25 BCR H 102      32.300 -51.983 181.093  1.00 45.23    -0.048 C 
HETATM   30  C26 BCR H 102      32.226 -50.734 181.656  1.00 41.91    -0.077 C 
HETATM   31  C27 BCR H 102      33.313 -50.158 182.561  1.00 42.04     0.034 C 
HETATM   32  C28 BCR H 102      34.709 -50.857 182.576  1.00 45.21     0.005 C 
HETATM   33  C29 BCR H 102      34.386 -52.339 182.529  1.00 52.29     0.014 C 
HETATM   34  C30 BCR H 102      33.551 -52.827 181.319  1.00 51.33    -0.020 C 
HETATM   35  C35 BCR H 102      25.129 -49.016 168.433  1.00 31.82     0.048 C 
HETATM   36  C36 BCR H 102      26.791 -53.700 173.899  1.00 41.97     0.048 C 
HETATM   37  C37 BCR H 102      29.350 -54.040 178.357  1.00 55.92     0.048 C 
HETATM   38  C38 BCR H 102      30.951 -49.925 181.617  1.00 38.51     0.044 C 
HETATM   39  C39 BCR H 102      33.165 -54.306 181.545  1.00 45.00     0.020 C 
HETATM   40  C40 BCR H 102      34.398 -52.651 180.039  1.00 52.36     0.020 C 
ENDROOT
TORSDOF 10
