REMARK  0 active torsions:
REMARK  status: ('A' for Active; 'I' for Inactive)
REMARK       I    between atoms: C6_6  and  C7_7 
REMARK       I    between atoms: C8_8  and  C9_9 
REMARK       I    between atoms: C10_10  and  C11_11 
REMARK       I    between atoms: C12_16  and  C13_17 
REMARK       I    between atoms: C14_18  and  C15_19 
REMARK       I    between atoms: C16_20  and  C17_21 
REMARK       I    between atoms: C18_22  and  C19_23 
REMARK       I    between atoms: C20_24  and  C21_25 
REMARK       I    between atoms: C22_26  and  C23_27 
REMARK       I    between atoms: C24_28  and  C25_29 
ROOT
HETATM    1  C1  BCR T 102     -37.639 -32.856 166.883  1.00 40.91    -0.020 C 
HETATM    2  C2  BCR T 102     -38.013 -34.333 167.117  1.00 42.83     0.014 C 
HETATM    3  C3  BCR T 102     -39.338 -34.512 167.827  1.00 43.41     0.005 C 
HETATM    4  C4  BCR T 102     -40.495 -33.864 167.096  1.00 42.59     0.034 C 
HETATM    5  C5  BCR T 102     -40.113 -32.578 166.426  1.00 42.61    -0.077 C 
HETATM    6  C6  BCR T 102     -38.867 -32.055 166.480  1.00 35.94    -0.048 C 
HETATM    7  C7  BCR T 102     -38.733 -30.608 166.114  1.00 34.50     0.009 C 
HETATM    8  C8  BCR T 102     -37.594 -29.884 165.986  1.00 37.29     0.007 C 
HETATM    9  C9  BCR T 102     -37.674 -28.452 165.614  1.00 41.60    -0.062 C 
HETATM   10  C10 BCR T 102     -36.528 -27.745 165.667  1.00 39.53     0.007 C 
HETATM   11  C11 BCR T 102     -36.352 -26.330 165.393  1.00 43.83     0.001 C 
HETATM   12  C33 BCR T 102     -41.243 -31.913 165.655  1.00 45.40     0.044 C 
HETATM   13  C31 BCR T 102     -36.504 -32.816 165.857  1.00 37.85     0.020 C 
HETATM   14  C32 BCR T 102     -37.048 -32.297 168.189  1.00 60.03     0.020 C 
HETATM   15  C34 BCR T 102     -39.016 -27.887 165.207  1.00 48.02     0.048 C 
HETATM   16  C12 BCR T 102     -35.093 -25.829 165.432  1.00 42.34     0.007 C 
HETATM   17  C13 BCR T 102     -34.883 -24.365 165.273  1.00 40.69    -0.062 C 
HETATM   18  C14 BCR T 102     -33.710 -23.895 165.670  1.00 29.64     0.007 C 
HETATM   19  C15 BCR T 102     -33.291 -22.458 165.673  1.00 30.65     0.001 C 
HETATM   20  C16 BCR T 102     -32.031 -22.057 165.796  1.00 29.14     0.001 C 
HETATM   21  C17 BCR T 102     -31.741 -20.602 165.825  1.00 27.42     0.007 C 
HETATM   22  C18 BCR T 102     -30.484 -20.099 165.924  1.00 26.54    -0.062 C 
HETATM   23  C19 BCR T 102     -30.437 -18.638 166.061  1.00 26.35     0.007 C 
HETATM   24  C20 BCR T 102     -29.365 -17.905 166.395  1.00 24.12     0.001 C 
HETATM   25  C21 BCR T 102     -29.558 -16.468 166.636  1.00 23.80     0.007 C 
HETATM   26  C22 BCR T 102     -28.511 -15.677 167.070  1.00 24.83    -0.062 C 
HETATM   27  C23 BCR T 102     -28.827 -14.303 167.404  1.00 23.10     0.007 C 
HETATM   28  C24 BCR T 102     -28.013 -13.493 168.072  1.00 25.94     0.009 C 
HETATM   29  C25 BCR T 102     -28.420 -12.129 168.490  1.00 27.33    -0.048 C 
HETATM   30  C26 BCR T 102     -29.352 -11.398 167.874  1.00 21.96    -0.077 C 
HETATM   31  C27 BCR T 102     -29.990 -10.142 168.452  1.00 23.66     0.034 C 
HETATM   32  C28 BCR T 102     -29.539  -9.916 169.885  1.00 20.98     0.005 C 
HETATM   33  C29 BCR T 102     -28.059 -10.161 170.019  1.00 26.12     0.014 C 
HETATM   34  C30 BCR T 102     -27.719 -11.615 169.727  1.00 28.84    -0.020 C 
HETATM   35  C35 BCR T 102     -35.995 -23.466 164.879  1.00 45.71     0.048 C 
HETATM   36  C36 BCR T 102     -29.229 -20.958 166.026  1.00 29.58     0.048 C 
HETATM   37  C37 BCR T 102     -27.106 -16.173 167.204  1.00 29.24     0.048 C 
HETATM   38  C38 BCR T 102     -29.791 -11.664 166.502  1.00 24.32     0.044 C 
HETATM   39  C39 BCR T 102     -28.231 -12.482 170.892  1.00 27.10     0.020 C 
HETATM   40  C40 BCR T 102     -26.202 -11.658 169.623  1.00 29.40     0.020 C 
ENDROOT
TORSDOF 10
