REMARK  0 active torsions:
REMARK  status: ('A' for Active; 'I' for Inactive)
REMARK       I    between atoms: C6_6  and  C7_7 
REMARK       I    between atoms: C8_8  and  C9_9 
REMARK       I    between atoms: C10_10  and  C11_11 
REMARK       I    between atoms: C12_16  and  C13_17 
REMARK       I    between atoms: C14_18  and  C15_19 
REMARK       I    between atoms: C16_20  and  C17_21 
REMARK       I    between atoms: C18_22  and  C19_23 
REMARK       I    between atoms: C20_24  and  C21_25 
REMARK       I    between atoms: C22_26  and  C23_27 
REMARK       I    between atoms: C24_28  and  C25_29 
ROOT
HETATM    1  C1  BCR C 525     -37.680 -79.589 215.314  1.00 33.72    -0.020 C 
HETATM    2  C2  BCR C 525     -37.554 -78.960 216.690  1.00 38.03     0.014 C 
HETATM    3  C3  BCR C 525     -38.684 -78.020 216.986  1.00 36.23     0.005 C 
HETATM    4  C4  BCR C 525     -40.012 -78.740 216.927  1.00 39.77     0.034 C 
HETATM    5  C5  BCR C 525     -40.106 -79.751 215.823  1.00 35.72    -0.077 C 
HETATM    6  C6  BCR C 525     -39.061 -80.126 215.070  1.00 34.48    -0.048 C 
HETATM    7  C7  BCR C 525     -39.199 -80.926 213.853  1.00 34.77     0.009 C 
HETATM    8  C8  BCR C 525     -40.215 -80.752 212.986  1.00 34.00     0.007 C 
HETATM    9  C9  BCR C 525     -40.118 -81.477 211.677  1.00 30.34    -0.062 C 
HETATM   10  C10 BCR C 525     -40.665 -80.969 210.548  1.00 29.43     0.007 C 
HETATM   11  C11 BCR C 525     -40.487 -81.549 209.196  1.00 32.78     0.001 C 
HETATM   12  C33 BCR C 525     -41.428 -80.459 215.765  1.00 40.94     0.044 C 
HETATM   13  C31 BCR C 525     -36.634 -80.654 215.233  1.00 36.12     0.020 C 
HETATM   14  C32 BCR C 525     -37.455 -78.556 214.184  1.00 41.14     0.020 C 
HETATM   15  C34 BCR C 525     -39.343 -82.811 211.636  1.00 36.22     0.048 C 
HETATM   16  C12 BCR C 525     -40.873 -80.875 208.114  1.00 35.35     0.007 C 
HETATM   17  C13 BCR C 525     -40.656 -81.341 206.710  1.00 35.17    -0.062 C 
HETATM   18  C14 BCR C 525     -41.015 -80.483 205.721  1.00 38.14     0.007 C 
HETATM   19  C15 BCR C 525     -40.898 -80.700 204.253  1.00 38.44     0.001 C 
HETATM   20  C16 BCR C 525     -41.223 -79.765 203.327  1.00 34.38     0.001 C 
HETATM   21  C17 BCR C 525     -41.077 -80.111 201.902  1.00 32.72     0.007 C 
HETATM   22  C18 BCR C 525     -41.321 -79.237 200.877  1.00 31.75    -0.062 C 
HETATM   23  C19 BCR C 525     -41.114 -79.705 199.477  1.00 30.37     0.007 C 
HETATM   24  C20 BCR C 525     -41.069 -78.955 198.382  1.00 31.00     0.001 C 
HETATM   25  C21 BCR C 525     -40.789 -79.506 197.072  1.00 32.98     0.007 C 
HETATM   26  C22 BCR C 525     -40.467 -78.736 196.015  1.00 31.86    -0.062 C 
HETATM   27  C23 BCR C 525     -40.110 -79.432 194.742  1.00 30.56     0.007 C 
HETATM   28  C24 BCR C 525     -39.635 -78.751 193.712  1.00 32.87     0.009 C 
HETATM   29  C25 BCR C 525     -39.172 -79.415 192.480  1.00 28.40    -0.048 C 
HETATM   30  C26 BCR C 525     -40.005 -80.211 191.784  1.00 28.90    -0.077 C 
HETATM   31  C27 BCR C 525     -39.659 -80.855 190.486  1.00 26.86     0.034 C 
HETATM   32  C28 BCR C 525     -38.155 -80.884 190.206  1.00 30.07     0.005 C 
HETATM   33  C29 BCR C 525     -37.533 -79.554 190.616  1.00 34.82     0.014 C 
HETATM   34  C30 BCR C 525     -37.735 -79.218 192.090  1.00 28.48    -0.020 C 
HETATM   35  C35 BCR C 525     -40.029 -82.683 206.466  1.00 34.46     0.048 C 
HETATM   36  C36 BCR C 525     -41.806 -77.827 201.161  1.00 34.73     0.048 C 
HETATM   37  C37 BCR C 525     -40.502 -77.201 196.151  1.00 33.41     0.048 C 
HETATM   38  C38 BCR C 525     -41.458 -80.265 192.099  1.00 28.85     0.044 C 
HETATM   39  C39 BCR C 525     -37.367 -77.730 192.222  1.00 33.24     0.020 C 
HETATM   40  C40 BCR C 525     -36.877 -80.085 193.007  1.00 27.05     0.020 C 
ENDROOT
TORSDOF 10
