REMARK  0 active torsions:
REMARK  status: ('A' for Active; 'I' for Inactive)
REMARK       I    between atoms: C6_6  and  C7_7 
REMARK       I    between atoms: C8_8  and  C9_9 
REMARK       I    between atoms: C10_10  and  C11_11 
REMARK       I    between atoms: C12_16  and  C13_17 
REMARK       I    between atoms: C14_18  and  C15_19 
REMARK       I    between atoms: C16_20  and  C17_21 
REMARK       I    between atoms: C18_22  and  C19_23 
REMARK       I    between atoms: C20_24  and  C21_25 
REMARK       I    between atoms: C22_26  and  C23_27 
REMARK       I    between atoms: C24_28  and  C25_29 
ROOT
HETATM    1  C1  BCR C 514     -46.741 -77.483 219.725  1.00 35.58    -0.020 C 
HETATM    2  C2  BCR C 514     -45.628 -77.529 220.717  1.00 41.22     0.014 C 
HETATM    3  C3  BCR C 514     -44.262 -77.699 220.119  1.00 43.51     0.005 C 
HETATM    4  C4  BCR C 514     -44.171 -78.886 219.197  1.00 41.68     0.034 C 
HETATM    5  C5  BCR C 514     -45.437 -79.181 218.425  1.00 42.53    -0.077 C 
HETATM    6  C6  BCR C 514     -46.631 -78.589 218.702  1.00 37.16    -0.048 C 
HETATM    7  C7  BCR C 514     -47.840 -78.923 217.933  1.00 40.52     0.009 C 
HETATM    8  C8  BCR C 514     -47.832 -78.708 216.604  1.00 40.92     0.007 C 
HETATM    9  C9  BCR C 514     -49.095 -78.931 215.808  1.00 42.01    -0.062 C 
HETATM   10  C10 BCR C 514     -49.077 -78.668 214.529  1.00 37.28     0.007 C 
HETATM   11  C11 BCR C 514     -50.238 -78.883 213.647  1.00 41.23     0.001 C 
HETATM   12  C33 BCR C 514     -45.274 -80.347 217.499  1.00 40.30     0.044 C 
HETATM   13  C31 BCR C 514     -46.602 -76.185 218.940  1.00 39.42     0.020 C 
HETATM   14  C32 BCR C 514     -48.056 -77.615 220.533  1.00 41.23     0.020 C 
HETATM   15  C34 BCR C 514     -50.328 -79.532 216.451  1.00 46.73     0.048 C 
HETATM   16  C12 BCR C 514     -50.138 -78.654 212.337  1.00 43.50     0.007 C 
HETATM   17  C13 BCR C 514     -51.213 -78.889 211.371  1.00 41.12    -0.062 C 
HETATM   18  C14 BCR C 514     -50.992 -78.582 210.071  1.00 37.55     0.007 C 
HETATM   19  C15 BCR C 514     -51.988 -78.782 208.970  1.00 39.88     0.001 C 
HETATM   20  C16 BCR C 514     -51.712 -78.381 207.726  1.00 39.12     0.001 C 
HETATM   21  C17 BCR C 514     -52.644 -78.572 206.621  1.00 41.68     0.007 C 
HETATM   22  C18 BCR C 514     -52.584 -78.092 205.346  1.00 39.37    -0.062 C 
HETATM   23  C19 BCR C 514     -53.693 -78.419 204.396  1.00 44.12     0.007 C 
HETATM   24  C20 BCR C 514     -53.778 -77.959 203.127  1.00 37.68     0.001 C 
HETATM   25  C21 BCR C 514     -54.937 -78.338 202.286  1.00 39.34     0.007 C 
HETATM   26  C22 BCR C 514     -55.162 -77.755 201.072  1.00 42.90    -0.062 C 
HETATM   27  C23 BCR C 514     -56.373 -78.207 200.325  1.00 39.44     0.007 C 
HETATM   28  C24 BCR C 514     -56.712 -77.579 199.138  1.00 55.37     0.009 C 
HETATM   29  C25 BCR C 514     -57.995 -78.040 198.553  1.00 47.75    -0.048 C 
HETATM   30  C26 BCR C 514     -58.300 -79.323 198.518  1.00 47.05    -0.077 C 
HETATM   31  C27 BCR C 514     -59.724 -79.765 198.527  1.00 57.69     0.034 C 
HETATM   32  C28 BCR C 514     -60.377 -79.124 197.353  1.00 50.11     0.005 C 
HETATM   33  C29 BCR C 514     -60.156 -77.619 197.302  1.00 48.72     0.014 C 
HETATM   34  C30 BCR C 514     -59.052 -77.048 198.181  1.00 46.83    -0.020 C 
HETATM   35  C35 BCR C 514     -52.468 -79.552 211.856  1.00 42.11     0.048 C 
HETATM   36  C36 BCR C 514     -51.411 -77.292 204.884  1.00 38.24     0.048 C 
HETATM   37  C37 BCR C 514     -54.184 -76.775 200.476  1.00 31.50     0.048 C 
HETATM   38  C38 BCR C 514     -57.327 -80.426 198.355  1.00 38.56     0.044 C 
HETATM   39  C39 BCR C 514     -59.658 -76.561 199.511  1.00 46.44     0.020 C 
HETATM   40  C40 BCR C 514     -58.378 -75.882 197.472  1.00 48.77     0.020 C 
ENDROOT
TORSDOF 10
