REMARK  0 active torsions:
REMARK  status: ('A' for Active; 'I' for Inactive)
REMARK       I    between atoms: C6_6  and  C7_7 
REMARK       I    between atoms: C8_8  and  C9_9 
REMARK       I    between atoms: C10_10  and  C11_11 
REMARK       I    between atoms: C12_16  and  C13_17 
REMARK       I    between atoms: C14_18  and  C15_19 
REMARK       I    between atoms: C16_20  and  C17_21 
REMARK       I    between atoms: C18_22  and  C19_23 
REMARK       I    between atoms: C20_24  and  C21_25 
REMARK       I    between atoms: C22_26  and  C23_27 
REMARK       I    between atoms: C24_28  and  C25_29 
ROOT
HETATM    1  C1  BCR B 618       4.776 -19.322 -26.124  1.00 52.27    -0.020 C 
HETATM    2  C2  BCR B 618       5.616 -18.933 -27.340  1.00 40.31     0.014 C 
HETATM    3  C3  BCR B 618       7.095 -19.231 -27.137  1.00 36.34     0.005 C 
HETATM    4  C4  BCR B 618       7.627 -18.435 -25.958  1.00 43.90     0.034 C 
HETATM    5  C5  BCR B 618       6.705 -18.494 -24.757  1.00 42.39    -0.077 C 
HETATM    6  C6  BCR B 618       5.424 -18.889 -24.821  1.00 41.32    -0.048 C 
HETATM    7  C7  BCR B 618       4.625 -18.892 -23.570  1.00 37.02     0.009 C 
HETATM    8  C8  BCR B 618       4.563 -19.941 -22.737  1.00 40.38     0.007 C 
HETATM    9  C9  BCR B 618       3.767 -19.884 -21.485  1.00 43.44    -0.062 C 
HETATM   10  C10 BCR B 618       3.895 -20.864 -20.575  1.00 33.05     0.007 C 
HETATM   11  C11 BCR B 618       3.188 -20.903 -19.288  1.00 38.44     0.001 C 
HETATM   12  C33 BCR B 618       7.274 -18.075 -23.440  1.00 43.01     0.044 C 
HETATM   13  C31 BCR B 618       4.595 -20.838 -26.073  1.00 47.24     0.020 C 
HETATM   14  C32 BCR B 618       3.423 -18.626 -26.250  1.00 46.10     0.020 C 
HETATM   15  C34 BCR B 618       2.833 -18.744 -21.227  1.00 38.09     0.048 C 
HETATM   16  C12 BCR B 618       3.342 -21.998 -18.530  1.00 45.48     0.007 C 
HETATM   17  C13 BCR B 618       2.725 -22.132 -17.194  1.00 46.67    -0.062 C 
HETATM   18  C14 BCR B 618       2.935 -23.266 -16.475  1.00 36.87     0.007 C 
HETATM   19  C15 BCR B 618       2.393 -23.502 -15.127  1.00 33.54     0.001 C 
HETATM   20  C16 BCR B 618       2.888 -24.465 -14.338  1.00 30.58     0.001 C 
HETATM   21  C17 BCR B 618       2.366 -24.702 -12.972  1.00 36.03     0.007 C 
HETATM   22  C18 BCR B 618       2.752 -25.731 -12.179  1.00 37.55    -0.062 C 
HETATM   23  C19 BCR B 618       2.154 -25.864 -10.821  1.00 41.57     0.007 C 
HETATM   24  C20 BCR B 618       2.565 -26.676  -9.833  1.00 44.50     0.001 C 
HETATM   25  C21 BCR B 618       1.811 -26.613  -8.567  1.00 27.16     0.007 C 
HETATM   26  C22 BCR B 618       2.171 -27.159  -7.383  1.00 45.91    -0.062 C 
HETATM   27  C23 BCR B 618       1.357 -26.994  -6.307  1.00 42.15     0.007 C 
HETATM   28  C24 BCR B 618       1.730 -27.400  -5.083  1.00 36.90     0.009 C 
HETATM   29  C25 BCR B 618       0.931 -27.284  -3.836  1.00 40.99    -0.048 C 
HETATM   30  C26 BCR B 618       0.611 -26.076  -3.303  1.00 43.47    -0.077 C 
HETATM   31  C27 BCR B 618      -0.192 -25.942  -2.024  1.00 44.02     0.034 C 
HETATM   32  C28 BCR B 618      -0.216 -27.243  -1.228  1.00 46.97     0.005 C 
HETATM   33  C29 BCR B 618      -0.549 -28.438  -2.112  1.00 50.46     0.014 C 
HETATM   34  C30 BCR B 618       0.522 -28.615  -3.180  1.00 44.40    -0.020 C 
HETATM   35  C35 BCR B 618       1.944 -20.961 -16.666  1.00 29.80     0.048 C 
HETATM   36  C36 BCR B 618       3.765 -26.733 -12.654  1.00 38.94     0.048 C 
HETATM   37  C37 BCR B 618       3.435 -27.969  -7.244  1.00 32.34     0.048 C 
HETATM   38  C38 BCR B 618       1.011 -24.766  -3.932  1.00 35.16     0.044 C 
HETATM   39  C39 BCR B 618       0.002 -29.586  -4.234  1.00 36.65     0.020 C 
HETATM   40  C40 BCR B 618       1.722 -29.302  -2.545  1.00 45.60     0.020 C 
ENDROOT
TORSDOF 10
