REMARK  0 active torsions:
REMARK  status: ('A' for Active; 'I' for Inactive)
REMARK       I    between atoms: C6_6  and  C7_7 
REMARK       I    between atoms: C8_8  and  C9_9 
REMARK       I    between atoms: C10_10  and  C11_11 
REMARK       I    between atoms: C12_16  and  C13_17 
REMARK       I    between atoms: C14_18  and  C15_19 
REMARK       I    between atoms: C16_20  and  C17_21 
REMARK       I    between atoms: C18_22  and  C19_23 
REMARK       I    between atoms: C20_24  and  C21_25 
REMARK       I    between atoms: C22_26  and  C23_27 
REMARK       I    between atoms: C24_28  and  C25_29 
ROOT
HETATM    1  C1  BCR C 515      46.761 -77.309 -76.814  1.00 64.45    -0.020 C 
HETATM    2  C2  BCR C 515      45.591 -77.272 -77.783  1.00 66.34     0.014 C 
HETATM    3  C3  BCR C 515      44.280 -77.396 -77.029  1.00 64.94     0.005 C 
HETATM    4  C4  BCR C 515      44.208 -78.775 -76.402  1.00 69.15     0.034 C 
HETATM    5  C5  BCR C 515      45.448 -79.059 -75.579  1.00 67.88    -0.077 C 
HETATM    6  C6  BCR C 515      46.610 -78.398 -75.765  1.00 62.48    -0.048 C 
HETATM    7  C7  BCR C 515      47.791 -78.738 -74.927  1.00 58.32     0.009 C 
HETATM    8  C8  BCR C 515      47.977 -78.274 -73.685  1.00 62.07     0.007 C 
HETATM    9  C9  BCR C 515      49.172 -78.670 -72.906  1.00 70.38    -0.062 C 
HETATM   10  C10 BCR C 515      49.217 -78.391 -71.589  1.00 58.20     0.007 C 
HETATM   11  C11 BCR C 515      50.332 -78.734 -70.698  1.00 74.05     0.001 C 
HETATM   12  C33 BCR C 515      45.331 -80.133 -74.532  1.00 58.01     0.044 C 
HETATM   13  C31 BCR C 515      46.833 -75.952 -76.127  1.00 56.77     0.020 C 
HETATM   14  C32 BCR C 515      48.047 -77.568 -77.589  1.00 77.72     0.020 C 
HETATM   15  C34 BCR C 515      50.302 -79.386 -73.593  1.00 64.61     0.048 C 
HETATM   16  C12 BCR C 515      50.263 -78.356 -69.413  1.00 68.22     0.007 C 
HETATM   17  C13 BCR C 515      51.322 -78.655 -68.422  1.00 69.92    -0.062 C 
HETATM   18  C14 BCR C 515      51.166 -78.246 -67.147  1.00 61.13     0.007 C 
HETATM   19  C15 BCR C 515      52.178 -78.519 -66.119  1.00 67.07     0.001 C 
HETATM   20  C16 BCR C 515      51.951 -78.259 -64.829  1.00 65.97     0.001 C 
HETATM   21  C17 BCR C 515      52.984 -78.540 -63.828  1.00 63.92     0.007 C 
HETATM   22  C18 BCR C 515      52.879 -78.101 -62.557  1.00 72.24    -0.062 C 
HETATM   23  C19 BCR C 515      53.958 -78.388 -61.583  1.00 72.11     0.007 C 
HETATM   24  C20 BCR C 515      53.958 -77.882 -60.346  1.00 62.37     0.001 C 
HETATM   25  C21 BCR C 515      55.092 -78.202 -59.479  1.00 64.97     0.007 C 
HETATM   26  C22 BCR C 515      55.368 -77.546 -58.332  1.00 64.05    -0.062 C 
HETATM   27  C23 BCR C 515      56.457 -77.942 -57.648  1.00 66.35     0.007 C 
HETATM   28  C24 BCR C 515      56.786 -77.589 -56.399  1.00 62.33     0.009 C 
HETATM   29  C25 BCR C 515      58.015 -78.116 -55.730  1.00 72.77    -0.048 C 
HETATM   30  C26 BCR C 515      58.139 -79.424 -55.413  1.00 78.06    -0.077 C 
HETATM   31  C27 BCR C 515      59.365 -79.997 -54.732  1.00 80.00     0.034 C 
HETATM   32  C28 BCR C 515      60.557 -79.065 -54.830  1.00 71.02     0.005 C 
HETATM   33  C29 BCR C 515      60.105 -77.687 -54.395  1.00 72.75     0.014 C 
HETATM   34  C30 BCR C 515      59.123 -77.131 -55.410  1.00 66.18    -0.020 C 
HETATM   35  C35 BCR C 515      52.554 -79.417 -68.825  1.00 51.91     0.048 C 
HETATM   36  C36 BCR C 515      51.693 -77.284 -62.132  1.00 60.56     0.048 C 
HETATM   37  C37 BCR C 515      54.482 -76.436 -57.840  1.00 49.66     0.048 C 
HETATM   38  C38 BCR C 515      57.055 -80.419 -55.713  1.00 83.49     0.044 C 
HETATM   39  C39 BCR C 515      59.872 -76.805 -56.696  1.00 61.85     0.020 C 
HETATM   40  C40 BCR C 515      58.495 -75.879 -54.818  1.00 69.80     0.020 C 
ENDROOT
TORSDOF 10
