REMARK  0 active torsions:
REMARK  status: ('A' for Active; 'I' for Inactive)
REMARK       I    between atoms: C6_6  and  C7_7 
REMARK       I    between atoms: C8_8  and  C9_9 
REMARK       I    between atoms: C10_10  and  C11_11 
REMARK       I    between atoms: C12_16  and  C13_17 
REMARK       I    between atoms: C14_18  and  C15_19 
REMARK       I    between atoms: C16_20  and  C17_21 
REMARK       I    between atoms: C18_22  and  C19_23 
REMARK       I    between atoms: C20_24  and  C21_25 
REMARK       I    between atoms: C22_26  and  C23_27 
REMARK       I    between atoms: C24_28  and  C25_29 
ROOT
HETATM    1  C1  BCR A 410      50.976 -35.537 -27.833  1.00 50.64    -0.020 C 
HETATM    2  C2  BCR A 410      52.168 -36.443 -27.561  1.00 44.64     0.014 C 
HETATM    3  C3  BCR A 410      53.253 -36.182 -28.582  1.00 41.78     0.005 C 
HETATM    4  C4  BCR A 410      53.806 -34.798 -28.327  1.00 42.03     0.034 C 
HETATM    5  C5  BCR A 410      52.687 -33.781 -28.334  1.00 39.65    -0.077 C 
HETATM    6  C6  BCR A 410      51.397 -34.107 -28.118  1.00 44.55    -0.048 C 
HETATM    7  C7  BCR A 410      50.327 -33.068 -28.134  1.00 44.34     0.009 C 
HETATM    8  C8  BCR A 410      49.994 -32.430 -29.264  1.00 45.94     0.007 C 
HETATM    9  C9  BCR A 410      48.939 -31.402 -29.367  1.00 39.93    -0.062 C 
HETATM   10  C10 BCR A 410      48.729 -30.823 -30.563  1.00 44.48     0.007 C 
HETATM   11  C11 BCR A 410      47.709 -29.812 -30.838  1.00 36.88     0.001 C 
HETATM   12  C33 BCR A 410      53.111 -32.372 -28.593  1.00 34.70     0.044 C 
HETATM   13  C31 BCR A 410      50.076 -35.538 -26.602  1.00 36.72     0.020 C 
HETATM   14  C32 BCR A 410      50.225 -36.116 -29.028  1.00 32.71     0.020 C 
HETATM   15  C34 BCR A 410      48.119 -31.030 -28.168  1.00 43.39     0.048 C 
HETATM   16  C12 BCR A 410      47.616 -29.322 -32.082  1.00 44.33     0.007 C 
HETATM   17  C13 BCR A 410      46.605 -28.321 -32.500  1.00 40.83    -0.062 C 
HETATM   18  C14 BCR A 410      46.482 -28.041 -33.823  1.00 44.56     0.007 C 
HETATM   19  C15 BCR A 410      45.510 -27.102 -34.415  1.00 44.82     0.001 C 
HETATM   20  C16 BCR A 410      45.482 -26.846 -35.741  1.00 40.83     0.001 C 
HETATM   21  C17 BCR A 410      44.471 -25.934 -36.302  1.00 39.03     0.007 C 
HETATM   22  C18 BCR A 410      44.286 -25.609 -37.609  1.00 45.07    -0.062 C 
HETATM   23  C19 BCR A 410      43.177 -24.683 -37.942  1.00 37.89     0.007 C 
HETATM   24  C20 BCR A 410      43.003 -24.094 -39.128  1.00 33.16     0.001 C 
HETATM   25  C21 BCR A 410      41.848 -23.189 -39.270  1.00 38.89     0.007 C 
HETATM   26  C22 BCR A 410      41.721 -22.262 -40.244  1.00 47.65    -0.062 C 
HETATM   27  C23 BCR A 410      40.619 -21.465 -40.291  1.00 36.20     0.007 C 
HETATM   28  C24 BCR A 410      40.395 -20.598 -41.288  1.00 32.05     0.009 C 
HETATM   29  C25 BCR A 410      39.204 -19.702 -41.423  1.00 34.54    -0.048 C 
HETATM   30  C26 BCR A 410      37.966 -20.212 -41.638  1.00 38.36    -0.077 C 
HETATM   31  C27 BCR A 410      36.737 -19.331 -41.781  1.00 39.17     0.034 C 
HETATM   32  C28 BCR A 410      36.962 -17.917 -41.237  1.00 35.95     0.005 C 
HETATM   33  C29 BCR A 410      38.252 -17.393 -41.845  1.00 35.50     0.014 C 
HETATM   34  C30 BCR A 410      39.441 -18.199 -41.336  1.00 37.31    -0.020 C 
HETATM   35  C35 BCR A 410      45.747 -27.657 -31.454  1.00 35.03     0.048 C 
HETATM   36  C36 BCR A 410      45.155 -26.136 -38.714  1.00 40.96     0.048 C 
HETATM   37  C37 BCR A 410      42.802 -22.129 -41.273  1.00 31.89     0.048 C 
HETATM   38  C38 BCR A 410      37.735 -21.701 -41.743  1.00 30.43     0.044 C 
HETATM   39  C39 BCR A 410      39.715 -17.789 -39.890  1.00 34.95     0.020 C 
HETATM   40  C40 BCR A 410      40.640 -17.848 -42.208  1.00 30.42     0.020 C 
ENDROOT
TORSDOF 10
