REMARK  0 active torsions:
REMARK  status: ('A' for Active; 'I' for Inactive)
REMARK       I    between atoms: C6_6  and  C7_7 
REMARK       I    between atoms: C8_8  and  C9_9 
REMARK       I    between atoms: C10_10  and  C11_11 
REMARK       I    between atoms: C12_16  and  C13_17 
REMARK       I    between atoms: C14_18  and  C15_19 
REMARK       I    between atoms: C16_20  and  C17_21 
REMARK       I    between atoms: C18_22  and  C19_23 
REMARK       I    between atoms: C20_24  and  C21_25 
REMARK       I    between atoms: C22_26  and  C23_27 
REMARK       I    between atoms: C24_28  and  C25_29 
ROOT
HETATM    1  C1  BCR K 101      37.959 -79.251 -72.481  1.00 61.74    -0.020 C 
HETATM    2  C2  BCR K 101      37.908 -78.415 -73.759  1.00 63.47     0.014 C 
HETATM    3  C3  BCR K 101      39.260 -77.827 -74.111  1.00 57.51     0.005 C 
HETATM    4  C4  BCR K 101      40.240 -78.960 -74.341  1.00 60.11     0.034 C 
HETATM    5  C5  BCR K 101      40.318 -79.830 -73.108  1.00 59.07    -0.077 C 
HETATM    6  C6  BCR K 101      39.283 -79.963 -72.266  1.00 62.21    -0.048 C 
HETATM    7  C7  BCR K 101      39.358 -80.821 -71.058  1.00 58.73     0.009 C 
HETATM    8  C8  BCR K 101      40.077 -80.498 -69.985  1.00 55.67     0.007 C 
HETATM    9  C9  BCR K 101      40.080 -81.355 -68.788  1.00 52.89    -0.062 C 
HETATM   10  C10 BCR K 101      40.440 -80.784 -67.622  1.00 55.14     0.007 C 
HETATM   11  C11 BCR K 101      40.454 -81.454 -66.322  1.00 61.50     0.001 C 
HETATM   12  C33 BCR K 101      41.611 -80.549 -72.866  1.00 62.66     0.044 C 
HETATM   13  C31 BCR K 101      36.833 -80.273 -72.551  1.00 50.75     0.020 C 
HETATM   14  C32 BCR K 101      37.737 -78.346 -71.272  1.00 48.41     0.020 C 
HETATM   15  C34 BCR K 101      39.687 -82.797 -68.876  1.00 53.75     0.048 C 
HETATM   16  C12 BCR K 101      40.701 -80.685 -65.258  1.00 59.30     0.007 C 
HETATM   17  C13 BCR K 101      40.688 -81.151 -63.854  1.00 63.72    -0.062 C 
HETATM   18  C14 BCR K 101      40.970 -80.267 -62.869  1.00 56.40     0.007 C 
HETATM   19  C15 BCR K 101      40.920 -80.598 -61.443  1.00 52.49     0.001 C 
HETATM   20  C16 BCR K 101      41.220 -79.703 -60.493  1.00 54.34     0.001 C 
HETATM   21  C17 BCR K 101      41.099 -80.068 -59.076  1.00 49.34     0.007 C 
HETATM   22  C18 BCR K 101      41.356 -79.221 -58.057  1.00 62.88    -0.062 C 
HETATM   23  C19 BCR K 101      41.135 -79.691 -56.661  1.00 60.90     0.007 C 
HETATM   24  C20 BCR K 101      40.974 -78.855 -55.628  1.00 51.07     0.001 C 
HETATM   25  C21 BCR K 101      40.711 -79.406 -54.294  1.00 47.75     0.007 C 
HETATM   26  C22 BCR K 101      40.388 -78.687 -53.204  1.00 48.45    -0.062 C 
HETATM   27  C23 BCR K 101      40.142 -79.331 -52.039  1.00 53.56     0.007 C 
HETATM   28  C24 BCR K 101      39.714 -78.681 -50.937  1.00 50.64     0.009 C 
HETATM   29  C25 BCR K 101      39.426 -79.326 -49.616  1.00 69.21    -0.048 C 
HETATM   30  C26 BCR K 101      40.395 -79.956 -48.912  1.00 58.66    -0.077 C 
HETATM   31  C27 BCR K 101      40.131 -80.612 -47.575  1.00 58.99     0.034 C 
HETATM   32  C28 BCR K 101      38.686 -81.049 -47.470  1.00 47.83     0.005 C 
HETATM   33  C29 BCR K 101      37.788 -79.846 -47.714  1.00 60.06     0.014 C 
HETATM   34  C30 BCR K 101      37.999 -79.221 -49.091  1.00 65.44    -0.020 C 
HETATM   35  C35 BCR K 101      40.303 -82.567 -63.546  1.00 53.57     0.048 C 
HETATM   36  C36 BCR K 101      41.839 -77.825 -58.341  1.00 46.50     0.048 C 
HETATM   37  C37 BCR K 101      40.304 -77.179 -53.257  1.00 47.91     0.048 C 
HETATM   38  C38 BCR K 101      41.813 -80.054 -49.401  1.00 59.26     0.044 C 
HETATM   39  C39 BCR K 101      37.637 -77.742 -48.978  1.00 43.58     0.020 C 
HETATM   40  C40 BCR K 101      37.044 -79.876 -50.077  1.00 44.74     0.020 C 
ENDROOT
TORSDOF 10
