REMARK  0 active torsions:
REMARK  status: ('A' for Active; 'I' for Inactive)
REMARK       I    between atoms: C6_6  and  C7_7 
REMARK       I    between atoms: C8_8  and  C9_9 
REMARK       I    between atoms: C10_10  and  C11_11 
REMARK       I    between atoms: C12_16  and  C13_17 
REMARK       I    between atoms: C14_18  and  C15_19 
REMARK       I    between atoms: C16_20  and  C17_21 
REMARK       I    between atoms: C18_22  and  C19_23 
REMARK       I    between atoms: C20_24  and  C21_25 
REMARK       I    between atoms: C22_26  and  C23_27 
REMARK       I    between atoms: C24_28  and  C25_29 
ROOT
HETATM    1  C1  BCR H 101     -17.030 -51.203 -20.502  1.00 46.06    -0.020 C 
HETATM    2  C2  BCR H 101     -16.044 -51.753 -19.470  1.00 47.54     0.014 C 
HETATM    3  C3  BCR H 101     -16.208 -53.256 -19.365  1.00 47.88     0.005 C 
HETATM    4  C4  BCR H 101     -17.569 -53.549 -18.765  1.00 39.95     0.034 C 
HETATM    5  C5  BCR H 101     -18.682 -52.755 -19.417  1.00 52.72    -0.077 C 
HETATM    6  C6  BCR H 101     -18.452 -51.669 -20.213  1.00 44.05    -0.048 C 
HETATM    7  C7  BCR H 101     -19.521 -50.862 -20.876  1.00 41.77     0.009 C 
HETATM    8  C8  BCR H 101     -20.586 -51.347 -21.531  1.00 39.73     0.007 C 
HETATM    9  C9  BCR H 101     -21.596 -50.484 -22.189  1.00 51.82    -0.062 C 
HETATM   10  C10 BCR H 101     -22.479 -51.074 -23.013  1.00 44.04     0.007 C 
HETATM   11  C11 BCR H 101     -23.530 -50.409 -23.785  1.00 50.55     0.001 C 
HETATM   12  C33 BCR H 101     -20.048 -53.288 -19.074  1.00 45.83     0.044 C 
HETATM   13  C31 BCR H 101     -16.621 -51.690 -21.881  1.00 36.85     0.020 C 
HETATM   14  C32 BCR H 101     -16.952 -49.674 -20.499  1.00 40.14     0.020 C 
HETATM   15  C34 BCR H 101     -21.615 -48.999 -21.953  1.00 48.50     0.048 C 
HETATM   16  C12 BCR H 101     -23.986 -51.081 -24.851  1.00 64.73     0.007 C 
HETATM   17  C13 BCR H 101     -25.023 -50.594 -25.793  1.00 72.39    -0.062 C 
HETATM   18  C14 BCR H 101     -25.449 -51.403 -26.789  1.00 61.01     0.007 C 
HETATM   19  C15 BCR H 101     -26.462 -51.007 -27.781  1.00 53.62     0.001 C 
HETATM   20  C16 BCR H 101     -26.658 -51.763 -28.870  1.00 51.67     0.001 C 
HETATM   21  C17 BCR H 101     -27.658 -51.447 -29.898  1.00 53.95     0.007 C 
HETATM   22  C18 BCR H 101     -27.761 -52.186 -31.028  1.00 56.08    -0.062 C 
HETATM   23  C19 BCR H 101     -28.766 -51.843 -32.064  1.00 64.56     0.007 C 
HETATM   24  C20 BCR H 101     -28.908 -52.499 -33.223  1.00 42.37     0.001 C 
HETATM   25  C21 BCR H 101     -29.930 -52.018 -34.158  1.00 57.40     0.007 C 
HETATM   26  C22 BCR H 101     -30.222 -52.599 -35.339  1.00 67.24    -0.062 C 
HETATM   27  C23 BCR H 101     -31.176 -52.057 -36.122  1.00 62.55     0.007 C 
HETATM   28  C24 BCR H 101     -31.442 -52.515 -37.358  1.00 52.65     0.009 C 
HETATM   29  C25 BCR H 101     -32.483 -51.923 -38.250  1.00 59.76    -0.048 C 
HETATM   30  C26 BCR H 101     -32.288 -50.746 -38.869  1.00 55.29    -0.077 C 
HETATM   31  C27 BCR H 101     -33.313 -50.114 -39.789  1.00 50.09     0.034 C 
HETATM   32  C28 BCR H 101     -34.715 -50.660 -39.577  1.00 47.48     0.005 C 
HETATM   33  C29 BCR H 101     -34.655 -52.174 -39.554  1.00 49.30     0.014 C 
HETATM   34  C30 BCR H 101     -33.759 -52.708 -38.439  1.00 65.35    -0.020 C 
HETATM   35  C35 BCR H 101     -25.560 -49.200 -25.660  1.00 73.87     0.048 C 
HETATM   36  C36 BCR H 101     -26.830 -53.334 -31.257  1.00 50.16     0.048 C 
HETATM   37  C37 BCR H 101     -29.496 -53.834 -35.785  1.00 67.94     0.048 C 
HETATM   38  C38 BCR H 101     -31.003 -49.994 -38.673  1.00 48.54     0.044 C 
HETATM   39  C39 BCR H 101     -33.352 -54.141 -38.784  1.00 52.27     0.020 C 
HETATM   40  C40 BCR H 101     -34.525 -52.667 -37.118  1.00 64.09     0.020 C 
ENDROOT
TORSDOF 10
