REMARK  0 active torsions:
REMARK  status: ('A' for Active; 'I' for Inactive)
REMARK       I    between atoms: C6_6  and  C7_7 
REMARK       I    between atoms: C8_8  and  C9_9 
REMARK       I    between atoms: C10_10  and  C11_11 
REMARK       I    between atoms: C12_16  and  C13_17 
REMARK       I    between atoms: C14_18  and  C15_19 
REMARK       I    between atoms: C16_20  and  C17_21 
REMARK       I    between atoms: C18_22  and  C19_23 
REMARK       I    between atoms: C20_24  and  C21_25 
REMARK       I    between atoms: C22_26  and  C23_27 
REMARK       I    between atoms: C24_28  and  C25_29 
ROOT
HETATM    1  C1  BCR T 103      37.552 -32.814 -23.803  1.00 55.01    -0.020 C 
HETATM    2  C2  BCR T 103      37.908 -34.263 -24.126  1.00 54.78     0.014 C 
HETATM    3  C3  BCR T 103      39.260 -34.393 -24.790  1.00 56.23     0.005 C 
HETATM    4  C4  BCR T 103      40.331 -33.860 -23.859  1.00 54.38     0.034 C 
HETATM    5  C5  BCR T 103      39.989 -32.480 -23.348  1.00 47.44    -0.077 C 
HETATM    6  C6  BCR T 103      38.737 -31.984 -23.318  1.00 47.96    -0.048 C 
HETATM    7  C7  BCR T 103      38.543 -30.596 -22.775  1.00 51.80     0.009 C 
HETATM    8  C8  BCR T 103      37.527 -29.753 -23.060  1.00 51.28     0.007 C 
HETATM    9  C9  BCR T 103      37.412 -28.387 -22.481  1.00 64.16    -0.062 C 
HETATM   10  C10 BCR T 103      36.290 -27.660 -22.652  1.00 67.33     0.007 C 
HETATM   11  C11 BCR T 103      36.173 -26.297 -22.125  1.00 59.85     0.001 C 
HETATM   12  C33 BCR T 103      41.146 -31.671 -22.839  1.00 48.69     0.044 C 
HETATM   13  C31 BCR T 103      36.499 -32.864 -22.702  1.00 45.31     0.020 C 
HETATM   14  C32 BCR T 103      36.966 -32.210 -25.076  1.00 61.46     0.020 C 
HETATM   15  C34 BCR T 103      38.544 -27.788 -21.696  1.00 54.20     0.048 C 
HETATM   16  C12 BCR T 103      35.132 -25.585 -22.555  1.00 68.58     0.007 C 
HETATM   17  C13 BCR T 103      34.822 -24.170 -22.239  1.00 64.03    -0.062 C 
HETATM   18  C14 BCR T 103      33.713 -23.687 -22.831  1.00 47.03     0.007 C 
HETATM   19  C15 BCR T 103      33.176 -22.319 -22.837  1.00 51.60     0.001 C 
HETATM   20  C16 BCR T 103      31.921 -21.922 -22.616  1.00 44.47     0.001 C 
HETATM   21  C17 BCR T 103      31.659 -20.493 -22.826  1.00 54.46     0.007 C 
HETATM   22  C18 BCR T 103      30.423 -19.947 -22.887  1.00 50.22    -0.062 C 
HETATM   23  C19 BCR T 103      30.318 -18.500 -23.211  1.00 41.36     0.007 C 
HETATM   24  C20 BCR T 103      29.197 -17.767 -23.302  1.00 48.04     0.001 C 
HETATM   25  C21 BCR T 103      29.371 -16.366 -23.728  1.00 44.16     0.007 C 
HETATM   26  C22 BCR T 103      28.385 -15.518 -24.097  1.00 49.78    -0.062 C 
HETATM   27  C23 BCR T 103      28.750 -14.291 -24.522  1.00 42.38     0.007 C 
HETATM   28  C24 BCR T 103      27.910 -13.321 -24.929  1.00 34.76     0.009 C 
HETATM   29  C25 BCR T 103      28.386 -11.985 -25.419  1.00 40.00    -0.048 C 
HETATM   30  C26 BCR T 103      29.298 -11.247 -24.747  1.00 28.46    -0.077 C 
HETATM   31  C27 BCR T 103      29.785  -9.893 -25.253  1.00 34.96     0.034 C 
HETATM   32  C28 BCR T 103      29.577  -9.761 -26.759  1.00 30.67     0.005 C 
HETATM   33  C29 BCR T 103      28.099 -10.017 -27.023  1.00 31.82     0.014 C 
HETATM   34  C30 BCR T 103      27.775 -11.478 -26.739  1.00 43.83    -0.020 C 
HETATM   35  C35 BCR T 103      35.691 -23.332 -21.337  1.00 48.93     0.048 C 
HETATM   36  C36 BCR T 103      29.201 -20.804 -22.695  1.00 42.51     0.048 C 
HETATM   37  C37 BCR T 103      26.930 -15.920 -24.066  1.00 33.12     0.048 C 
HETATM   38  C38 BCR T 103      29.923 -11.645 -23.436  1.00 31.70     0.044 C 
HETATM   39  C39 BCR T 103      28.279 -12.282 -27.933  1.00 33.53     0.020 C 
HETATM   40  C40 BCR T 103      26.256 -11.620 -26.657  1.00 32.47     0.020 C 
ENDROOT
TORSDOF 10
