REMARK  0 active torsions:
REMARK  status: ('A' for Active; 'I' for Inactive)
REMARK       I    between atoms: C6_6  and  C7_7 
REMARK       I    between atoms: C8_8  and  C9_9 
REMARK       I    between atoms: C10_10  and  C11_11 
REMARK       I    between atoms: C12_16  and  C13_17 
REMARK       I    between atoms: C14_18  and  C15_19 
REMARK       I    between atoms: C16_20  and  C17_21 
REMARK       I    between atoms: C18_22  and  C19_23 
REMARK       I    between atoms: C20_24  and  C21_25 
REMARK       I    between atoms: C22_26  and  C23_27 
REMARK       I    between atoms: C24_28  and  C25_29 
ROOT
HETATM    1  C1  BCR T 101     -36.261  35.076 326.376  1.00 41.70    -0.020 C 
HETATM    2  C2  BCR T 101     -35.708  36.496 326.340  1.00 42.78     0.014 C 
HETATM    3  C3  BCR T 101     -34.216  36.531 326.438  1.00 41.03     0.005 C 
HETATM    4  C4  BCR T 101     -33.603  35.776 325.300  1.00 43.70     0.034 C 
HETATM    5  C5  BCR T 101     -34.296  34.499 325.024  1.00 45.79    -0.077 C 
HETATM    6  C6  BCR T 101     -35.504  34.147 325.512  1.00 40.49    -0.048 C 
HETATM    7  C7  BCR T 101     -36.132  32.871 325.130  1.00 44.14     0.009 C 
HETATM    8  C8  BCR T 101     -36.817  32.050 325.932  1.00 36.42     0.007 C 
HETATM    9  C9  BCR T 101     -37.242  30.734 325.445  1.00 37.41    -0.062 C 
HETATM   10  C10 BCR T 101     -38.373  30.200 325.929  1.00 30.62     0.007 C 
HETATM   11  C11 BCR T 101     -39.030  29.018 325.452  1.00 28.97     0.001 C 
HETATM   12  C33 BCR T 101     -33.507  33.617 324.123  1.00 43.90     0.044 C 
HETATM   13  C31 BCR T 101     -37.696  35.227 325.915  1.00 32.30     0.020 C 
HETATM   14  C32 BCR T 101     -36.242  34.545 327.801  1.00 43.93     0.020 C 
HETATM   15  C34 BCR T 101     -36.565  30.159 324.253  1.00 35.44     0.048 C 
HETATM   16  C12 BCR T 101     -39.818  28.337 326.296  1.00 28.42     0.007 C 
HETATM   17  C13 BCR T 101     -40.401  27.022 326.033  1.00 29.67    -0.062 C 
HETATM   18  C14 BCR T 101     -41.511  26.627 326.710  1.00 27.65     0.007 C 
HETATM   19  C15 BCR T 101     -41.765  25.287 327.201  1.00 28.48     0.001 C 
HETATM   20  C16 BCR T 101     -43.015  24.798 327.278  1.00 25.66     0.001 C 
HETATM   21  C17 BCR T 101     -43.324  23.604 328.034  1.00 31.53     0.007 C 
HETATM   22  C18 BCR T 101     -44.547  23.188 328.414  1.00 35.11    -0.062 C 
HETATM   23  C19 BCR T 101     -44.792  21.752 328.521  1.00 31.55     0.007 C 
HETATM   24  C20 BCR T 101     -45.646  21.203 329.394  1.00 33.30     0.001 C 
HETATM   25  C21 BCR T 101     -45.733  19.761 329.551  1.00 34.76     0.007 C 
HETATM   26  C22 BCR T 101     -46.538  19.064 330.388  1.00 38.40    -0.062 C 
HETATM   27  C23 BCR T 101     -46.185  17.666 330.644  1.00 37.30     0.007 C 
HETATM   28  C24 BCR T 101     -46.957  16.785 331.283  1.00 34.14     0.009 C 
HETATM   29  C25 BCR T 101     -46.516  15.424 331.588  1.00 34.41    -0.048 C 
HETATM   30  C26 BCR T 101     -46.105  14.593 330.632  1.00 30.82    -0.077 C 
HETATM   31  C27 BCR T 101     -45.594  13.234 330.805  1.00 38.31     0.034 C 
HETATM   32  C28 BCR T 101     -45.183  12.979 332.227  1.00 33.34     0.005 C 
HETATM   33  C29 BCR T 101     -46.264  13.453 333.128  1.00 23.88     0.014 C 
HETATM   34  C30 BCR T 101     -46.543  14.961 333.008  1.00 29.76    -0.020 C 
HETATM   35  C35 BCR T 101     -39.642  26.077 325.188  1.00 34.50     0.048 C 
HETATM   36  C36 BCR T 101     -45.612  24.131 328.824  1.00 32.52     0.048 C 
HETATM   37  C37 BCR T 101     -47.900  19.526 330.746  1.00 33.52     0.048 C 
HETATM   38  C38 BCR T 101     -46.049  14.936 329.214  1.00 36.86     0.044 C 
HETATM   39  C39 BCR T 101     -45.618  15.784 333.886  1.00 35.69     0.020 C 
HETATM   40  C40 BCR T 101     -47.929  15.146 333.596  1.00 29.24     0.020 C 
ENDROOT
TORSDOF 10
