REMARK  0 active torsions:
REMARK  status: ('A' for Active; 'I' for Inactive)
REMARK       I    between atoms: C6_6  and  C7_7 
REMARK       I    between atoms: C8_8  and  C9_9 
REMARK       I    between atoms: C10_10  and  C11_11 
REMARK       I    between atoms: C12_16  and  C13_17 
REMARK       I    between atoms: C14_18  and  C15_19 
REMARK       I    between atoms: C16_20  and  C17_21 
REMARK       I    between atoms: C18_22  and  C19_23 
REMARK       I    between atoms: C20_24  and  C21_25 
REMARK       I    between atoms: C22_26  and  C23_27 
REMARK       I    between atoms: C24_28  and  C25_29 
ROOT
HETATM    1  C1  BCR K 103     -13.224  81.109 370.293  1.00 56.77    -0.020 C 
HETATM    2  C2  BCR K 103     -13.015  80.308 371.560  1.00 45.87     0.014 C 
HETATM    3  C3  BCR K 103     -11.772  79.478 371.463  1.00 50.21     0.005 C 
HETATM    4  C4  BCR K 103     -10.575  80.379 371.351  1.00 55.76     0.034 C 
HETATM    5  C5  BCR K 103     -10.755  81.284 370.199  1.00 58.42    -0.077 C 
HETATM    6  C6  BCR K 103     -11.954  81.611 369.681  1.00 56.84    -0.048 C 
HETATM    7  C7  BCR K 103     -12.115  82.532 368.553  1.00 58.02     0.009 C 
HETATM    8  C8  BCR K 103     -11.753  82.211 367.312  1.00 55.60     0.007 C 
HETATM    9  C9  BCR K 103     -12.089  83.023 366.156  1.00 59.41    -0.062 C 
HETATM   10  C10 BCR K 103     -12.152  82.464 364.936  1.00 53.38     0.007 C 
HETATM   11  C11 BCR K 103     -12.757  83.098 363.793  1.00 50.51     0.001 C 
HETATM   12  C33 BCR K 103      -9.470  81.778 369.671  1.00 50.72     0.044 C 
HETATM   13  C31 BCR K 103     -14.144  82.270 370.640  1.00 56.63     0.020 C 
HETATM   14  C32 BCR K 103     -13.983  80.223 369.334  1.00 56.21     0.020 C 
HETATM   15  C34 BCR K 103     -12.209  84.480 366.353  1.00 55.47     0.048 C 
HETATM   16  C12 BCR K 103     -12.910  82.393 362.678  1.00 38.57     0.007 C 
HETATM   17  C13 BCR K 103     -13.518  82.896 361.478  1.00 36.45    -0.062 C 
HETATM   18  C14 BCR K 103     -13.612  82.037 360.454  1.00 45.53     0.007 C 
HETATM   19  C15 BCR K 103     -14.242  82.311 359.190  1.00 39.78     0.001 C 
HETATM   20  C16 BCR K 103     -14.349  81.311 358.305  1.00 43.24     0.001 C 
HETATM   21  C17 BCR K 103     -15.096  81.564 357.094  1.00 54.91     0.007 C 
HETATM   22  C18 BCR K 103     -15.318  80.718 356.075  1.00 49.76    -0.062 C 
HETATM   23  C19 BCR K 103     -15.822  81.282 354.820  1.00 46.29     0.007 C 
HETATM   24  C20 BCR K 103     -16.194  80.558 353.759  1.00 45.35     0.001 C 
HETATM   25  C21 BCR K 103     -17.000  81.156 352.708  1.00 43.82     0.007 C 
HETATM   26  C22 BCR K 103     -17.755  80.478 351.818  1.00 45.32    -0.062 C 
HETATM   27  C23 BCR K 103     -18.590  81.211 350.861  1.00 50.38     0.007 C 
HETATM   28  C24 BCR K 103     -19.258  80.660 349.840  1.00 43.89     0.009 C 
HETATM   29  C25 BCR K 103     -20.037  81.427 348.867  1.00 45.21    -0.048 C 
HETATM   30  C26 BCR K 103     -19.455  82.103 347.871  1.00 43.50    -0.077 C 
HETATM   31  C27 BCR K 103     -20.143  82.909 346.851  1.00 46.50     0.034 C 
HETATM   32  C28 BCR K 103     -21.583  82.500 346.701  1.00 48.43     0.005 C 
HETATM   33  C29 BCR K 103     -22.216  82.383 348.052  1.00 49.94     0.014 C 
HETATM   34  C30 BCR K 103     -21.530  81.414 348.993  1.00 40.03    -0.020 C 
HETATM   35  C35 BCR K 103     -13.558  84.358 361.262  1.00 51.19     0.048 C 
HETATM   36  C36 BCR K 103     -15.000  79.271 356.193  1.00 40.30     0.048 C 
HETATM   37  C37 BCR K 103     -17.989  79.031 352.009  1.00 47.05     0.048 C 
HETATM   38  C38 BCR K 103     -17.996  82.186 347.688  1.00 45.74     0.044 C 
HETATM   39  C39 BCR K 103     -22.003  80.012 348.736  1.00 41.11     0.020 C 
HETATM   40  C40 BCR K 103     -22.016  81.801 350.387  1.00 43.62     0.020 C 
ENDROOT
TORSDOF 10
