REMARK  0 active torsions:
REMARK  status: ('A' for Active; 'I' for Inactive)
REMARK       I    between atoms: C6_6  and  C7_7 
REMARK       I    between atoms: C8_8  and  C9_9 
REMARK       I    between atoms: C10_10  and  C11_11 
REMARK       I    between atoms: C12_16  and  C13_17 
REMARK       I    between atoms: C14_18  and  C15_19 
REMARK       I    between atoms: C16_20  and  C17_21 
REMARK       I    between atoms: C18_22  and  C19_23 
REMARK       I    between atoms: C20_24  and  C21_25 
REMARK       I    between atoms: C22_26  and  C23_27 
REMARK       I    between atoms: C24_28  and  C25_29 
ROOT
HETATM    1  C1  BCR F 101     -67.268  73.734 363.260  1.00 41.36    -0.020 C 
HETATM    2  C2  BCR F 101     -68.200  73.174 364.320  1.00 46.22     0.014 C 
HETATM    3  C3  BCR F 101     -68.082  71.688 364.454  1.00 40.40     0.005 C 
HETATM    4  C4  BCR F 101     -66.665  71.310 364.777  1.00 37.04     0.034 C 
HETATM    5  C5  BCR F 101     -65.730  71.871 363.772  1.00 43.37    -0.077 C 
HETATM    6  C6  BCR F 101     -65.996  72.985 363.089  1.00 36.67    -0.048 C 
HETATM    7  C7  BCR F 101     -65.090  73.528 362.096  1.00 37.51     0.009 C 
HETATM    8  C8  BCR F 101     -63.898  73.982 362.452  1.00 40.99     0.007 C 
HETATM    9  C9  BCR F 101     -62.923  74.404 361.473  1.00 37.99    -0.062 C 
HETATM   10  C10 BCR F 101     -61.648  74.515 361.867  1.00 32.67     0.007 C 
HETATM   11  C11 BCR F 101     -60.535  74.939 361.039  1.00 30.31     0.001 C 
HETATM   12  C33 BCR F 101     -64.478  71.070 363.575  1.00 36.33     0.044 C 
HETATM   13  C31 BCR F 101     -66.991  75.164 363.629  1.00 51.06     0.020 C 
HETATM   14  C32 BCR F 101     -68.036  73.788 361.952  1.00 43.35     0.020 C 
HETATM   15  C34 BCR F 101     -63.371  74.433 360.064  1.00 39.55     0.048 C 
HETATM   16  C12 BCR F 101     -59.295  74.910 361.560  1.00 29.21     0.007 C 
HETATM   17  C13 BCR F 101     -58.107  75.188 360.786  1.00 31.53    -0.062 C 
HETATM   18  C14 BCR F 101     -56.923  74.796 361.271  1.00 36.47     0.007 C 
HETATM   19  C15 BCR F 101     -55.631  75.135 360.711  1.00 33.10     0.001 C 
HETATM   20  C16 BCR F 101     -54.508  74.844 361.407  1.00 33.82     0.001 C 
HETATM   21  C17 BCR F 101     -53.224  74.852 360.727  1.00 36.91     0.007 C 
HETATM   22  C18 BCR F 101     -52.019  74.480 361.200  1.00 32.34    -0.062 C 
HETATM   23  C19 BCR F 101     -50.892  74.515 360.287  1.00 30.12     0.007 C 
HETATM   24  C20 BCR F 101     -49.657  74.138 360.638  1.00 37.50     0.001 C 
HETATM   25  C21 BCR F 101     -48.651  73.861 359.631  1.00 38.83     0.007 C 
HETATM   26  C22 BCR F 101     -47.328  73.728 359.856  1.00 38.49    -0.062 C 
HETATM   27  C23 BCR F 101     -46.417  73.691 358.734  1.00 39.36     0.007 C 
HETATM   28  C24 BCR F 101     -45.093  73.814 358.896  1.00 56.86     0.009 C 
HETATM   29  C25 BCR F 101     -44.090  73.432 357.906  1.00 57.44    -0.048 C 
HETATM   30  C26 BCR F 101     -43.278  72.402 358.120  1.00 61.92    -0.077 C 
HETATM   31  C27 BCR F 101     -42.261  71.941 357.173  1.00 63.69     0.034 C 
HETATM   32  C28 BCR F 101     -42.745  72.249 355.785  1.00 63.72     0.005 C 
HETATM   33  C29 BCR F 101     -42.936  73.734 355.696  1.00 59.25     0.014 C 
HETATM   34  C30 BCR F 101     -43.981  74.257 356.660  1.00 65.60    -0.020 C 
HETATM   35  C35 BCR F 101     -58.264  75.488 359.343  1.00 33.23     0.048 C 
HETATM   36  C36 BCR F 101     -51.800  73.853 362.514  1.00 21.57     0.048 C 
HETATM   37  C37 BCR F 101     -46.779  73.354 361.166  1.00 27.86     0.048 C 
HETATM   38  C38 BCR F 101     -43.325  71.571 359.339  1.00 68.49     0.044 C 
HETATM   39  C39 BCR F 101     -45.320  74.382 355.957  1.00 75.29     0.020 C 
HETATM   40  C40 BCR F 101     -43.524  75.674 356.995  1.00 67.84     0.020 C 
ENDROOT
TORSDOF 10
