REMARK  0 active torsions:
REMARK  status: ('A' for Active; 'I' for Inactive)
REMARK       I    between atoms: C6_6  and  C7_7 
REMARK       I    between atoms: C8_8  and  C9_9 
REMARK       I    between atoms: C10_10  and  C11_11 
REMARK       I    between atoms: C12_16  and  C13_17 
REMARK       I    between atoms: C14_18  and  C15_19 
REMARK       I    between atoms: C16_20  and  C17_21 
REMARK       I    between atoms: C18_22  and  C19_23 
REMARK       I    between atoms: C20_24  and  C21_25 
REMARK       I    between atoms: C22_26  and  C23_27 
REMARK       I    between atoms: C24_28  and  C25_29 
ROOT
HETATM    1  C1  BCR A 406     -21.878  36.261 325.600  1.00 36.20    -0.020 C 
HETATM    2  C2  BCR A 406     -20.838  37.148 324.888  1.00 35.59     0.014 C 
HETATM    3  C3  BCR A 406     -19.443  36.892 325.388  1.00 39.53     0.005 C 
HETATM    4  C4  BCR A 406     -19.095  35.449 325.168  1.00 31.69     0.034 C 
HETATM    5  C5  BCR A 406     -20.164  34.526 325.615  1.00 27.77    -0.077 C 
HETATM    6  C6  BCR A 406     -21.445  34.857 325.821  1.00 33.79    -0.048 C 
HETATM    7  C7  BCR A 406     -22.485  33.882 326.231  1.00 29.83     0.009 C 
HETATM    8  C8  BCR A 406     -22.625  33.475 327.507  1.00 31.65     0.007 C 
HETATM    9  C9  BCR A 406     -23.504  32.389 327.917  1.00 32.29    -0.062 C 
HETATM   10  C10 BCR A 406     -23.450  31.939 329.180  1.00 27.54     0.007 C 
HETATM   11  C11 BCR A 406     -24.212  30.831 329.703  1.00 33.59     0.001 C 
HETATM   12  C33 BCR A 406     -19.668  33.157 325.763  1.00 32.64     0.044 C 
HETATM   13  C31 BCR A 406     -23.149  36.246 324.783  1.00 30.33     0.020 C 
HETATM   14  C32 BCR A 406     -22.211  36.929 326.903  1.00 39.96     0.020 C 
HETATM   15  C34 BCR A 406     -24.697  32.189 327.086  1.00 32.57     0.048 C 
HETATM   16  C12 BCR A 406     -24.350  30.733 331.033  1.00 30.76     0.007 C 
HETATM   17  C13 BCR A 406     -25.246  29.833 331.724  1.00 32.78    -0.062 C 
HETATM   18  C14 BCR A 406     -24.860  29.420 332.948  1.00 29.28     0.007 C 
HETATM   19  C15 BCR A 406     -25.674  28.668 333.866  1.00 28.52     0.001 C 
HETATM   20  C16 BCR A 406     -25.205  28.286 335.070  1.00 29.07     0.001 C 
HETATM   21  C17 BCR A 406     -26.119  27.663 335.993  1.00 23.66     0.007 C 
HETATM   22  C18 BCR A 406     -25.887  27.391 337.283  1.00 29.00    -0.062 C 
HETATM   23  C19 BCR A 406     -26.837  26.489 337.942  1.00 33.02     0.007 C 
HETATM   24  C20 BCR A 406     -26.758  26.031 339.201  1.00 25.51     0.001 C 
HETATM   25  C21 BCR A 406     -27.540  24.864 339.574  1.00 28.80     0.007 C 
HETATM   26  C22 BCR A 406     -27.507  24.243 340.760  1.00 25.36    -0.062 C 
HETATM   27  C23 BCR A 406     -28.515  23.217 341.043  1.00 34.30     0.007 C 
HETATM   28  C24 BCR A 406     -28.691  22.629 342.241  1.00 25.99     0.009 C 
HETATM   29  C25 BCR A 406     -29.812  21.774 342.660  1.00 30.20    -0.048 C 
HETATM   30  C26 BCR A 406     -30.837  22.275 343.378  1.00 33.40    -0.077 C 
HETATM   31  C27 BCR A 406     -32.014  21.546 343.917  1.00 29.94     0.034 C 
HETATM   32  C28 BCR A 406     -32.131  20.134 343.390  1.00 29.32     0.005 C 
HETATM   33  C29 BCR A 406     -30.791  19.494 343.124  1.00 29.90     0.014 C 
HETATM   34  C30 BCR A 406     -29.761  20.311 342.341  1.00 29.21    -0.020 C 
HETATM   35  C35 BCR A 406     -26.362  29.190 330.973  1.00 30.52     0.048 C 
HETATM   36  C36 BCR A 406     -24.526  27.596 337.831  1.00 29.79     0.048 C 
HETATM   37  C37 BCR A 406     -26.236  24.190 341.500  1.00 34.36     0.048 C 
HETATM   38  C38 BCR A 406     -30.916  23.700 343.757  1.00 29.54     0.044 C 
HETATM   39  C39 BCR A 406     -29.857  20.057 340.865  1.00 30.51     0.020 C 
HETATM   40  C40 BCR A 406     -28.448  19.684 342.756  1.00 35.85     0.020 C 
ENDROOT
TORSDOF 10
