REMARK  0 active torsions:
REMARK  status: ('A' for Active; 'I' for Inactive)
REMARK       I    between atoms: C6_6  and  C7_7 
REMARK       I    between atoms: C8_8  and  C9_9 
REMARK       I    between atoms: C10_10  and  C11_11 
REMARK       I    between atoms: C12_16  and  C13_17 
REMARK       I    between atoms: C14_18  and  C15_19 
REMARK       I    between atoms: C16_20  and  C17_21 
REMARK       I    between atoms: C18_22  and  C19_23 
REMARK       I    between atoms: C20_24  and  C21_25 
REMARK       I    between atoms: C22_26  and  C23_27 
REMARK       I    between atoms: C24_28  and  C25_29 
ROOT
HETATM    1  C1  BCR B 619     -98.288  31.828 335.764  1.00 42.12    -0.020 C 
HETATM    2  C2  BCR B 619     -99.558  31.337 336.415  1.00 44.03     0.014 C 
HETATM    3  C3  BCR B 619    -100.591  32.416 336.435  1.00 50.07     0.005 C 
HETATM    4  C4  BCR B 619    -100.887  32.824 335.020  1.00 50.24     0.034 C 
HETATM    5  C5  BCR B 619     -99.645  33.244 334.328  1.00 48.46    -0.077 C 
HETATM    6  C6  BCR B 619     -98.450  32.787 334.641  1.00 42.37    -0.048 C 
HETATM    7  C7  BCR B 619     -97.229  33.230 333.941  1.00 45.45     0.009 C 
HETATM    8  C8  BCR B 619     -97.052  33.042 332.627  1.00 42.13     0.007 C 
HETATM    9  C9  BCR B 619     -95.829  33.347 331.892  1.00 40.32    -0.062 C 
HETATM   10  C10 BCR B 619     -95.820  33.121 330.575  1.00 42.22     0.007 C 
HETATM   11  C11 BCR B 619     -94.653  33.236 329.744  1.00 37.87     0.001 C 
HETATM   12  C33 BCR B 619     -99.859  34.216 333.233  1.00 60.09     0.044 C 
HETATM   13  C31 BCR B 619     -97.557  30.603 335.292  1.00 42.93     0.020 C 
HETATM   14  C32 BCR B 619     -97.488  32.473 336.875  1.00 43.16     0.020 C 
HETATM   15  C34 BCR B 619     -94.818  34.227 332.497  1.00 35.96     0.048 C 
HETATM   16  C12 BCR B 619     -94.753  32.847 328.477  1.00 36.26     0.007 C 
HETATM   17  C13 BCR B 619     -93.819  33.234 327.452  1.00 36.16    -0.062 C 
HETATM   18  C14 BCR B 619     -94.089  32.839 326.199  1.00 32.11     0.007 C 
HETATM   19  C15 BCR B 619     -93.111  32.738 325.141  1.00 30.20     0.001 C 
HETATM   20  C16 BCR B 619     -93.489  32.344 323.920  1.00 25.50     0.001 C 
HETATM   21  C17 BCR B 619     -92.520  32.387 322.860  1.00 29.93     0.007 C 
HETATM   22  C18 BCR B 619     -92.773  32.206 321.556  1.00 33.52    -0.062 C 
HETATM   23  C19 BCR B 619     -91.660  31.890 320.657  1.00 31.39     0.007 C 
HETATM   24  C20 BCR B 619     -91.799  31.620 319.350  1.00 33.08     0.001 C 
HETATM   25  C21 BCR B 619     -90.622  31.433 318.539  1.00 29.74     0.007 C 
HETATM   26  C22 BCR B 619     -90.566  31.390 317.199  1.00 34.33    -0.062 C 
HETATM   27  C23 BCR B 619     -89.252  31.236 316.569  1.00 29.24     0.007 C 
HETATM   28  C24 BCR B 619     -89.055  30.919 315.284  1.00 34.82     0.009 C 
HETATM   29  C25 BCR B 619     -87.727  30.853 314.674  1.00 36.91    -0.048 C 
HETATM   30  C26 BCR B 619     -86.834  29.985 315.139  1.00 42.58    -0.077 C 
HETATM   31  C27 BCR B 619     -85.462  29.822 314.614  1.00 34.32     0.034 C 
HETATM   32  C28 BCR B 619     -85.431  30.152 313.145  1.00 33.19     0.005 C 
HETATM   33  C29 BCR B 619     -86.005  31.515 312.910  1.00 42.41     0.014 C 
HETATM   34  C30 BCR B 619     -87.367  31.781 313.542  1.00 41.48    -0.020 C 
HETATM   35  C35 BCR B 619     -92.470  33.652 327.872  1.00 29.99     0.048 C 
HETATM   36  C36 BCR B 619     -94.157  31.879 321.141  1.00 37.35     0.048 C 
HETATM   37  C37 BCR B 619     -91.781  31.060 316.431  1.00 37.12     0.048 C 
HETATM   38  C38 BCR B 619     -87.143  29.085 316.264  1.00 40.40     0.044 C 
HETATM   39  C39 BCR B 619     -88.483  31.814 312.505  1.00 51.26     0.020 C 
HETATM   40  C40 BCR B 619     -87.156  33.210 314.031  1.00 40.72     0.020 C 
ENDROOT
TORSDOF 10
