REMARK  0 active torsions:
REMARK  status: ('A' for Active; 'I' for Inactive)
REMARK       I    between atoms: C6_6  and  C7_7 
REMARK       I    between atoms: C8_8  and  C9_9 
REMARK       I    between atoms: C10_10  and  C11_11 
REMARK       I    between atoms: C12_16  and  C13_17 
REMARK       I    between atoms: C14_18  and  C15_19 
REMARK       I    between atoms: C16_20  and  C17_21 
REMARK       I    between atoms: C18_22  and  C19_23 
REMARK       I    between atoms: C20_24  and  C21_25 
REMARK       I    between atoms: C22_26  and  C23_27 
REMARK       I    between atoms: C24_28  and  C25_29 
ROOT
HETATM    1  C1  BCR H 102     -86.654  60.111 342.498  1.00 48.43    -0.020 C 
HETATM    2  C2  BCR H 102     -85.751  60.943 341.612  1.00 45.30     0.014 C 
HETATM    3  C3  BCR H 102     -86.479  61.410 340.392  1.00 43.50     0.005 C 
HETATM    4  C4  BCR H 102     -87.615  62.283 340.828  1.00 33.84     0.034 C 
HETATM    5  C5  BCR H 102     -88.493  61.600 341.793  1.00 31.85    -0.077 C 
HETATM    6  C6  BCR H 102     -88.092  60.592 342.576  1.00 30.25    -0.048 C 
HETATM    7  C7  BCR H 102     -88.962  59.908 343.536  1.00 35.33     0.009 C 
HETATM    8  C8  BCR H 102     -89.734  60.542 344.437  1.00 43.57     0.007 C 
HETATM    9  C9  BCR H 102     -90.612  59.860 345.383  1.00 33.88    -0.062 C 
HETATM   10  C10 BCR H 102     -91.023  60.464 346.509  1.00 37.36     0.007 C 
HETATM   11  C11 BCR H 102     -91.525  59.795 347.691  1.00 39.57     0.001 C 
HETATM   12  C33 BCR H 102     -89.849  62.203 341.828  1.00 42.29     0.044 C 
HETATM   13  C31 BCR H 102     -85.993  60.138 343.859  1.00 39.85     0.020 C 
HETATM   14  C32 BCR H 102     -86.529  58.695 341.983  1.00 37.04     0.020 C 
HETATM   15  C34 BCR H 102     -90.762  58.400 345.224  1.00 43.60     0.048 C 
HETATM   16  C12 BCR H 102     -92.120  60.507 348.668  1.00 44.45     0.007 C 
HETATM   17  C13 BCR H 102     -92.384  60.031 350.016  1.00 40.33    -0.062 C 
HETATM   18  C14 BCR H 102     -92.401  60.900 351.039  1.00 40.69     0.007 C 
HETATM   19  C15 BCR H 102     -92.841  60.615 352.391  1.00 43.47     0.001 C 
HETATM   20  C16 BCR H 102     -92.727  61.580 353.311  1.00 39.77     0.001 C 
HETATM   21  C17 BCR H 102     -93.061  61.302 354.682  1.00 45.28     0.007 C 
HETATM   22  C18 BCR H 102     -92.735  62.050 355.746  1.00 40.17    -0.062 C 
HETATM   23  C19 BCR H 102     -93.286  61.676 357.040  1.00 43.20     0.007 C 
HETATM   24  C20 BCR H 102     -92.810  62.108 358.211  1.00 48.88     0.001 C 
HETATM   25  C21 BCR H 102     -93.589  61.897 359.421  1.00 49.74     0.007 C 
HETATM   26  C22 BCR H 102     -93.290  62.376 360.642  1.00 50.14    -0.062 C 
HETATM   27  C23 BCR H 102     -94.080  61.924 361.792  1.00 44.53     0.007 C 
HETATM   28  C24 BCR H 102     -93.740  62.169 363.069  1.00 55.23     0.009 C 
HETATM   29  C25 BCR H 102     -94.536  61.810 364.249  1.00 54.54    -0.048 C 
HETATM   30  C26 BCR H 102     -94.320  60.680 364.924  1.00 52.60    -0.077 C 
HETATM   31  C27 BCR H 102     -95.061  60.215 366.124  1.00 52.80     0.034 C 
HETATM   32  C28 BCR H 102     -95.841  61.304 366.824  1.00 54.83     0.005 C 
HETATM   33  C29 BCR H 102     -96.467  62.255 365.840  1.00 57.72     0.014 C 
HETATM   34  C30 BCR H 102     -95.585  62.767 364.698  1.00 53.00    -0.020 C 
HETATM   35  C35 BCR H 102     -92.799  58.639 350.255  1.00 52.18     0.048 C 
HETATM   36  C36 BCR H 102     -91.829  63.218 355.648  1.00 35.95     0.048 C 
HETATM   37  C37 BCR H 102     -92.226  63.405 360.801  1.00 46.70     0.048 C 
HETATM   38  C38 BCR H 102     -93.265  59.720 364.507  1.00 55.38     0.044 C 
HETATM   39  C39 BCR H 102     -94.951  64.097 365.036  1.00 45.73     0.020 C 
HETATM   40  C40 BCR H 102     -96.555  63.050 363.571  1.00 63.22     0.020 C 
ENDROOT
TORSDOF 10
