REMARK  0 active torsions:
REMARK  status: ('A' for Active; 'I' for Inactive)
REMARK       I    between atoms: C6_6  and  C7_7 
REMARK       I    between atoms: C8_8  and  C9_9 
REMARK       I    between atoms: C10_10  and  C11_11 
REMARK       I    between atoms: C12_16  and  C13_17 
REMARK       I    between atoms: C14_18  and  C15_19 
REMARK       I    between atoms: C16_20  and  C17_21 
REMARK       I    between atoms: C18_22  and  C19_23 
REMARK       I    between atoms: C20_24  and  C21_25 
REMARK       I    between atoms: C22_26  and  C23_27 
REMARK       I    between atoms: C24_28  and  C25_29 
ROOT
HETATM    1  C1  BCR K 101      -3.837  77.767 371.277  1.00 40.27    -0.020 C 
HETATM    2  C2  BCR K 101      -4.806  77.590 372.426  1.00 46.17     0.014 C 
HETATM    3  C3  BCR K 101      -5.322  78.887 372.967  1.00 46.00     0.005 C 
HETATM    4  C4  BCR K 101      -5.876  79.768 371.881  1.00 50.16     0.034 C 
HETATM    5  C5  BCR K 101      -4.953  79.879 370.728  1.00 47.62    -0.077 C 
HETATM    6  C6  BCR K 101      -4.055  78.970 370.421  1.00 41.18    -0.048 C 
HETATM    7  C7  BCR K 101      -3.173  79.167 369.279  1.00 43.29     0.009 C 
HETATM    8  C8  BCR K 101      -3.610  79.225 368.023  1.00 42.58     0.007 C 
HETATM    9  C9  BCR K 101      -2.707  79.227 366.882  1.00 48.65    -0.062 C 
HETATM   10  C10 BCR K 101      -3.182  79.355 365.637  1.00 45.45     0.007 C 
HETATM   11  C11 BCR K 101      -2.513  78.793 364.494  1.00 51.34     0.001 C 
HETATM   12  C33 BCR K 101      -5.128  81.084 369.888  1.00 47.03     0.044 C 
HETATM   13  C31 BCR K 101      -3.910  76.447 370.512  1.00 48.55     0.020 C 
HETATM   14  C32 BCR K 101      -2.470  77.871 371.889  1.00 47.52     0.020 C 
HETATM   15  C34 BCR K 101      -1.297  78.854 367.132  1.00 49.90     0.048 C 
HETATM   16  C12 BCR K 101      -2.697  79.297 363.266  1.00 52.29     0.007 C 
HETATM   17  C13 BCR K 101      -2.340  78.554 362.076  1.00 57.82    -0.062 C 
HETATM   18  C14 BCR K 101      -2.717  79.026 360.875  1.00 56.99     0.007 C 
HETATM   19  C15 BCR K 101      -2.499  78.354 359.614  1.00 53.84     0.001 C 
HETATM   20  C16 BCR K 101      -3.170  78.726 358.514  1.00 48.03     0.001 C 
HETATM   21  C17 BCR K 101      -2.577  78.344 357.258  1.00 52.48     0.007 C 
HETATM   22  C18 BCR K 101      -3.223  77.969 356.145  1.00 57.46    -0.062 C 
HETATM   23  C19 BCR K 101      -2.646  78.335 354.853  1.00 53.57     0.007 C 
HETATM   24  C20 BCR K 101      -3.053  77.870 353.669  1.00 52.13     0.001 C 
HETATM   25  C21 BCR K 101      -2.128  77.864 352.558  1.00 54.30     0.007 C 
HETATM   26  C22 BCR K 101      -2.367  77.449 351.300  1.00 56.80    -0.062 C 
HETATM   27  C23 BCR K 101      -1.305  77.558 350.315  1.00 54.97     0.007 C 
HETATM   28  C24 BCR K 101      -1.502  77.350 349.015  1.00 52.41     0.009 C 
HETATM   29  C25 BCR K 101      -0.563  77.772 347.995  1.00 54.04    -0.048 C 
HETATM   30  C26 BCR K 101      -0.425  79.062 347.672  1.00 63.10    -0.077 C 
HETATM   31  C27 BCR K 101       0.494  79.617 346.653  1.00 64.10     0.034 C 
HETATM   32  C28 BCR K 101       1.507  78.594 346.196  1.00 68.43     0.005 C 
HETATM   33  C29 BCR K 101       0.873  77.232 346.049  1.00 60.58     0.014 C 
HETATM   34  C30 BCR K 101       0.248  76.718 347.332  1.00 50.92    -0.020 C 
HETATM   35  C35 BCR K 101      -1.990  77.124 362.252  1.00 62.47     0.048 C 
HETATM   36  C36 BCR K 101      -4.293  76.950 356.226  1.00 61.37     0.048 C 
HETATM   37  C37 BCR K 101      -3.553  76.650 350.920  1.00 59.71     0.048 C 
HETATM   38  C38 BCR K 101      -1.213  80.131 348.314  1.00 58.32     0.044 C 
HETATM   39  C39 BCR K 101       1.324  76.223 348.285  1.00 63.29     0.020 C 
HETATM   40  C40 BCR K 101      -0.595  75.504 346.941  1.00 51.15     0.020 C 
ENDROOT
TORSDOF 10
