REMARK  0 active torsions:
REMARK  status: ('A' for Active; 'I' for Inactive)
REMARK       I    between atoms: C6_6  and  C7_7 
REMARK       I    between atoms: C8_8  and  C9_9 
REMARK       I    between atoms: C10_10  and  C11_11 
REMARK       I    between atoms: C12_16  and  C13_17 
REMARK       I    between atoms: C14_18  and  C15_19 
REMARK       I    between atoms: C16_20  and  C17_21 
REMARK       I    between atoms: C18_22  and  C19_23 
REMARK       I    between atoms: C20_24  and  C21_25 
REMARK       I    between atoms: C22_26  and  C23_27 
REMARK       I    between atoms: C24_28  and  C25_29 
ROOT
HETATM    1  C1  BCR B 618     -69.183  33.795 339.394  1.00 40.46    -0.020 C 
HETATM    2  C2  BCR B 618     -68.046  33.669 340.412  1.00 38.19     0.014 C 
HETATM    3  C3  BCR B 618     -67.699  32.214 340.642  1.00 37.07     0.005 C 
HETATM    4  C4  BCR B 618     -67.249  31.574 339.357  1.00 35.92     0.034 C 
HETATM    5  C5  BCR B 618     -68.273  31.756 338.309  1.00 36.16    -0.077 C 
HETATM    6  C6  BCR B 618     -69.168  32.755 338.301  1.00 29.04    -0.048 C 
HETATM    7  C7  BCR B 618     -70.131  32.905 337.210  1.00 28.06     0.009 C 
HETATM    8  C8  BCR B 618     -71.041  31.964 336.941  1.00 32.09     0.007 C 
HETATM    9  C9  BCR B 618     -72.075  32.108 335.936  1.00 31.23    -0.062 C 
HETATM   10  C10 BCR B 618     -72.830  31.035 335.625  1.00 30.89     0.007 C 
HETATM   11  C11 BCR B 618     -74.047  31.071 334.838  1.00 28.43     0.001 C 
HETATM   12  C33 BCR B 618     -68.220  30.726 337.255  1.00 38.15     0.044 C 
HETATM   13  C31 BCR B 618     -69.144  35.194 338.807  1.00 41.07     0.020 C 
HETATM   14  C32 BCR B 618     -70.450  33.712 340.216  1.00 40.74     0.020 C 
HETATM   15  C34 BCR B 618     -72.451  33.494 335.571  1.00 31.69     0.048 C 
HETATM   16  C12 BCR B 618     -74.854  29.997 334.764  1.00 29.36     0.007 C 
HETATM   17  C13 BCR B 618     -75.990  29.872 333.852  1.00 25.32    -0.062 C 
HETATM   18  C14 BCR B 618     -76.748  28.760 333.858  1.00 31.04     0.007 C 
HETATM   19  C15 BCR B 618     -77.701  28.421 332.827  1.00 23.63     0.001 C 
HETATM   20  C16 BCR B 618     -78.657  27.483 333.014  1.00 31.26     0.001 C 
HETATM   21  C17 BCR B 618     -79.651  27.281 331.966  1.00 34.11     0.007 C 
HETATM   22  C18 BCR B 618     -80.312  26.152 331.633  1.00 31.18    -0.062 C 
HETATM   23  C19 BCR B 618     -81.362  26.184 330.627  1.00 30.29     0.007 C 
HETATM   24  C20 BCR B 618     -81.852  25.052 330.090  1.00 41.94     0.001 C 
HETATM   25  C21 BCR B 618     -83.205  25.006 329.570  1.00 35.48     0.007 C 
HETATM   26  C22 BCR B 618     -83.700  24.098 328.724  1.00 28.25    -0.062 C 
HETATM   27  C23 BCR B 618     -84.958  24.390 328.041  1.00 31.42     0.007 C 
HETATM   28  C24 BCR B 618     -85.542  23.580 327.131  1.00 38.15     0.009 C 
HETATM   29  C25 BCR B 618     -86.771  23.950 326.413  1.00 34.46    -0.048 C 
HETATM   30  C26 BCR B 618     -86.693  24.689 325.307  1.00 40.95    -0.077 C 
HETATM   31  C27 BCR B 618     -87.849  25.190 324.529  1.00 42.20     0.034 C 
HETATM   32  C28 BCR B 618     -89.086  24.353 324.672  1.00 33.45     0.005 C 
HETATM   33  C29 BCR B 618     -89.298  23.767 326.045  1.00 35.30     0.014 C 
HETATM   34  C30 BCR B 618     -88.092  23.518 326.959  1.00 37.08    -0.020 C 
HETATM   35  C35 BCR B 618     -76.462  31.061 333.121  1.00 27.05     0.048 C 
HETATM   36  C36 BCR B 618     -80.182  24.905 332.392  1.00 33.84     0.048 C 
HETATM   37  C37 BCR B 618     -83.329  22.682 328.901  1.00 39.76     0.048 C 
HETATM   38  C38 BCR B 618     -85.389  25.177 324.772  1.00 35.08     0.044 C 
HETATM   39  C39 BCR B 618     -87.980  22.086 327.422  1.00 43.92     0.020 C 
HETATM   40  C40 BCR B 618     -88.504  24.265 328.220  1.00 41.09     0.020 C 
ENDROOT
TORSDOF 10
