MODEL 1
REMARK VINA RESULT:    -8.951      0.000      0.000
REMARK INTER + INTRA:         -15.308
REMARK INTER:                  -8.951
REMARK INTRA:                  -6.358
REMARK UNBOUND:                -6.358
REMARK  0 active torsions:
REMARK  status: ('A' for Active; 'I' for Inactive)
REMARK       I    between atoms: C6_6  and  C7_7 
REMARK       I    between atoms: C8_8  and  C9_9 
REMARK       I    between atoms: C10_10  and  C11_11 
REMARK       I    between atoms: C12_16  and  C13_17 
REMARK       I    between atoms: C14_18  and  C15_19 
REMARK       I    between atoms: C16_20  and  C17_21 
REMARK       I    between atoms: C18_22  and  C19_23 
REMARK       I    between atoms: C20_24  and  C21_25 
REMARK       I    between atoms: C22_26  and  C23_27 
REMARK       I    between atoms: C24_28  and  C25_29 
ROOT
HETATM    1  C1  BCR B 620     -50.299 150.130  11.474  1.00 59.21    -0.020 C 
HETATM    2  C2  BCR B 620     -51.752 150.585  11.391  1.00 51.24     0.014 C 
HETATM    3  C3  BCR B 620     -52.547 149.701  10.458  1.00 59.98     0.005 C 
HETATM    4  C4  BCR B 620     -51.972 149.874   9.067  1.00 63.95     0.034 C 
HETATM    5  C5  BCR B 620     -50.521 149.464   9.065  1.00 56.60    -0.077 C 
HETATM    6  C6  BCR B 620     -49.752 149.579  10.166  1.00 59.07    -0.048 C 
HETATM    7  C7  BCR B 620     -48.317 149.185  10.208  1.00 54.02     0.009 C 
HETATM    8  C8  BCR B 620     -47.867 147.982   9.835  1.00 65.68     0.007 C 
HETATM    9  C9  BCR B 620     -46.452 147.565   9.898  1.00 53.63    -0.062 C 
HETATM   10  C10 BCR B 620     -46.172 146.309   9.499  1.00 46.58     0.007 C 
HETATM   11  C11 BCR B 620     -44.859 145.662   9.527  1.00 41.79     0.001 C 
HETATM   12  C33 BCR B 620     -50.005 148.934   7.763  1.00 51.12     0.044 C 
HETATM   13  C31 BCR B 620     -50.184 149.085  12.590  1.00 43.92     0.020 C 
HETATM   14  C32 BCR B 620     -49.431 151.338  11.794  1.00 55.12     0.020 C 
HETATM   15  C34 BCR B 620     -45.399 148.504  10.409  1.00 45.21     0.048 C 
HETATM   16  C12 BCR B 620     -44.876 144.348   9.264  1.00 45.96     0.007 C 
HETATM   17  C13 BCR B 620     -43.685 143.480   9.304  1.00 40.88    -0.062 C 
HETATM   18  C14 BCR B 620     -43.686 142.273   8.696  1.00 41.01     0.007 C 
HETATM   19  C15 BCR B 620     -42.528 141.377   8.802  1.00 42.22     0.001 C 
HETATM   20  C16 BCR B 620     -42.681 140.067   8.535  1.00 44.26     0.001 C 
HETATM   21  C17 BCR B 620     -41.573 139.117   8.708  1.00 36.26     0.007 C 
HETATM   22  C18 BCR B 620     -41.537 137.877   8.193  1.00 40.60    -0.062 C 
HETATM   23  C19 BCR B 620     -40.364 137.016   8.506  1.00 46.29     0.007 C 
HETATM   24  C20 BCR B 620     -40.248 135.733   8.130  1.00 50.06     0.001 C 
HETATM   25  C21 BCR B 620     -39.054 134.979   8.537  1.00 37.91     0.007 C 
HETATM   26  C22 BCR B 620     -38.763 133.715   8.165  1.00 42.97    -0.062 C 
HETATM   27  C23 BCR B 620     -37.637 133.150   8.644  1.00 48.87     0.007 C 
HETATM   28  C24 BCR B 620     -37.393 131.823   8.615  1.00 45.55     0.009 C 
HETATM   29  C25 BCR B 620     -36.138 131.254   9.184  1.00 43.88    -0.048 C 
HETATM   30  C26 BCR B 620     -35.969 131.210  10.524  1.00 47.72    -0.077 C 
HETATM   31  C27 BCR B 620     -34.734 130.655  11.191  1.00 52.50     0.034 C 
HETATM   32  C28 BCR B 620     -33.558 130.721  10.238  1.00 49.92     0.005 C 
HETATM   33  C29 BCR B 620     -33.964 129.985   8.979  1.00 50.61     0.014 C 
HETATM   34  C30 BCR B 620     -35.077 130.725   8.241  1.00 54.77    -0.020 C 
HETATM   35  C35 BCR B 620     -42.484 143.964  10.071  1.00 35.11     0.048 C 
HETATM   36  C36 BCR B 620     -42.665 137.388   7.326  1.00 37.84     0.048 C 
HETATM   37  C37 BCR B 620     -39.661 132.943   7.236  1.00 32.11     0.048 C 
HETATM   38  C38 BCR B 620     -37.023 131.718  11.456  1.00 42.60     0.044 C 
HETATM   39  C39 BCR B 620     -35.714 129.748   7.247  1.00 50.58     0.020 C 
HETATM   40  C40 BCR B 620     -34.458 131.895   7.479  1.00 40.99     0.020 C 
ENDROOT
TORSDOF 10
BEGIN_RES PHE A  61
REMARK  2 active torsions:
REMARK  status: ('A' for Active; 'I' for Inactive)
REMARK    1  A    between atoms: CA   and  CB  
REMARK    2  A    between atoms: CB   and  CG  
ROOT
ATOM      1  CA  PHE A  61     -36.237 128.293  12.768  1.00 39.40     0.164 C 
ENDROOT
BRANCH   1   2
ATOM      2  CB  PHE A  61     -36.813 128.951  11.509  1.00 39.41     0.058 C 
BRANCH   2   3
ATOM      3  CG  PHE A  61     -36.757 128.087  10.272  1.00 39.01    -0.020 A 
ATOM      4  CD2 PHE A  61     -37.840 128.006   9.411  1.00 40.32    -0.004 A 
ATOM      5  CE2 PHE A  61     -37.788 127.208   8.275  1.00 40.20    -0.000 A 
ATOM      6  CZ  PHE A  61     -36.653 126.486   7.985  1.00 40.34    -0.000 A 
ATOM      7  CE1 PHE A  61     -35.567 126.557   8.830  1.00 41.51    -0.000 A 
ATOM      8  CD1 PHE A  61     -35.621 127.350   9.969  1.00 39.94    -0.004 A 
ENDBRANCH   2   3
ENDBRANCH   1   2
END_RES PHE A  61
BEGIN_RES VAL A 134
REMARK  1 active torsions:
REMARK  status: ('A' for Active; 'I' for Inactive)
REMARK    3  A    between atoms: CA   and  CB  
ROOT
ATOM      9  CA  VAL A 134     -29.766 132.051   9.815  1.00 40.75     0.159 C 
ENDROOT
BRANCH   9  10
ATOM     10  CB  VAL A 134     -30.864 132.765   9.009  1.00 40.76     0.029 C 
ATOM     11  CG1 VAL A 134     -31.233 131.960   7.771  1.00 41.76     0.002 C 
ATOM     12  CG2 VAL A 134     -32.094 133.042   9.859  1.00 40.56     0.002 C 
ENDBRANCH   9  10
END_RES VAL A 134
BEGIN_RES TYR A 338
REMARK  3 active torsions:
REMARK  status: ('A' for Active; 'I' for Inactive)
REMARK    4  A    between atoms: CA   and  CB  
REMARK    5  A    between atoms: CB   and  CG  
REMARK    6  A    between atoms: CZ   and  OH  
ROOT
ATOM     13  CA  TYR A 338     -41.631 124.950   6.058  1.00 38.23     0.164 C 
ENDROOT
BRANCH  13  14
ATOM     14  CB  TYR A 338     -41.621 126.456   6.339  1.00 39.15     0.058 C 
BRANCH  14  15
ATOM     15  CG  TYR A 338     -40.401 127.206   5.854  1.00 39.03    -0.020 A 
ATOM     16  CD2 TYR A 338     -40.224 128.540   6.180  1.00 40.65    -0.002 A 
ATOM     17  CE2 TYR A 338     -39.126 129.262   5.739  1.00 40.91     0.024 A 
ATOM     18  CZ  TYR A 338     -38.171 128.648   4.951  1.00 42.33     0.089 A 
ATOM     19  CE1 TYR A 338     -38.324 127.314   4.616  1.00 40.63     0.024 A 
ATOM     20  CD1 TYR A 338     -39.436 126.612   5.056  1.00 39.27    -0.002 A 
BRANCH  18  21
ATOM     21  OH  TYR A 338     -37.082 129.349   4.515  1.00 43.36    -0.359 OA
ATOM     22  HH  TYR A 338     -36.577 129.040   3.772  1.00  0.00     0.217 HD
ENDBRANCH  18  21
ENDBRANCH  14  15
ENDBRANCH  13  14
END_RES TYR A 338
ENDMDL
MODEL 2
REMARK VINA RESULT:    -8.519      3.202      4.924
REMARK INTER + INTRA:         -14.876
REMARK INTER:                 -12.525
REMARK INTRA:                  -2.351
REMARK UNBOUND:                -6.358
REMARK  0 active torsions:
REMARK  status: ('A' for Active; 'I' for Inactive)
REMARK       I    between atoms: C6_6  and  C7_7 
REMARK       I    between atoms: C8_8  and  C9_9 
REMARK       I    between atoms: C10_10  and  C11_11 
REMARK       I    between atoms: C12_16  and  C13_17 
REMARK       I    between atoms: C14_18  and  C15_19 
REMARK       I    between atoms: C16_20  and  C17_21 
REMARK       I    between atoms: C18_22  and  C19_23 
REMARK       I    between atoms: C20_24  and  C21_25 
REMARK       I    between atoms: C22_26  and  C23_27 
REMARK       I    between atoms: C24_28  and  C25_29 
ROOT
HETATM    1  C1  BCR B 620     -43.960 148.407  14.473  1.00 59.21    -0.020 C 
HETATM    2  C2  BCR B 620     -44.829 148.999  15.578  1.00 51.24     0.014 C 
HETATM    3  C3  BCR B 620     -45.755 147.957  16.161  1.00 59.98     0.005 C 
HETATM    4  C4  BCR B 620     -46.705 147.528  15.062  1.00 63.95     0.034 C 
HETATM    5  C5  BCR B 620     -45.922 146.946  13.912  1.00 56.60    -0.077 C 
HETATM    6  C6  BCR B 620     -44.663 147.346  13.641  1.00 59.07    -0.048 C 
HETATM    7  C7  BCR B 620     -43.853 146.798  12.518  1.00 54.02     0.009 C 
HETATM    8  C8  BCR B 620     -43.641 145.491  12.327  1.00 65.68     0.007 C 
HETATM    9  C9  BCR B 620     -42.817 144.932  11.237  1.00 53.63    -0.062 C 
HETATM   10  C10 BCR B 620     -42.692 143.591  11.198  1.00 46.58     0.007 C 
HETATM   11  C11 BCR B 620     -41.884 142.822  10.250  1.00 41.79     0.001 C 
HETATM   12  C33 BCR B 620     -46.639 145.911  13.103  1.00 51.12     0.044 C 
HETATM   13  C31 BCR B 620     -42.689 147.836  15.113  1.00 43.92     0.020 C 
HETATM   14  C32 BCR B 620     -43.603 149.515  13.492  1.00 55.12     0.020 C 
HETATM   15  C34 BCR B 620     -42.141 145.835  10.247  1.00 45.21     0.048 C 
HETATM   16  C12 BCR B 620     -41.768 141.519  10.540  1.00 45.96     0.007 C 
HETATM   17  C13 BCR B 620     -40.949 140.567   9.767  1.00 40.88    -0.062 C 
HETATM   18  C14 BCR B 620     -41.145 139.235   9.878  1.00 41.01     0.007 C 
HETATM   19  C15 BCR B 620     -40.278 138.286   9.168  1.00 42.22     0.001 C 
HETATM   20  C16 BCR B 620     -40.230 137.005   9.574  1.00 44.26     0.001 C 
HETATM   21  C17 BCR B 620     -39.316 136.038   8.949  1.00 36.26     0.007 C 
HETATM   22  C18 BCR B 620     -39.407 134.704   9.073  1.00 40.60    -0.062 C 
HETATM   23  C19 BCR B 620     -38.368 133.862   8.422  1.00 46.29     0.007 C 
HETATM   24  C20 BCR B 620     -38.293 132.527   8.542  1.00 50.06     0.001 C 
HETATM   25  C21 BCR B 620     -37.193 131.814   7.878  1.00 37.91     0.007 C 
HETATM   26  C22 BCR B 620     -37.038 130.474   7.843  1.00 42.97    -0.062 C 
HETATM   27  C23 BCR B 620     -35.959 129.971   7.212  1.00 48.87     0.007 C 
HETATM   28  C24 BCR B 620     -35.519 128.705   7.370  1.00 45.55     0.009 C 
HETATM   29  C25 BCR B 620     -34.303 128.213   6.663  1.00 43.88    -0.048 C 
HETATM   30  C26 BCR B 620     -33.081 128.638   7.054  1.00 47.72    -0.077 C 
HETATM   31  C27 BCR B 620     -31.795 128.197   6.398  1.00 52.50     0.034 C 
HETATM   32  C28 BCR B 620     -32.068 127.746   4.979  1.00 49.92     0.005 C 
HETATM   33  C29 BCR B 620     -33.126 126.666   5.051  1.00 50.61     0.014 C 
HETATM   34  C30 BCR B 620     -34.464 127.233   5.518  1.00 54.77    -0.020 C 
HETATM   35  C35 BCR B 620     -39.868 141.125   8.881  1.00 35.11     0.048 C 
HETATM   36  C36 BCR B 620     -40.537 134.095   9.858  1.00 37.84     0.048 C 
HETATM   37  C37 BCR B 620     -38.038 129.550   8.484  1.00 32.11     0.048 C 
HETATM   38  C38 BCR B 620     -32.921 129.593   8.194  1.00 42.60     0.044 C 
HETATM   39  C39 BCR B 620     -35.342 126.060   5.966  1.00 50.58     0.020 C 
HETATM   40  C40 BCR B 620     -35.126 127.945   4.341  1.00 40.99     0.020 C 
ENDROOT
TORSDOF 10
BEGIN_RES PHE A  61
REMARK  2 active torsions:
REMARK  status: ('A' for Active; 'I' for Inactive)
REMARK    1  A    between atoms: CA   and  CB  
REMARK    2  A    between atoms: CB   and  CG  
ROOT
ATOM      1  CA  PHE A  61     -36.237 128.293  12.768  1.00 39.40     0.164 C 
ENDROOT
BRANCH   1   2
ATOM      2  CB  PHE A  61     -36.813 128.951  11.509  1.00 39.41     0.058 C 
BRANCH   2   3
ATOM      3  CG  PHE A  61     -36.335 130.363  11.268  1.00 39.01    -0.020 A 
ATOM      4  CD2 PHE A  61     -35.102 130.607  10.685  1.00 40.32    -0.004 A 
ATOM      5  CE2 PHE A  61     -34.662 131.907  10.467  1.00 40.20    -0.000 A 
ATOM      6  CZ  PHE A  61     -35.451 132.976  10.826  1.00 40.34    -0.000 A 
ATOM      7  CE1 PHE A  61     -36.680 132.750  11.406  1.00 41.51    -0.000 A 
ATOM      8  CD1 PHE A  61     -37.117 131.451  11.630  1.00 39.94    -0.004 A 
ENDBRANCH   2   3
ENDBRANCH   1   2
END_RES PHE A  61
BEGIN_RES VAL A 134
REMARK  1 active torsions:
REMARK  status: ('A' for Active; 'I' for Inactive)
REMARK    3  A    between atoms: CA   and  CB  
ROOT
ATOM      9  CA  VAL A 134     -29.766 132.051   9.815  1.00 40.75     0.159 C 
ENDROOT
BRANCH   9  10
ATOM     10  CB  VAL A 134     -30.864 132.765   9.009  1.00 40.76     0.029 C 
ATOM     11  CG1 VAL A 134     -31.180 131.998   7.734  1.00 41.76     0.002 C 
ATOM     12  CG2 VAL A 134     -32.121 132.976   9.838  1.00 40.56     0.002 C 
ENDBRANCH   9  10
END_RES VAL A 134
BEGIN_RES TYR A 338
REMARK  3 active torsions:
REMARK  status: ('A' for Active; 'I' for Inactive)
REMARK    4  A    between atoms: CA   and  CB  
REMARK    5  A    between atoms: CB   and  CG  
REMARK    6  A    between atoms: CZ   and  OH  
ROOT
ATOM     13  CA  TYR A 338     -41.631 124.950   6.058  1.00 38.23     0.164 C 
ENDROOT
BRANCH  13  14
ATOM     14  CB  TYR A 338     -41.621 126.456   6.339  1.00 39.15     0.058 C 
BRANCH  14  15
ATOM     15  CG  TYR A 338     -40.427 127.215   5.808  1.00 39.03    -0.020 A 
ATOM     16  CD2 TYR A 338     -40.319 128.580   6.007  1.00 40.65    -0.002 A 
ATOM     17  CE2 TYR A 338     -39.245 129.310   5.520  1.00 40.91     0.024 A 
ATOM     18  CZ  TYR A 338     -38.246 128.671   4.812  1.00 42.33     0.089 A 
ATOM     19  CE1 TYR A 338     -38.329 127.306   4.603  1.00 40.63     0.024 A 
ATOM     20  CD1 TYR A 338     -39.417 126.596   5.087  1.00 39.27    -0.002 A 
BRANCH  18  21
ATOM     21  OH  TYR A 338     -37.180 129.380   4.331  1.00 43.36    -0.359 OA
ATOM     22  HH  TYR A 338     -36.977 129.371   3.403  1.00  0.00     0.217 HD
ENDBRANCH  18  21
ENDBRANCH  14  15
ENDBRANCH  13  14
END_RES TYR A 338
ENDMDL
MODEL 3
REMARK VINA RESULT:    -7.719      3.038      5.094
REMARK INTER + INTRA:         -14.077
REMARK INTER:                 -11.090
REMARK INTRA:                  -2.987
REMARK UNBOUND:                -6.358
REMARK  0 active torsions:
REMARK  status: ('A' for Active; 'I' for Inactive)
REMARK       I    between atoms: C6_6  and  C7_7 
REMARK       I    between atoms: C8_8  and  C9_9 
REMARK       I    between atoms: C10_10  and  C11_11 
REMARK       I    between atoms: C12_16  and  C13_17 
REMARK       I    between atoms: C14_18  and  C15_19 
REMARK       I    between atoms: C16_20  and  C17_21 
REMARK       I    between atoms: C18_22  and  C19_23 
REMARK       I    between atoms: C20_24  and  C21_25 
REMARK       I    between atoms: C22_26  and  C23_27 
REMARK       I    between atoms: C24_28  and  C25_29 
ROOT
HETATM    1  C1  BCR B 620     -43.571 149.012  11.984  1.00 59.21    -0.020 C 
HETATM    2  C2  BCR B 620     -43.679 150.084  13.063  1.00 51.24     0.014 C 
HETATM    3  C3  BCR B 620     -43.431 149.503  14.436  1.00 59.98     0.005 C 
HETATM    4  C4  BCR B 620     -44.540 148.511  14.716  1.00 63.95     0.034 C 
HETATM    5  C5  BCR B 620     -44.519 147.419  13.676  1.00 56.60    -0.077 C 
HETATM    6  C6  BCR B 620     -44.075 147.646  12.423  1.00 59.07    -0.048 C 
HETATM    7  C7  BCR B 620     -44.036 146.599  11.366  1.00 54.02     0.009 C 
HETATM    8  C8  BCR B 620     -43.445 145.409  11.523  1.00 65.68     0.007 C 
HETATM    9  C9  BCR B 620     -43.371 144.371  10.475  1.00 53.63    -0.062 C 
HETATM   10  C10 BCR B 620     -42.724 143.233  10.794  1.00 46.58     0.007 C 
HETATM   11  C11 BCR B 620     -42.476 142.097   9.905  1.00 41.79     0.001 C 
HETATM   12  C33 BCR B 620     -45.029 146.087  14.130  1.00 51.12     0.044 C 
HETATM   13  C31 BCR B 620     -42.109 148.928  11.532  1.00 43.92     0.020 C 
HETATM   14  C32 BCR B 620     -44.461 149.411  10.815  1.00 55.12     0.020 C 
HETATM   15  C34 BCR B 620     -43.975 144.605   9.121  1.00 45.21     0.048 C 
HETATM   16  C12 BCR B 620     -41.641 141.172  10.396  1.00 45.96     0.007 C 
HETATM   17  C13 BCR B 620     -41.195 139.979   9.652  1.00 40.88    -0.062 C 
HETATM   18  C14 BCR B 620     -40.658 138.921  10.297  1.00 41.01     0.007 C 
HETATM   19  C15 BCR B 620     -40.143 137.767   9.550  1.00 42.22     0.001 C 
HETATM   20  C16 BCR B 620     -39.287 136.921  10.149  1.00 44.26     0.001 C 
HETATM   21  C17 BCR B 620     -38.679 135.800   9.417  1.00 36.26     0.007 C 
HETATM   22  C18 BCR B 620     -38.066 134.751   9.989  1.00 40.60    -0.062 C 
HETATM   23  C19 BCR B 620     -37.453 133.724   9.105  1.00 46.29     0.007 C 
HETATM   24  C20 BCR B 620     -36.737 132.677   9.547  1.00 50.06     0.001 C 
HETATM   25  C21 BCR B 620     -36.151 131.753   8.566  1.00 37.91     0.007 C 
HETATM   26  C22 BCR B 620     -35.481 130.620   8.863  1.00 42.97    -0.062 C 
HETATM   27  C23 BCR B 620     -34.979 129.888   7.849  1.00 48.87     0.007 C 
HETATM   28  C24 BCR B 620     -34.040 128.932   8.006  1.00 45.55     0.009 C 
HETATM   29  C25 BCR B 620     -33.505 128.173   6.840  1.00 43.88    -0.048 C 
HETATM   30  C26 BCR B 620     -32.673 128.783   5.967  1.00 47.72    -0.077 C 
HETATM   31  C27 BCR B 620     -32.083 128.097   4.759  1.00 52.50     0.034 C 
HETATM   32  C28 BCR B 620     -32.959 126.932   4.348  1.00 49.92     0.005 C 
HETATM   33  C29 BCR B 620     -33.103 126.034   5.558  1.00 50.61     0.014 C 
HETATM   34  C30 BCR B 620     -33.901 126.721   6.664  1.00 54.77    -0.020 C 
HETATM   35  C35 BCR B 620     -41.324 139.994   8.153  1.00 35.11     0.048 C 
HETATM   36  C36 BCR B 620     -38.010 134.636  11.488  1.00 37.84     0.048 C 
HETATM   37  C37 BCR B 620     -35.295 130.167  10.287  1.00 32.11     0.048 C 
HETATM   38  C38 BCR B 620     -32.269 130.211   6.150  1.00 42.60     0.044 C 
HETATM   39  C39 BCR B 620     -33.652 125.958   7.969  1.00 50.58     0.020 C 
HETATM   40  C40 BCR B 620     -35.385 126.648   6.307  1.00 40.99     0.020 C 
ENDROOT
TORSDOF 10
BEGIN_RES PHE A  61
REMARK  2 active torsions:
REMARK  status: ('A' for Active; 'I' for Inactive)
REMARK    1  A    between atoms: CA   and  CB  
REMARK    2  A    between atoms: CB   and  CG  
ROOT
ATOM      1  CA  PHE A  61     -36.237 128.293  12.768  1.00 39.40     0.164 C 
ENDROOT
BRANCH   1   2
ATOM      2  CB  PHE A  61     -36.813 128.951  11.509  1.00 39.41     0.058 C 
BRANCH   2   3
ATOM      3  CG  PHE A  61     -37.036 128.002  10.355  1.00 39.01    -0.020 A 
ATOM      4  CD2 PHE A  61     -37.998 128.265   9.394  1.00 40.32    -0.004 A 
ATOM      5  CE2 PHE A  61     -38.204 127.390   8.334  1.00 40.20    -0.000 A 
ATOM      6  CZ  PHE A  61     -37.449 126.245   8.223  1.00 40.34    -0.000 A 
ATOM      7  CE1 PHE A  61     -36.487 125.971   9.170  1.00 41.51    -0.000 A 
ATOM      8  CD1 PHE A  61     -36.285 126.842  10.232  1.00 39.94    -0.004 A 
ENDBRANCH   2   3
ENDBRANCH   1   2
END_RES PHE A  61
BEGIN_RES VAL A 134
REMARK  1 active torsions:
REMARK  status: ('A' for Active; 'I' for Inactive)
REMARK    3  A    between atoms: CA   and  CB  
ROOT
ATOM      9  CA  VAL A 134     -29.766 132.051   9.815  1.00 40.75     0.159 C 
ENDROOT
BRANCH   9  10
ATOM     10  CB  VAL A 134     -30.864 132.765   9.009  1.00 40.76     0.029 C 
ATOM     11  CG1 VAL A 134     -30.849 132.308   7.558  1.00 41.76     0.002 C 
ATOM     12  CG2 VAL A 134     -32.238 132.558   9.627  1.00 40.56     0.002 C 
ENDBRANCH   9  10
END_RES VAL A 134
BEGIN_RES TYR A 338
REMARK  3 active torsions:
REMARK  status: ('A' for Active; 'I' for Inactive)
REMARK    4  A    between atoms: CA   and  CB  
REMARK    5  A    between atoms: CB   and  CG  
REMARK    6  A    between atoms: CZ   and  OH  
ROOT
ATOM     13  CA  TYR A 338     -41.631 124.950   6.058  1.00 38.23     0.164 C 
ENDROOT
BRANCH  13  14
ATOM     14  CB  TYR A 338     -41.621 126.456   6.339  1.00 39.15     0.058 C 
BRANCH  14  15
ATOM     15  CG  TYR A 338     -40.408 127.208   5.841  1.00 39.03    -0.020 A 
ATOM     16  CD2 TYR A 338     -39.440 126.560   5.093  1.00 40.65    -0.002 A 
ATOM     17  CE2 TYR A 338     -38.308 127.215   4.634  1.00 40.91     0.024 A 
ATOM     18  CZ  TYR A 338     -38.124 128.554   4.924  1.00 42.33     0.089 A 
ATOM     19  CE1 TYR A 338     -39.080 129.225   5.666  1.00 40.63     0.024 A 
ATOM     20  CD1 TYR A 338     -40.199 128.548   6.127  1.00 39.27    -0.002 A 
BRANCH  18  21
ATOM     21  OH  TYR A 338     -37.013 129.211   4.473  1.00 43.36    -0.359 OA
ATOM     22  HH  TYR A 338     -37.097 129.927   3.854  1.00  0.00     0.217 HD
ENDBRANCH  18  21
ENDBRANCH  14  15
ENDBRANCH  13  14
END_RES TYR A 338
ENDMDL
MODEL 4
REMARK VINA RESULT:    -6.586      1.790      3.733
REMARK INTER + INTRA:         -12.943
REMARK INTER:                 -12.370
REMARK INTRA:                  -0.573
REMARK UNBOUND:                -6.358
REMARK  0 active torsions:
REMARK  status: ('A' for Active; 'I' for Inactive)
REMARK       I    between atoms: C6_6  and  C7_7 
REMARK       I    between atoms: C8_8  and  C9_9 
REMARK       I    between atoms: C10_10  and  C11_11 
REMARK       I    between atoms: C12_16  and  C13_17 
REMARK       I    between atoms: C14_18  and  C15_19 
REMARK       I    between atoms: C16_20  and  C17_21 
REMARK       I    between atoms: C18_22  and  C19_23 
REMARK       I    between atoms: C20_24  and  C21_25 
REMARK       I    between atoms: C22_26  and  C23_27 
REMARK       I    between atoms: C24_28  and  C25_29 
ROOT
HETATM    1  C1  BCR B 620     -46.563 148.874  10.206  1.00 59.21    -0.020 C 
HETATM    2  C2  BCR B 620     -47.023 149.900  11.236  1.00 51.24     0.014 C 
HETATM    3  C3  BCR B 620     -47.044 149.308  12.626  1.00 59.98     0.005 C 
HETATM    4  C4  BCR B 620     -48.085 148.207  12.635  1.00 63.95     0.034 C 
HETATM    5  C5  BCR B 620     -47.715 147.152  11.623  1.00 56.60    -0.077 C 
HETATM    6  C6  BCR B 620     -47.017 147.454  10.510  1.00 59.07    -0.048 C 
HETATM    7  C7  BCR B 620     -46.630 146.445   9.486  1.00 54.02     0.009 C 
HETATM    8  C8  BCR B 620     -45.977 145.313   9.771  1.00 65.68     0.007 C 
HETATM    9  C9  BCR B 620     -45.560 144.315   8.765  1.00 53.63    -0.062 C 
HETATM   10  C10 BCR B 620     -44.895 143.237   9.222  1.00 46.58     0.007 C 
HETATM   11  C11 BCR B 620     -44.337 142.154   8.409  1.00 41.79     0.001 C 
HETATM   12  C33 BCR B 620     -48.182 145.765  11.940  1.00 51.12     0.044 C 
HETATM   13  C31 BCR B 620     -45.035 148.941  10.108  1.00 43.92     0.020 C 
HETATM   14  C32 BCR B 620     -47.192 149.218   8.864  1.00 55.12     0.020 C 
HETATM   15  C34 BCR B 620     -45.853 144.528   7.309  1.00 45.21     0.048 C 
HETATM   16  C12 BCR B 620     -43.551 141.299   9.078  1.00 45.96     0.007 C 
HETATM   17  C13 BCR B 620     -42.829 140.175   8.453  1.00 40.88    -0.062 C 
HETATM   18  C14 BCR B 620     -42.354 139.155   9.201  1.00 41.01     0.007 C 
HETATM   19  C15 BCR B 620     -41.568 138.077   8.590  1.00 42.22     0.001 C 
HETATM   20  C16 BCR B 620     -40.795 137.300   9.369  1.00 44.26     0.001 C 
HETATM   21  C17 BCR B 620     -39.926 136.262   8.794  1.00 36.26     0.007 C 
HETATM   22  C18 BCR B 620     -39.362 135.261   9.488  1.00 40.60    -0.062 C 
HETATM   23  C19 BCR B 620     -38.461 134.321   8.767  1.00 46.29     0.007 C 
HETATM   24  C20 BCR B 620     -37.768 133.336   9.360  1.00 50.06     0.001 C 
HETATM   25  C21 BCR B 620     -36.881 132.500   8.538  1.00 37.91     0.007 C 
HETATM   26  C22 BCR B 620     -36.190 131.427   8.979  1.00 42.97    -0.062 C 
HETATM   27  C23 BCR B 620     -35.397 130.775   8.106  1.00 48.87     0.007 C 
HETATM   28  C24 BCR B 620     -34.430 129.909   8.474  1.00 45.55     0.009 C 
HETATM   29  C25 BCR B 620     -33.566 129.236   7.462  1.00 43.88    -0.048 C 
HETATM   30  C26 BCR B 620     -32.619 129.946   6.811  1.00 47.72    -0.077 C 
HETATM   31  C27 BCR B 620     -31.700 129.353   5.770  1.00 52.50     0.034 C 
HETATM   32  C28 BCR B 620     -32.338 128.122   5.161  1.00 49.92     0.005 C 
HETATM   33  C29 BCR B 620     -32.669 127.181   6.300  1.00 50.61     0.014 C 
HETATM   34  C30 BCR B 620     -33.765 127.758   7.191  1.00 54.77    -0.020 C 
HETATM   35  C35 BCR B 620     -42.607 140.219   6.966  1.00 35.11     0.048 C 
HETATM   36  C36 BCR B 620     -39.644 135.111  10.958  1.00 37.84     0.048 C 
HETATM   37  C37 BCR B 620     -36.296 130.955  10.404  1.00 32.11     0.048 C 
HETATM   38  C38 BCR B 620     -32.412 131.401   7.090  1.00 42.60     0.044 C 
HETATM   39  C39 BCR B 620     -33.751 126.987   8.515  1.00 50.58     0.020 C 
HETATM   40  C40 BCR B 620     -35.111 127.555   6.498  1.00 40.99     0.020 C 
ENDROOT
TORSDOF 10
BEGIN_RES PHE A  61
REMARK  2 active torsions:
REMARK  status: ('A' for Active; 'I' for Inactive)
REMARK    1  A    between atoms: CA   and  CB  
REMARK    2  A    between atoms: CB   and  CG  
ROOT
ATOM      1  CA  PHE A  61     -36.237 128.293  12.768  1.00 39.40     0.164 C 
ENDROOT
BRANCH   1   2
ATOM      2  CB  PHE A  61     -36.813 128.951  11.509  1.00 39.41     0.058 C 
BRANCH   2   3
ATOM      3  CG  PHE A  61     -37.024 128.005  10.351  1.00 39.01    -0.020 A 
ATOM      4  CD2 PHE A  61     -37.970 128.274   9.375  1.00 40.32    -0.004 A 
ATOM      5  CE2 PHE A  61     -38.165 127.401   8.312  1.00 40.20    -0.000 A 
ATOM      6  CZ  PHE A  61     -37.414 126.252   8.211  1.00 40.34    -0.000 A 
ATOM      7  CE1 PHE A  61     -36.468 125.972   9.171  1.00 41.51    -0.000 A 
ATOM      8  CD1 PHE A  61     -36.277 126.841  10.238  1.00 39.94    -0.004 A 
ENDBRANCH   2   3
ENDBRANCH   1   2
END_RES PHE A  61
BEGIN_RES VAL A 134
REMARK  1 active torsions:
REMARK  status: ('A' for Active; 'I' for Inactive)
REMARK    3  A    between atoms: CA   and  CB  
ROOT
ATOM      9  CA  VAL A 134     -29.766 132.051   9.815  1.00 40.75     0.159 C 
ENDROOT
BRANCH   9  10
ATOM     10  CB  VAL A 134     -30.864 132.765   9.009  1.00 40.76     0.029 C 
ATOM     11  CG1 VAL A 134     -32.123 132.933   9.847  1.00 41.76     0.002 C 
ATOM     12  CG2 VAL A 134     -30.386 134.107   8.476  1.00 40.56     0.002 C 
ENDBRANCH   9  10
END_RES VAL A 134
BEGIN_RES TYR A 338
REMARK  3 active torsions:
REMARK  status: ('A' for Active; 'I' for Inactive)
REMARK    4  A    between atoms: CA   and  CB  
REMARK    5  A    between atoms: CB   and  CG  
REMARK    6  A    between atoms: CZ   and  OH  
ROOT
ATOM     13  CA  TYR A 338     -41.631 124.950   6.058  1.00 38.23     0.164 C 
ENDROOT
BRANCH  13  14
ATOM     14  CB  TYR A 338     -41.621 126.456   6.339  1.00 39.15     0.058 C 
BRANCH  14  15
ATOM     15  CG  TYR A 338     -40.401 127.206   5.855  1.00 39.03    -0.020 A 
ATOM     16  CD2 TYR A 338     -40.234 128.545   6.163  1.00 40.65    -0.002 A 
ATOM     17  CE2 TYR A 338     -39.135 129.267   5.723  1.00 40.91     0.024 A 
ATOM     18  CZ  TYR A 338     -38.170 128.647   4.952  1.00 42.33     0.089 A 
ATOM     19  CE1 TYR A 338     -38.313 127.308   4.635  1.00 40.63     0.024 A 
ATOM     20  CD1 TYR A 338     -39.425 126.606   5.074  1.00 39.27    -0.002 A 
BRANCH  18  21
ATOM     21  OH  TYR A 338     -37.081 129.348   4.516  1.00 43.36    -0.359 OA
ATOM     22  HH  TYR A 338     -36.260 129.305   4.992  1.00  0.00     0.217 HD
ENDBRANCH  18  21
ENDBRANCH  14  15
ENDBRANCH  13  14
END_RES TYR A 338
ENDMDL
