MODEL 1
REMARK VINA RESULT:   -10.036      0.000      0.000
REMARK INTER + INTRA:         -16.732
REMARK INTER:                 -10.036
REMARK INTRA:                  -6.696
REMARK UNBOUND:                -6.696
REMARK  0 active torsions:
REMARK  status: ('A' for Active; 'I' for Inactive)
REMARK       I    between atoms: C6_6  and  C7_7 
REMARK       I    between atoms: C8_8  and  C9_9 
REMARK       I    between atoms: C10_10  and  C11_11 
REMARK       I    between atoms: C12_16  and  C13_17 
REMARK       I    between atoms: C14_18  and  C15_19 
REMARK       I    between atoms: C16_20  and  C17_21 
REMARK       I    between atoms: C18_22  and  C19_23 
REMARK       I    between atoms: C20_24  and  C21_25 
REMARK       I    between atoms: C22_26  and  C23_27 
REMARK       I    between atoms: C24_28  and  C25_29 
ROOT
HETATM    1  C1  BCR H 102     -51.144 149.673  10.538  1.00 28.14    -0.020 C 
HETATM    2  C2  BCR H 102     -52.304 150.552  10.155  1.00 33.62     0.014 C 
HETATM    3  C3  BCR H 102     -52.600 150.494   8.644  1.00 29.10     0.005 C 
HETATM    4  C4  BCR H 102     -51.374 150.782   7.759  1.00 27.97     0.034 C 
HETATM    5  C5  BCR H 102     -50.075 150.238   8.315  1.00 24.08    -0.077 C 
HETATM    6  C6  BCR H 102     -49.927 149.819   9.600  1.00 23.59    -0.048 C 
HETATM    7  C7  BCR H 102     -48.615 149.402  10.129  1.00 25.03     0.009 C 
HETATM    8  C8  BCR H 102     -47.733 148.677   9.457  1.00 25.08     0.007 C 
HETATM    9  C9  BCR H 102     -46.475 148.173  10.126  1.00 28.37    -0.062 C 
HETATM   10  C10 BCR H 102     -45.721 147.272   9.495  1.00 29.64     0.007 C 
HETATM   11  C11 BCR H 102     -44.591 146.531  10.038  1.00 28.00     0.001 C 
HETATM   12  C33 BCR H 102     -48.925 150.486   7.327  1.00 24.87     0.044 C 
HETATM   13  C31 BCR H 102     -51.568 148.203  10.445  1.00 29.74     0.020 C 
HETATM   14  C32 BCR H 102     -50.864 149.950  12.010  1.00 29.39     0.020 C 
HETATM   15  C34 BCR H 102     -46.091 148.678  11.502  1.00 29.30     0.048 C 
HETATM   16  C12 BCR H 102     -44.231 145.374   9.470  1.00 33.99     0.007 C 
HETATM   17  C13 BCR H 102     -43.129 144.496  10.003  1.00 31.24    -0.062 C 
HETATM   18  C14 BCR H 102     -42.843 143.317   9.384  1.00 30.81     0.007 C 
HETATM   19  C15 BCR H 102     -41.874 142.267   9.733  1.00 33.09     0.001 C 
HETATM   20  C16 BCR H 102     -41.908 141.106   9.028  1.00 34.61     0.001 C 
HETATM   21  C17 BCR H 102     -41.000 140.013   9.330  1.00 27.93     0.007 C 
HETATM   22  C18 BCR H 102     -41.071 138.787   8.732  1.00 34.07    -0.062 C 
HETATM   23  C19 BCR H 102     -40.047 137.808   9.181  1.00 31.80     0.007 C 
HETATM   24  C20 BCR H 102     -39.846 136.638   8.609  1.00 36.40     0.001 C 
HETATM   25  C21 BCR H 102     -38.835 135.744   9.136  1.00 43.19     0.007 C 
HETATM   26  C22 BCR H 102     -38.724 134.452   8.753  1.00 40.90    -0.062 C 
HETATM   27  C23 BCR H 102     -37.660 133.611   9.392  1.00 39.46     0.007 C 
HETATM   28  C24 BCR H 102     -37.332 132.417   8.887  1.00 42.36     0.009 C 
HETATM   29  C25 BCR H 102     -36.161 131.611   9.353  1.00 45.23    -0.048 C 
HETATM   30  C26 BCR H 102     -35.832 131.364  10.662  1.00 41.91    -0.077 C 
HETATM   31  C27 BCR H 102     -34.596 130.569  11.079  1.00 42.04     0.034 C 
HETATM   32  C28 BCR H 102     -33.483 130.321  10.013  1.00 45.21     0.005 C 
HETATM   33  C29 BCR H 102     -34.247 130.031   8.734  1.00 52.29     0.014 C 
HETATM   34  C30 BCR H 102     -35.225 131.130   8.248  1.00 51.33    -0.020 C 
HETATM   35  C35 BCR H 102     -42.412 144.949  11.230  1.00 31.82     0.048 C 
HETATM   36  C36 BCR H 102     -42.124 138.454   7.721  1.00 41.97     0.048 C 
HETATM   37  C37 BCR H 102     -39.674 133.923   7.699  1.00 55.92     0.048 C 
HETATM   38  C38 BCR H 102     -36.797 131.656  11.787  1.00 38.51     0.044 C 
HETATM   39  C39 BCR H 102     -36.041 130.579   7.057  1.00 45.00     0.020 C 
HETATM   40  C40 BCR H 102     -34.400 132.372   7.844  1.00 52.36     0.020 C 
ENDROOT
TORSDOF 10
BEGIN_RES PHE A  61
REMARK  2 active torsions:
REMARK  status: ('A' for Active; 'I' for Inactive)
REMARK    1  A    between atoms: CA   and  CB  
REMARK    2  A    between atoms: CB   and  CG  
ROOT
ATOM      1  CA  PHE A  61     -36.237 128.293  12.768  1.00 39.40     0.164 C 
ENDROOT
BRANCH   1   2
ATOM      2  CB  PHE A  61     -36.813 128.951  11.509  1.00 39.41     0.058 C 
BRANCH   2   3
ATOM      3  CG  PHE A  61     -36.665 128.128  10.252  1.00 39.01    -0.020 A 
ATOM      4  CD2 PHE A  61     -37.651 128.134   9.277  1.00 40.32    -0.004 A 
ATOM      5  CE2 PHE A  61     -37.515 127.374   8.122  1.00 40.20    -0.000 A 
ATOM      6  CZ  PHE A  61     -36.392 126.603   7.927  1.00 40.34    -0.000 A 
ATOM      7  CE1 PHE A  61     -35.402 126.588   8.885  1.00 41.51    -0.000 A 
ATOM      8  CD1 PHE A  61     -35.540 127.343  10.043  1.00 39.94    -0.004 A 
ENDBRANCH   2   3
ENDBRANCH   1   2
END_RES PHE A  61
BEGIN_RES VAL A 134
REMARK  1 active torsions:
REMARK  status: ('A' for Active; 'I' for Inactive)
REMARK    3  A    between atoms: CA   and  CB  
ROOT
ATOM      9  CA  VAL A 134     -29.766 132.051   9.815  1.00 40.75     0.159 C 
ENDROOT
BRANCH   9  10
ATOM     10  CB  VAL A 134     -30.864 132.765   9.009  1.00 40.76     0.029 C 
ATOM     11  CG1 VAL A 134     -31.243 131.953   7.779  1.00 41.76     0.002 C 
ATOM     12  CG2 VAL A 134     -32.088 133.055   9.863  1.00 40.56     0.002 C 
ENDBRANCH   9  10
END_RES VAL A 134
BEGIN_RES TYR A 338
REMARK  3 active torsions:
REMARK  status: ('A' for Active; 'I' for Inactive)
REMARK    4  A    between atoms: CA   and  CB  
REMARK    5  A    between atoms: CB   and  CG  
REMARK    6  A    between atoms: CZ   and  OH  
ROOT
ATOM     13  CA  TYR A 338     -41.631 124.950   6.058  1.00 38.23     0.164 C 
ENDROOT
BRANCH  13  14
ATOM     14  CB  TYR A 338     -41.621 126.456   6.339  1.00 39.15     0.058 C 
BRANCH  14  15
ATOM     15  CG  TYR A 338     -40.406 127.208   5.845  1.00 39.03    -0.020 A 
ATOM     16  CD2 TYR A 338     -39.436 126.559   5.100  1.00 40.65    -0.002 A 
ATOM     17  CE2 TYR A 338     -38.302 127.213   4.644  1.00 40.91     0.024 A 
ATOM     18  CZ  TYR A 338     -38.118 128.552   4.935  1.00 42.33     0.089 A 
ATOM     19  CE1 TYR A 338     -39.076 129.223   5.674  1.00 40.63     0.024 A 
ATOM     20  CD1 TYR A 338     -40.197 128.548   6.132  1.00 39.27    -0.002 A 
BRANCH  18  21
ATOM     21  OH  TYR A 338     -37.006 129.208   4.487  1.00 43.36    -0.359 OA
ATOM     22  HH  TYR A 338     -36.177 128.750   4.408  1.00  0.00     0.217 HD
ENDBRANCH  18  21
ENDBRANCH  14  15
ENDBRANCH  13  14
END_RES TYR A 338
ENDMDL
MODEL 2
REMARK VINA RESULT:    -7.143      1.967     16.575
REMARK INTER + INTRA:         -13.839
REMARK INTER:                 -10.633
REMARK INTRA:                  -3.205
REMARK UNBOUND:                -6.696
REMARK  0 active torsions:
REMARK  status: ('A' for Active; 'I' for Inactive)
REMARK       I    between atoms: C6_6  and  C7_7 
REMARK       I    between atoms: C8_8  and  C9_9 
REMARK       I    between atoms: C10_10  and  C11_11 
REMARK       I    between atoms: C12_16  and  C13_17 
REMARK       I    between atoms: C14_18  and  C15_19 
REMARK       I    between atoms: C16_20  and  C17_21 
REMARK       I    between atoms: C18_22  and  C19_23 
REMARK       I    between atoms: C20_24  and  C21_25 
REMARK       I    between atoms: C22_26  and  C23_27 
REMARK       I    between atoms: C24_28  and  C25_29 
ROOT
HETATM    1  C1  BCR H 102     -31.918 130.100   7.063  1.00 28.14    -0.020 C 
HETATM    2  C2  BCR H 102     -31.021 129.084   6.410  1.00 33.62     0.014 C 
HETATM    3  C3  BCR H 102     -31.652 128.487   5.138  1.00 29.10     0.005 C 
HETATM    4  C4  BCR H 102     -33.065 127.917   5.353  1.00 27.97     0.034 C 
HETATM    5  C5  BCR H 102     -33.903 128.710   6.335  1.00 24.08    -0.077 C 
HETATM    6  C6  BCR H 102     -33.385 129.636   7.184  1.00 23.59    -0.048 C 
HETATM    7  C7  BCR H 102     -34.221 130.303   8.201  1.00 25.03     0.009 C 
HETATM    8  C8  BCR H 102     -35.460 130.723   7.992  1.00 25.08     0.007 C 
HETATM    9  C9  BCR H 102     -36.192 131.525   9.043  1.00 28.37    -0.062 C 
HETATM   10  C10 BCR H 102     -37.345 132.115   8.723  1.00 29.64     0.007 C 
HETATM   11  C11 BCR H 102     -38.097 133.071   9.521  1.00 28.00     0.001 C 
HETATM   12  C33 BCR H 102     -35.322 128.128   6.417  1.00 24.87     0.044 C 
HETATM   13  C31 BCR H 102     -31.953 131.372   6.207  1.00 29.74     0.020 C 
HETATM   14  C32 BCR H 102     -31.248 130.482   8.377  1.00 29.39     0.020 C 
HETATM   15  C34 BCR H 102     -35.610 131.664  10.435  1.00 29.30     0.048 C 
HETATM   16  C12 BCR H 102     -38.957 133.900   8.916  1.00 33.99     0.007 C 
HETATM   17  C13 BCR H 102     -39.722 134.976   9.641  1.00 31.24    -0.062 C 
HETATM   18  C14 BCR H 102     -40.557 135.799   8.946  1.00 30.81     0.007 C 
HETATM   19  C15 BCR H 102     -41.358 136.946   9.397  1.00 33.09     0.001 C 
HETATM   20  C16 BCR H 102     -41.982 137.700   8.455  1.00 34.61     0.001 C 
HETATM   21  C17 BCR H 102     -42.771 138.864   8.820  1.00 27.93     0.007 C 
HETATM   22  C18 BCR H 102     -43.319 139.720   7.908  1.00 34.07    -0.062 C 
HETATM   23  C19 BCR H 102     -44.093 140.848   8.489  1.00 31.80     0.007 C 
HETATM   24  C20 BCR H 102     -44.830 141.678   7.779  1.00 36.40     0.001 C 
HETATM   25  C21 BCR H 102     -45.530 142.761   8.439  1.00 43.19     0.007 C 
HETATM   26  C22 BCR H 102     -46.116 143.777   7.765  1.00 40.90    -0.062 C 
HETATM   27  C23 BCR H 102     -46.784 144.861   8.555  1.00 39.46     0.007 C 
HETATM   28  C24 BCR H 102     -47.590 145.748   7.962  1.00 42.36     0.009 C 
HETATM   29  C25 BCR H 102     -48.434 146.734   8.706  1.00 45.23    -0.048 C 
HETATM   30  C26 BCR H 102     -48.009 147.524   9.744  1.00 41.91    -0.077 C 
HETATM   31  C27 BCR H 102     -48.929 148.482  10.498  1.00 42.04     0.034 C 
HETATM   32  C28 BCR H 102     -50.472 148.317  10.322  1.00 45.21     0.005 C 
HETATM   33  C29 BCR H 102     -50.649 148.003   8.848  1.00 52.29     0.014 C 
HETATM   34  C30 BCR H 102     -49.908 146.753   8.312  1.00 51.33    -0.020 C 
HETATM   35  C35 BCR H 102     -39.502 135.117  11.108  1.00 31.82     0.048 C 
HETATM   36  C36 BCR H 102     -43.125 139.543   6.433  1.00 41.97     0.048 C 
HETATM   37  C37 BCR H 102     -46.071 143.765   6.251  1.00 55.92     0.048 C 
HETATM   38  C38 BCR H 102     -46.542 147.682  10.067  1.00 38.51     0.044 C 
HETATM   39  C39 BCR H 102     -50.051 146.710   6.774  1.00 45.00     0.020 C 
HETATM   40  C40 BCR H 102     -50.523 145.500   8.974  1.00 52.36     0.020 C 
ENDROOT
TORSDOF 10
BEGIN_RES PHE A  61
REMARK  2 active torsions:
REMARK  status: ('A' for Active; 'I' for Inactive)
REMARK    1  A    between atoms: CA   and  CB  
REMARK    2  A    between atoms: CB   and  CG  
ROOT
ATOM      1  CA  PHE A  61     -36.237 128.293  12.768  1.00 39.40     0.164 C 
ENDROOT
BRANCH   1   2
ATOM      2  CB  PHE A  61     -36.813 128.951  11.509  1.00 39.41     0.058 C 
BRANCH   2   3
ATOM      3  CG  PHE A  61     -36.773 128.080  10.276  1.00 39.01    -0.020 A 
ATOM      4  CD2 PHE A  61     -37.846 128.038   9.399  1.00 40.32    -0.004 A 
ATOM      5  CE2 PHE A  61     -37.809 127.234   8.267  1.00 40.20    -0.000 A 
ATOM      6  CZ  PHE A  61     -36.699 126.467   7.997  1.00 40.34    -0.000 A 
ATOM      7  CE1 PHE A  61     -35.624 126.499   8.856  1.00 41.51    -0.000 A 
ATOM      8  CD1 PHE A  61     -35.663 127.298   9.992  1.00 39.94    -0.004 A 
ENDBRANCH   2   3
ENDBRANCH   1   2
END_RES PHE A  61
BEGIN_RES VAL A 134
REMARK  1 active torsions:
REMARK  status: ('A' for Active; 'I' for Inactive)
REMARK    3  A    between atoms: CA   and  CB  
ROOT
ATOM      9  CA  VAL A 134     -29.766 132.051   9.815  1.00 40.75     0.159 C 
ENDROOT
BRANCH   9  10
ATOM     10  CB  VAL A 134     -30.864 132.765   9.009  1.00 40.76     0.029 C 
ATOM     11  CG1 VAL A 134     -32.108 132.973   9.861  1.00 41.76     0.002 C 
ATOM     12  CG2 VAL A 134     -30.372 134.086   8.439  1.00 40.56     0.002 C 
ENDBRANCH   9  10
END_RES VAL A 134
BEGIN_RES TYR A 338
REMARK  3 active torsions:
REMARK  status: ('A' for Active; 'I' for Inactive)
REMARK    4  A    between atoms: CA   and  CB  
REMARK    5  A    between atoms: CB   and  CG  
REMARK    6  A    between atoms: CZ   and  OH  
ROOT
ATOM     13  CA  TYR A 338     -41.631 124.950   6.058  1.00 38.23     0.164 C 
ENDROOT
BRANCH  13  14
ATOM     14  CB  TYR A 338     -41.621 126.456   6.339  1.00 39.15     0.058 C 
BRANCH  14  15
ATOM     15  CG  TYR A 338     -40.410 127.209   5.838  1.00 39.03    -0.020 A 
ATOM     16  CD2 TYR A 338     -40.230 128.543   6.163  1.00 40.65    -0.002 A 
ATOM     17  CE2 TYR A 338     -39.140 129.268   5.708  1.00 40.91     0.024 A 
ATOM     18  CZ  TYR A 338     -38.196 128.657   4.904  1.00 42.33     0.089 A 
ATOM     19  CE1 TYR A 338     -38.351 127.323   4.569  1.00 40.63     0.024 A 
ATOM     20  CD1 TYR A 338     -39.456 126.619   5.024  1.00 39.27    -0.002 A 
BRANCH  18  21
ATOM     21  OH  TYR A 338     -37.115 129.361   4.453  1.00 43.36    -0.359 OA
ATOM     22  HH  TYR A 338     -36.920 130.221   4.807  1.00  0.00     0.217 HD
ENDBRANCH  18  21
ENDBRANCH  14  15
ENDBRANCH  13  14
END_RES TYR A 338
ENDMDL
