MODEL 1
REMARK VINA RESULT:    -7.520      0.000      0.000
REMARK INTER + INTRA:         -11.028
REMARK INTER:                  -7.520
REMARK INTRA:                  -3.508
REMARK UNBOUND:                -3.508
REMARK  0 active torsions:
REMARK  status: ('A' for Active; 'I' for Inactive)
REMARK       I    between atoms: C6_6  and  C7_7 
REMARK       I    between atoms: C8_8  and  C9_9 
REMARK       I    between atoms: C10_10  and  C11_11 
REMARK       I    between atoms: C12_16  and  C13_17 
REMARK       I    between atoms: C14_18  and  C15_19 
REMARK       I    between atoms: C16_20  and  C17_21 
REMARK       I    between atoms: C18_22  and  C19_23 
REMARK       I    between atoms: C20_24  and  C21_25 
REMARK       I    between atoms: C22_26  and  C23_27 
REMARK       I    between atoms: C24_28  and  C25_29 
ROOT
HETATM    1  C1  BCR D 404     -50.337 146.737   9.109  1.00 32.35    -0.020 C 
HETATM    2  C2  BCR D 404     -51.818 146.873   9.470  1.00 35.21     0.014 C 
HETATM    3  C3  BCR D 404     -52.481 145.918  10.447  1.00 30.49     0.005 C 
HETATM    4  C4  BCR D 404     -52.061 144.435  10.230  1.00 29.98     0.034 C 
HETATM    5  C5  BCR D 404     -50.715 144.254   9.582  1.00 28.73    -0.077 C 
HETATM    6  C6  BCR D 404     -49.924 145.275   9.078  1.00 29.98    -0.048 C 
HETATM    7  C7  BCR D 404     -48.622 144.935   8.443  1.00 28.21     0.009 C 
HETATM    8  C8  BCR D 404     -47.613 144.286   9.086  1.00 26.47     0.007 C 
HETATM    9  C9  BCR D 404     -46.421 143.926   8.312  1.00 27.48    -0.062 C 
HETATM   10  C10 BCR D 404     -45.522 143.133   8.896  1.00 25.45     0.007 C 
HETATM   11  C11 BCR D 404     -44.337 142.578   8.241  1.00 24.55     0.001 C 
HETATM   12  C33 BCR D 404     -50.301 142.781   9.508  1.00 26.94     0.044 C 
HETATM   13  C31 BCR D 404     -49.326 147.506   9.997  1.00 34.86     0.020 C 
HETATM   14  C32 BCR D 404     -50.321 147.421   7.758  1.00 34.02     0.020 C 
HETATM   15  C34 BCR D 404     -46.226 144.414   6.891  1.00 28.88     0.048 C 
HETATM   16  C12 BCR D 404     -43.634 141.746   9.025  1.00 25.39     0.007 C 
HETATM   17  C13 BCR D 404     -42.447 140.971   8.516  1.00 26.11    -0.062 C 
HETATM   18  C14 BCR D 404     -41.885 140.043   9.341  1.00 25.50     0.007 C 
HETATM   19  C15 BCR D 404     -40.773 139.156   8.942  1.00 25.53     0.001 C 
HETATM   20  C16 BCR D 404     -40.341 138.183   9.752  1.00 28.34     0.001 C 
HETATM   21  C17 BCR D 404     -39.325 137.218   9.311  1.00 25.13     0.007 C 
HETATM   22  C18 BCR D 404     -38.939 136.077   9.968  1.00 24.53    -0.062 C 
HETATM   23  C19 BCR D 404     -37.960 135.198   9.267  1.00 25.17     0.007 C 
HETATM   24  C20 BCR D 404     -37.452 134.096   9.844  1.00 27.12     0.001 C 
HETATM   25  C21 BCR D 404     -36.584 133.269   8.984  1.00 29.28     0.007 C 
HETATM   26  C22 BCR D 404     -35.987 132.100   9.358  1.00 33.93    -0.062 C 
HETATM   27  C23 BCR D 404     -35.211 131.343   8.334  1.00 38.17     0.007 C 
HETATM   28  C24 BCR D 404     -35.046 130.003   8.453  1.00 46.63     0.009 C 
HETATM   29  C25 BCR D 404     -34.382 129.128   7.410  1.00 52.79    -0.048 C 
HETATM   30  C26 BCR D 404     -35.016 128.958   6.234  1.00 55.25    -0.077 C 
HETATM   31  C27 BCR D 404     -34.427 128.111   5.118  1.00 57.58     0.034 C 
HETATM   32  C28 BCR D 404     -32.916 128.260   5.167  1.00 53.18     0.005 C 
HETATM   33  C29 BCR D 404     -32.518 127.619   6.468  1.00 51.54     0.014 C 
HETATM   34  C30 BCR D 404     -33.088 128.406   7.642  1.00 47.55    -0.020 C 
HETATM   35  C35 BCR D 404     -41.926 141.233   7.119  1.00 27.35     0.048 C 
HETATM   36  C36 BCR D 404     -39.469 135.626  11.314  1.00 24.12     0.048 C 
HETATM   37  C37 BCR D 404     -36.166 131.552  10.743  1.00 31.42     0.048 C 
HETATM   38  C38 BCR D 404     -36.320 129.648   5.970  1.00 57.67     0.044 C 
HETATM   39  C39 BCR D 404     -32.058 129.459   8.010  1.00 52.80     0.020 C 
HETATM   40  C40 BCR D 404     -33.434 127.415   8.728  1.00 45.94     0.020 C 
ENDROOT
TORSDOF 10
BEGIN_RES PHE A  61
REMARK  2 active torsions:
REMARK  status: ('A' for Active; 'I' for Inactive)
REMARK    1  A    between atoms: CA   and  CB  
REMARK    2  A    between atoms: CB   and  CG  
ROOT
ATOM      1  CA  PHE A  61     -36.237 128.293  12.768  1.00 39.40     0.164 C 
ENDROOT
BRANCH   1   2
ATOM      2  CB  PHE A  61     -36.813 128.951  11.509  1.00 39.41     0.058 C 
BRANCH   2   3
ATOM      3  CG  PHE A  61     -36.874 128.044  10.303  1.00 39.01    -0.020 A 
ATOM      4  CD2 PHE A  61     -35.989 126.986  10.163  1.00 40.32    -0.004 A 
ATOM      5  CE2 PHE A  61     -36.044 126.155   9.052  1.00 40.20    -0.000 A 
ATOM      6  CZ  PHE A  61     -36.985 126.369   8.070  1.00 40.34    -0.000 A 
ATOM      7  CE1 PHE A  61     -37.872 127.415   8.195  1.00 41.51    -0.000 A 
ATOM      8  CD1 PHE A  61     -37.813 128.251   9.303  1.00 39.94    -0.004 A 
ENDBRANCH   2   3
ENDBRANCH   1   2
END_RES PHE A  61
BEGIN_RES VAL A 134
REMARK  1 active torsions:
REMARK  status: ('A' for Active; 'I' for Inactive)
REMARK    3  A    between atoms: CA   and  CB  
ROOT
ATOM      9  CA  VAL A 134     -29.766 132.051   9.815  1.00 40.75     0.159 C 
ENDROOT
BRANCH   9  10
ATOM     10  CB  VAL A 134     -30.864 132.765   9.009  1.00 40.76     0.029 C 
ATOM     11  CG1 VAL A 134     -30.980 132.170   7.613  1.00 41.76     0.002 C 
ATOM     12  CG2 VAL A 134     -32.204 132.724   9.727  1.00 40.56     0.002 C 
ENDBRANCH   9  10
END_RES VAL A 134
BEGIN_RES TYR A 338
REMARK  3 active torsions:
REMARK  status: ('A' for Active; 'I' for Inactive)
REMARK    4  A    between atoms: CA   and  CB  
REMARK    5  A    between atoms: CB   and  CG  
REMARK    6  A    between atoms: CZ   and  OH  
ROOT
ATOM     13  CA  TYR A 338     -41.631 124.950   6.058  1.00 38.23     0.164 C 
ENDROOT
BRANCH  13  14
ATOM     14  CB  TYR A 338     -41.621 126.456   6.339  1.00 39.15     0.058 C 
BRANCH  14  15
ATOM     15  CG  TYR A 338     -40.463 127.226   5.748  1.00 39.03    -0.020 A 
ATOM     16  CD2 TYR A 338     -40.357 128.593   5.943  1.00 40.65    -0.002 A 
ATOM     17  CE2 TYR A 338     -39.317 129.333   5.402  1.00 40.91     0.024 A 
ATOM     18  CZ  TYR A 338     -38.349 128.703   4.643  1.00 42.33     0.089 A 
ATOM     19  CE1 TYR A 338     -38.430 127.337   4.438  1.00 40.63     0.024 A 
ATOM     20  CD1 TYR A 338     -39.485 126.617   4.976  1.00 39.27    -0.002 A 
BRANCH  18  21
ATOM     21  OH  TYR A 338     -37.316 129.422   4.109  1.00 43.36    -0.359 OA
ATOM     22  HH  TYR A 338     -36.458 129.406   4.517  1.00  0.00     0.217 HD
ENDBRANCH  18  21
ENDBRANCH  14  15
ENDBRANCH  13  14
END_RES TYR A 338
ENDMDL
MODEL 2
REMARK VINA RESULT:    -5.110      0.690     16.149
REMARK INTER + INTRA:          -8.618
REMARK INTER:                  -4.744
REMARK INTRA:                  -3.874
REMARK UNBOUND:                -3.508
REMARK  0 active torsions:
REMARK  status: ('A' for Active; 'I' for Inactive)
REMARK       I    between atoms: C6_6  and  C7_7 
REMARK       I    between atoms: C8_8  and  C9_9 
REMARK       I    between atoms: C10_10  and  C11_11 
REMARK       I    between atoms: C12_16  and  C13_17 
REMARK       I    between atoms: C14_18  and  C15_19 
REMARK       I    between atoms: C16_20  and  C17_21 
REMARK       I    between atoms: C18_22  and  C19_23 
REMARK       I    between atoms: C20_24  and  C21_25 
REMARK       I    between atoms: C22_26  and  C23_27 
REMARK       I    between atoms: C24_28  and  C25_29 
ROOT
HETATM    1  C1  BCR D 404     -33.406 129.035   8.390  1.00 32.35    -0.020 C 
HETATM    2  C2  BCR D 404     -33.013 127.888   7.455  1.00 35.21     0.014 C 
HETATM    3  C3  BCR D 404     -33.320 127.945   5.970  1.00 30.49     0.005 C 
HETATM    4  C4  BCR D 404     -34.743 128.495   5.662  1.00 29.98     0.034 C 
HETATM    5  C5  BCR D 404     -35.306 129.401   6.722  1.00 28.73    -0.077 C 
HETATM    6  C6  BCR D 404     -34.719 129.660   7.951  1.00 29.98    -0.048 C 
HETATM    7  C7  BCR D 404     -35.412 130.565   8.908  1.00 28.21     0.009 C 
HETATM    8  C8  BCR D 404     -35.726 131.860   8.632  1.00 26.47     0.007 C 
HETATM    9  C9  BCR D 404     -36.498 132.609   9.630  1.00 27.48    -0.062 C 
HETATM   10  C10 BCR D 404     -36.960 133.809   9.278  1.00 25.45     0.007 C 
HETATM   11  C11 BCR D 404     -37.841 134.644  10.094  1.00 24.55     0.001 C 
HETATM   12  C33 BCR D 404     -36.650 130.010   6.310  1.00 26.94     0.044 C 
HETATM   13  C31 BCR D 404     -32.369 130.171   8.581  1.00 34.86     0.020 C 
HETATM   14  C32 BCR D 404     -33.475 128.298   9.712  1.00 34.02     0.020 C 
HETATM   15  C34 BCR D 404     -36.783 132.033  11.001  1.00 28.88     0.048 C 
HETATM   16  C12 BCR D 404     -38.227 135.773   9.480  1.00 25.39     0.007 C 
HETATM   17  C13 BCR D 404     -39.228 136.720  10.088  1.00 26.11    -0.062 C 
HETATM   18  C14 BCR D 404     -39.667 137.764   9.330  1.00 25.50     0.007 C 
HETATM   19  C15 BCR D 404     -40.707 138.717   9.770  1.00 25.53     0.001 C 
HETATM   20  C16 BCR D 404     -41.184 139.651   8.939  1.00 28.34     0.001 C 
HETATM   21  C17 BCR D 404     -42.305 140.516   9.326  1.00 25.13     0.007 C 
HETATM   22  C18 BCR D 404     -43.001 141.372   8.509  1.00 24.53    -0.062 C 
HETATM   23  C19 BCR D 404     -44.173 142.069   9.110  1.00 25.17     0.007 C 
HETATM   24  C20 BCR D 404     -44.881 142.987   8.430  1.00 27.12     0.001 C 
HETATM   25  C21 BCR D 404     -46.079 143.506   9.118  1.00 29.28     0.007 C 
HETATM   26  C22 BCR D 404     -46.950 144.419   8.602  1.00 33.93    -0.062 C 
HETATM   27  C23 BCR D 404     -48.162 144.770   9.398  1.00 38.17     0.007 C 
HETATM   28  C24 BCR D 404     -49.279 145.225   8.781  1.00 46.63     0.009 C 
HETATM   29  C25 BCR D 404     -50.595 145.492   9.483  1.00 52.79    -0.048 C 
HETATM   30  C26 BCR D 404     -51.278 144.436   9.965  1.00 55.25    -0.077 C 
HETATM   31  C27 BCR D 404     -52.600 144.599  10.696  1.00 57.58     0.034 C 
HETATM   32  C28 BCR D 404     -52.546 145.904  11.472  1.00 53.18     0.005 C 
HETATM   33  C29 BCR D 404     -52.491 146.969  10.411  1.00 51.54     0.014 C 
HETATM   34  C30 BCR D 404     -51.193 146.860   9.619  1.00 47.55    -0.020 C 
HETATM   35  C35 BCR D 404     -39.720 136.482  11.500  1.00 27.35     0.048 C 
HETATM   36  C36 BCR D 404     -42.698 141.615   7.044  1.00 24.12     0.048 C 
HETATM   37  C37 BCR D 404     -46.736 145.004   7.237  1.00 31.42     0.048 C 
HETATM   38  C38 BCR D 404     -50.721 143.051   9.833  1.00 57.67     0.044 C 
HETATM   39  C39 BCR D 404     -50.167 147.720  10.334  1.00 52.80     0.020 C 
HETATM   40  C40 BCR D 404     -51.500 147.249   8.191  1.00 45.94     0.020 C 
ENDROOT
TORSDOF 10
BEGIN_RES PHE A  61
REMARK  2 active torsions:
REMARK  status: ('A' for Active; 'I' for Inactive)
REMARK    1  A    between atoms: CA   and  CB  
REMARK    2  A    between atoms: CB   and  CG  
ROOT
ATOM      1  CA  PHE A  61     -36.237 128.293  12.768  1.00 39.40     0.164 C 
ENDROOT
BRANCH   1   2
ATOM      2  CB  PHE A  61     -36.813 128.951  11.509  1.00 39.41     0.058 C 
BRANCH   2   3
ATOM      3  CG  PHE A  61     -36.870 128.045  10.302  1.00 39.01    -0.020 A 
ATOM      4  CD2 PHE A  61     -35.926 127.048  10.115  1.00 40.32    -0.004 A 
ATOM      5  CE2 PHE A  61     -35.978 126.218   9.002  1.00 40.20    -0.000 A 
ATOM      6  CZ  PHE A  61     -36.977 126.372   8.068  1.00 40.34    -0.000 A 
ATOM      7  CE1 PHE A  61     -37.924 127.357   8.240  1.00 41.51    -0.000 A 
ATOM      8  CD1 PHE A  61     -37.868 128.191   9.349  1.00 39.94    -0.004 A 
ENDBRANCH   2   3
ENDBRANCH   1   2
END_RES PHE A  61
BEGIN_RES VAL A 134
REMARK  1 active torsions:
REMARK  status: ('A' for Active; 'I' for Inactive)
REMARK    3  A    between atoms: CA   and  CB  
ROOT
ATOM      9  CA  VAL A 134     -29.766 132.051   9.815  1.00 40.75     0.159 C 
ENDROOT
BRANCH   9  10
ATOM     10  CB  VAL A 134     -30.864 132.765   9.009  1.00 40.76     0.029 C 
ATOM     11  CG1 VAL A 134     -31.039 132.114   7.645  1.00 41.76     0.002 C 
ATOM     12  CG2 VAL A 134     -32.183 132.799   9.765  1.00 40.56     0.002 C 
ENDBRANCH   9  10
END_RES VAL A 134
BEGIN_RES TYR A 338
REMARK  3 active torsions:
REMARK  status: ('A' for Active; 'I' for Inactive)
REMARK    4  A    between atoms: CA   and  CB  
REMARK    5  A    between atoms: CB   and  CG  
REMARK    6  A    between atoms: CZ   and  OH  
ROOT
ATOM     13  CA  TYR A 338     -41.631 124.950   6.058  1.00 38.23     0.164 C 
ENDROOT
BRANCH  13  14
ATOM     14  CB  TYR A 338     -41.621 126.456   6.339  1.00 39.15     0.058 C 
BRANCH  14  15
ATOM     15  CG  TYR A 338     -40.465 127.227   5.744  1.00 39.03    -0.020 A 
ATOM     16  CD2 TYR A 338     -39.494 126.574   5.004  1.00 40.65    -0.002 A 
ATOM     17  CE2 TYR A 338     -38.413 127.246   4.457  1.00 40.91     0.024 A 
ATOM     18  CZ  TYR A 338     -38.284 128.609   4.647  1.00 42.33     0.089 A 
ATOM     19  CE1 TYR A 338     -39.245 129.285   5.379  1.00 40.63     0.024 A 
ATOM     20  CD1 TYR A 338     -40.312 128.592   5.929  1.00 39.27    -0.002 A 
BRANCH  18  21
ATOM     21  OH  TYR A 338     -37.224 129.284   4.108  1.00 43.36    -0.359 OA
ATOM     22  HH  TYR A 338     -36.918 129.077   3.233  1.00  0.00     0.217 HD
ENDBRANCH  18  21
ENDBRANCH  14  15
ENDBRANCH  13  14
END_RES TYR A 338
ENDMDL
