MODEL 1
REMARK VINA RESULT:    -9.940      0.000      0.000
REMARK INTER + INTRA:         -16.821
REMARK INTER:                  -9.940
REMARK INTRA:                  -6.882
REMARK UNBOUND:                -6.882
REMARK  0 active torsions:
REMARK  status: ('A' for Active; 'I' for Inactive)
REMARK       I    between atoms: C6_6  and  C7_7 
REMARK       I    between atoms: C8_8  and  C9_9 
REMARK       I    between atoms: C10_10  and  C11_11 
REMARK       I    between atoms: C12_16  and  C13_17 
REMARK       I    between atoms: C14_18  and  C15_19 
REMARK       I    between atoms: C16_20  and  C17_21 
REMARK       I    between atoms: C18_22  and  C19_23 
REMARK       I    between atoms: C20_24  and  C21_25 
REMARK       I    between atoms: C22_26  and  C23_27 
REMARK       I    between atoms: C24_28  and  C25_29 
ROOT
HETATM    1  C1  BCR C 514     -35.181 131.310   8.332  1.00 46.03    -0.020 C 
HETATM    2  C2  BCR C 514     -34.206 130.221   8.682  1.00 36.42     0.014 C 
HETATM    3  C3  BCR C 514     -33.622 130.450  10.033  1.00 38.25     0.005 C 
HETATM    4  C4  BCR C 514     -34.715 130.418  11.059  1.00 35.91     0.034 C 
HETATM    5  C5  BCR C 514     -35.907 131.191  10.641  1.00 46.41    -0.077 C 
HETATM    6  C6  BCR C 514     -36.140 131.623   9.406  1.00 48.24    -0.048 C 
HETATM    7  C7  BCR C 514     -37.338 132.364   8.990  1.00 37.95     0.009 C 
HETATM    8  C8  BCR C 514     -37.612 133.614   9.360  1.00 29.80     0.007 C 
HETATM    9  C9  BCR C 514     -38.755 134.398   8.847  1.00 34.42    -0.062 C 
HETATM   10  C10 BCR C 514     -39.133 135.559   9.418  1.00 30.24     0.007 C 
HETATM   11  C11 BCR C 514     -40.194 136.425   8.945  1.00 33.35     0.001 C 
HETATM   12  C33 BCR C 514     -36.846 131.443  11.742  1.00 46.30     0.044 C 
HETATM   13  C31 BCR C 514     -35.921 130.786   7.136  1.00 39.84     0.020 C 
HETATM   14  C32 BCR C 514     -34.414 132.570   7.985  1.00 53.07     0.020 C 
HETATM   15  C34 BCR C 514     -39.514 133.874   7.695  1.00 30.46     0.048 C 
HETATM   16  C12 BCR C 514     -40.275 137.674   9.417  1.00 34.08     0.007 C 
HETATM   17  C13 BCR C 514     -41.407 138.579   9.290  1.00 43.06    -0.062 C 
HETATM   18  C14 BCR C 514     -41.242 139.878   9.623  1.00 44.33     0.007 C 
HETATM   19  C15 BCR C 514     -42.024 140.969   9.079  1.00 30.45     0.001 C 
HETATM   20  C16 BCR C 514     -42.378 142.007   9.836  1.00 31.93     0.001 C 
HETATM   21  C17 BCR C 514     -43.143 143.081   9.231  1.00 33.60     0.007 C 
HETATM   22  C18 BCR C 514     -43.090 144.386   9.571  1.00 30.74    -0.062 C 
HETATM   23  C19 BCR C 514     -44.309 145.168   9.601  1.00 33.81     0.007 C 
HETATM   24  C20 BCR C 514     -44.351 146.501   9.674  1.00 33.30     0.001 C 
HETATM   25  C21 BCR C 514     -45.614 147.161   9.407  1.00 26.27     0.007 C 
HETATM   26  C22 BCR C 514     -45.903 148.480   9.500  1.00 33.99    -0.062 C 
HETATM   27  C23 BCR C 514     -47.308 148.859   9.307  1.00 36.02     0.007 C 
HETATM   28  C24 BCR C 514     -47.851 150.049   9.609  1.00 32.82     0.009 C 
HETATM   29  C25 BCR C 514     -49.230 150.427   9.293  1.00 23.72    -0.048 C 
HETATM   30  C26 BCR C 514     -49.620 150.670   8.043  1.00 28.89    -0.077 C 
HETATM   31  C27 BCR C 514     -50.991 151.059   7.626  1.00 31.77     0.034 C 
HETATM   32  C28 BCR C 514     -52.028 150.762   8.685  1.00 32.56     0.005 C 
HETATM   33  C29 BCR C 514     -51.534 151.160  10.046  1.00 35.64     0.014 C 
HETATM   34  C30 BCR C 514     -50.205 150.516  10.429  1.00 36.04    -0.020 C 
HETATM   35  C35 BCR C 514     -42.573 138.186   8.468  1.00 31.96     0.048 C 
HETATM   36  C36 BCR C 514     -41.909 144.934  10.245  1.00 34.59     0.048 C 
HETATM   37  C37 BCR C 514     -44.971 149.475  10.108  1.00 38.91     0.048 C 
HETATM   38  C38 BCR C 514     -48.697 150.578   6.883  1.00 31.74     0.044 C 
HETATM   39  C39 BCR C 514     -50.453 149.134  10.987  1.00 32.31     0.020 C 
HETATM   40  C40 BCR C 514     -49.663 151.350  11.589  1.00 36.49     0.020 C 
ENDROOT
TORSDOF 10
BEGIN_RES PHE A  61
REMARK  2 active torsions:
REMARK  status: ('A' for Active; 'I' for Inactive)
REMARK    1  A    between atoms: CA   and  CB  
REMARK    2  A    between atoms: CB   and  CG  
ROOT
ATOM      1  CA  PHE A  61     -36.237 128.293  12.768  1.00 39.40     0.164 C 
ENDROOT
BRANCH   1   2
ATOM      2  CB  PHE A  61     -36.813 128.951  11.509  1.00 39.41     0.058 C 
BRANCH   2   3
ATOM      3  CG  PHE A  61     -36.651 128.135  10.249  1.00 39.01    -0.020 A 
ATOM      4  CD2 PHE A  61     -35.524 127.354  10.047  1.00 40.32    -0.004 A 
ATOM      5  CE2 PHE A  61     -35.376 126.606   8.885  1.00 40.20    -0.000 A 
ATOM      6  CZ  PHE A  61     -36.352 126.628   7.916  1.00 40.34    -0.000 A 
ATOM      7  CE1 PHE A  61     -37.479 127.398   8.103  1.00 41.51    -0.000 A 
ATOM      8  CD1 PHE A  61     -37.625 128.150   9.260  1.00 39.94    -0.004 A 
ENDBRANCH   2   3
ENDBRANCH   1   2
END_RES PHE A  61
BEGIN_RES VAL A 134
REMARK  1 active torsions:
REMARK  status: ('A' for Active; 'I' for Inactive)
REMARK    3  A    between atoms: CA   and  CB  
ROOT
ATOM      9  CA  VAL A 134     -29.766 132.051   9.815  1.00 40.75     0.159 C 
ENDROOT
BRANCH   9  10
ATOM     10  CB  VAL A 134     -30.864 132.765   9.009  1.00 40.76     0.029 C 
ATOM     11  CG1 VAL A 134     -31.227 131.964   7.767  1.00 41.76     0.002 C 
ATOM     12  CG2 VAL A 134     -32.097 133.035   9.857  1.00 40.56     0.002 C 
ENDBRANCH   9  10
END_RES VAL A 134
BEGIN_RES TYR A 338
REMARK  3 active torsions:
REMARK  status: ('A' for Active; 'I' for Inactive)
REMARK    4  A    between atoms: CA   and  CB  
REMARK    5  A    between atoms: CB   and  CG  
REMARK    6  A    between atoms: CZ   and  OH  
ROOT
ATOM     13  CA  TYR A 338     -41.631 124.950   6.058  1.00 38.23     0.164 C 
ENDROOT
BRANCH  13  14
ATOM     14  CB  TYR A 338     -41.621 126.456   6.339  1.00 39.15     0.058 C 
BRANCH  14  15
ATOM     15  CG  TYR A 338     -40.392 127.202   5.872  1.00 39.03    -0.020 A 
ATOM     16  CD2 TYR A 338     -40.218 128.537   6.197  1.00 40.65    -0.002 A 
ATOM     17  CE2 TYR A 338     -39.111 129.256   5.773  1.00 40.91     0.024 A 
ATOM     18  CZ  TYR A 338     -38.145 128.638   5.001  1.00 42.33     0.089 A 
ATOM     19  CE1 TYR A 338     -38.295 127.304   4.668  1.00 40.63     0.024 A 
ATOM     20  CD1 TYR A 338     -39.415 126.605   5.091  1.00 39.27    -0.002 A 
BRANCH  18  21
ATOM     21  OH  TYR A 338     -37.048 129.337   4.581  1.00 43.36    -0.359 OA
ATOM     22  HH  TYR A 338     -36.800 130.147   5.011  1.00  0.00     0.217 HD
ENDBRANCH  18  21
ENDBRANCH  14  15
ENDBRANCH  13  14
END_RES TYR A 338
ENDMDL
MODEL 2
REMARK VINA RESULT:    -7.100      2.504      4.707
REMARK INTER + INTRA:         -13.982
REMARK INTER:                 -10.150
REMARK INTRA:                  -3.832
REMARK UNBOUND:                -6.882
REMARK  0 active torsions:
REMARK  status: ('A' for Active; 'I' for Inactive)
REMARK       I    between atoms: C6_6  and  C7_7 
REMARK       I    between atoms: C8_8  and  C9_9 
REMARK       I    between atoms: C10_10  and  C11_11 
REMARK       I    between atoms: C12_16  and  C13_17 
REMARK       I    between atoms: C14_18  and  C15_19 
REMARK       I    between atoms: C16_20  and  C17_21 
REMARK       I    between atoms: C18_22  and  C19_23 
REMARK       I    between atoms: C20_24  and  C21_25 
REMARK       I    between atoms: C22_26  and  C23_27 
REMARK       I    between atoms: C24_28  and  C25_29 
ROOT
HETATM    1  C1  BCR C 514     -34.765 126.858   5.978  1.00 46.03    -0.020 C 
HETATM    2  C2  BCR C 514     -33.606 125.976   5.607  1.00 36.42     0.014 C 
HETATM    3  C3  BCR C 514     -32.472 126.787   5.084  1.00 38.25     0.005 C 
HETATM    4  C4  BCR C 514     -31.996 127.725   6.153  1.00 35.91     0.034 C 
HETATM    5  C5  BCR C 514     -33.114 128.401   6.852  1.00 46.41    -0.077 C 
HETATM    6  C6  BCR C 514     -34.389 128.036   6.780  1.00 48.24    -0.048 C 
HETATM    7  C7  BCR C 514     -35.490 128.691   7.498  1.00 37.95     0.009 C 
HETATM    8  C8  BCR C 514     -35.941 129.915   7.223  1.00 29.80     0.007 C 
HETATM    9  C9  BCR C 514     -37.122 130.526   7.866  1.00 34.42    -0.062 C 
HETATM   10  C10 BCR C 514     -37.400 131.838   7.739  1.00 30.24     0.007 C 
HETATM   11  C11 BCR C 514     -38.568 132.508   8.275  1.00 33.35     0.001 C 
HETATM   12  C33 BCR C 514     -32.678 129.544   7.664  1.00 46.30     0.044 C 
HETATM   13  C31 BCR C 514     -35.673 125.973   6.781  1.00 39.84     0.020 C 
HETATM   14  C32 BCR C 514     -35.452 127.333   4.713  1.00 53.07     0.020 C 
HETATM   15  C34 BCR C 514     -38.001 129.674   8.690  1.00 30.46     0.048 C 
HETATM   16  C12 BCR C 514     -38.875 133.735   7.836  1.00 34.08     0.007 C 
HETATM   17  C13 BCR C 514     -39.812 134.666   8.444  1.00 43.06    -0.062 C 
HETATM   18  C14 BCR C 514     -40.176 135.768   7.753  1.00 44.33     0.007 C 
HETATM   19  C15 BCR C 514     -41.427 136.474   7.936  1.00 30.45     0.001 C 
HETATM   20  C16 BCR C 514     -41.486 137.803   7.854  1.00 31.93     0.001 C 
HETATM   21  C17 BCR C 514     -42.772 138.454   8.024  1.00 33.60     0.007 C 
HETATM   22  C18 BCR C 514     -43.169 139.598   7.431  1.00 30.74    -0.062 C 
HETATM   23  C19 BCR C 514     -43.946 140.564   8.183  1.00 33.81     0.007 C 
HETATM   24  C20 BCR C 514     -44.600 141.595   7.643  1.00 33.30     0.001 C 
HETATM   25  C21 BCR C 514     -45.561 142.302   8.465  1.00 26.27     0.007 C 
HETATM   26  C22 BCR C 514     -46.271 143.412   8.154  1.00 33.99    -0.062 C 
HETATM   27  C23 BCR C 514     -47.072 144.003   9.232  1.00 36.02     0.007 C 
HETATM   28  C24 BCR C 514     -47.631 145.223   9.220  1.00 32.82     0.009 C 
HETATM   29  C25 BCR C 514     -48.522 145.730  10.267  1.00 23.72    -0.048 C 
HETATM   30  C26 BCR C 514     -49.761 145.265  10.418  1.00 28.89    -0.077 C 
HETATM   31  C27 BCR C 514     -50.733 145.716  11.445  1.00 31.77     0.034 C 
HETATM   32  C28 BCR C 514     -50.074 146.463  12.582  1.00 32.56     0.005 C 
HETATM   33  C29 BCR C 514     -49.050 147.431  12.066  1.00 35.64     0.014 C 
HETATM   34  C30 BCR C 514     -47.984 146.786  11.186  1.00 36.04    -0.020 C 
HETATM   35  C35 BCR C 514     -40.629 134.235   9.600  1.00 31.96     0.048 C 
HETATM   36  C36 BCR C 514     -42.544 140.048   6.183  1.00 34.59     0.048 C 
HETATM   37  C37 BCR C 514     -46.012 144.224   6.928  1.00 38.91     0.048 C 
HETATM   38  C38 BCR C 514     -50.332 144.208   9.544  1.00 31.74     0.044 C 
HETATM   39  C39 BCR C 514     -46.900 146.192  12.055  1.00 32.31     0.020 C 
HETATM   40  C40 BCR C 514     -47.331 147.936  10.421  1.00 36.49     0.020 C 
ENDROOT
TORSDOF 10
BEGIN_RES PHE A  61
REMARK  2 active torsions:
REMARK  status: ('A' for Active; 'I' for Inactive)
REMARK    1  A    between atoms: CA   and  CB  
REMARK    2  A    between atoms: CB   and  CG  
ROOT
ATOM      1  CA  PHE A  61     -36.237 128.293  12.768  1.00 39.40     0.164 C 
ENDROOT
BRANCH   1   2
ATOM      2  CB  PHE A  61     -36.813 128.951  11.509  1.00 39.41     0.058 C 
BRANCH   2   3
ATOM      3  CG  PHE A  61     -36.118 130.227  11.098  1.00 39.01    -0.020 A 
ATOM      4  CD2 PHE A  61     -34.839 130.200  10.565  1.00 40.32    -0.004 A 
ATOM      5  CE2 PHE A  61     -34.199 131.375  10.190  1.00 40.20    -0.000 A 
ATOM      6  CZ  PHE A  61     -34.832 132.588  10.340  1.00 40.34    -0.000 A 
ATOM      7  CE1 PHE A  61     -36.104 132.631  10.867  1.00 41.51    -0.000 A 
ATOM      8  CD1 PHE A  61     -36.741 131.458  11.248  1.00 39.94    -0.004 A 
ENDBRANCH   2   3
ENDBRANCH   1   2
END_RES PHE A  61
BEGIN_RES VAL A 134
REMARK  1 active torsions:
REMARK  status: ('A' for Active; 'I' for Inactive)
REMARK    3  A    between atoms: CA   and  CB  
ROOT
ATOM      9  CA  VAL A 134     -29.766 132.051   9.815  1.00 40.75     0.159 C 
ENDROOT
BRANCH   9  10
ATOM     10  CB  VAL A 134     -30.864 132.765   9.009  1.00 40.76     0.029 C 
ATOM     11  CG1 VAL A 134     -31.394 131.862   7.905  1.00 41.76     0.002 C 
ATOM     12  CG2 VAL A 134     -31.996 133.245   9.905  1.00 40.56     0.002 C 
ENDBRANCH   9  10
END_RES VAL A 134
BEGIN_RES TYR A 338
REMARK  3 active torsions:
REMARK  status: ('A' for Active; 'I' for Inactive)
REMARK    4  A    between atoms: CA   and  CB  
REMARK    5  A    between atoms: CB   and  CG  
REMARK    6  A    between atoms: CZ   and  OH  
ROOT
ATOM     13  CA  TYR A 338     -41.631 124.950   6.058  1.00 38.23     0.164 C 
ENDROOT
BRANCH  13  14
ATOM     14  CB  TYR A 338     -41.621 126.456   6.339  1.00 39.15     0.058 C 
BRANCH  14  15
ATOM     15  CG  TYR A 338     -40.423 127.214   5.814  1.00 39.03    -0.020 A 
ATOM     16  CD2 TYR A 338     -40.283 128.567   6.069  1.00 40.65    -0.002 A 
ATOM     17  CE2 TYR A 338     -39.206 129.296   5.589  1.00 40.91     0.024 A 
ATOM     18  CZ  TYR A 338     -38.235 128.669   4.832  1.00 42.33     0.089 A 
ATOM     19  CE1 TYR A 338     -38.350 127.315   4.568  1.00 40.63     0.024 A 
ATOM     20  CD1 TYR A 338     -39.442 126.607   5.045  1.00 39.27    -0.002 A 
BRANCH  18  21
ATOM     21  OH  TYR A 338     -37.166 129.377   4.358  1.00 43.36    -0.359 OA
ATOM     22  HH  TYR A 338     -37.070 129.536   3.426  1.00  0.00     0.217 HD
ENDBRANCH  18  21
ENDBRANCH  14  15
ENDBRANCH  13  14
END_RES TYR A 338
ENDMDL
