MODEL 1
REMARK VINA RESULT:    -9.877      0.000      0.000
REMARK INTER + INTRA:         -12.304
REMARK INTER:                  -9.877
REMARK INTRA:                  -2.428
REMARK UNBOUND:                -2.428
REMARK  0 active torsions:
REMARK  status: ('A' for Active; 'I' for Inactive)
REMARK       I    between atoms: C6_6  and  C7_7 
REMARK       I    between atoms: C8_8  and  C9_9 
REMARK       I    between atoms: C10_10  and  C11_11 
REMARK       I    between atoms: C12_16  and  C13_17 
REMARK       I    between atoms: C14_18  and  C15_19 
REMARK       I    between atoms: C16_20  and  C17_21 
REMARK       I    between atoms: C18_22  and  C19_23 
REMARK       I    between atoms: C20_24  and  C21_25 
REMARK       I    between atoms: C22_26  and  C23_27 
REMARK       I    between atoms: C24_28  and  C25_29 
ROOT
HETATM    1  C1  BCR C 515     -48.479 148.279  10.146  1.00 38.64    -0.020 C 
HETATM    2  C2  BCR C 515     -49.650 149.111  10.674  1.00 35.63     0.014 C 
HETATM    3  C3  BCR C 515     -50.429 148.423  11.782  1.00 36.63     0.005 C 
HETATM    4  C4  BCR C 515     -50.900 147.052  11.399  1.00 37.53     0.034 C 
HETATM    5  C5  BCR C 515     -49.959 146.299  10.481  1.00 37.33    -0.077 C 
HETATM    6  C6  BCR C 515     -48.869 146.842   9.908  1.00 36.93    -0.048 C 
HETATM    7  C7  BCR C 515     -47.991 146.052   8.990  1.00 39.97     0.009 C 
HETATM    8  C8  BCR C 515     -47.290 145.005   9.427  1.00 43.71     0.007 C 
HETATM    9  C9  BCR C 515     -46.407 144.186   8.574  1.00 46.26    -0.062 C 
HETATM   10  C10 BCR C 515     -45.670 143.247   9.204  1.00 44.64     0.007 C 
HETATM   11  C11 BCR C 515     -44.732 142.353   8.504  1.00 42.43     0.001 C 
HETATM   12  C33 BCR C 515     -50.352 144.875  10.226  1.00 39.04     0.044 C 
HETATM   13  C31 BCR C 515     -47.310 148.333  11.152  1.00 36.17     0.020 C 
HETATM   14  C32 BCR C 515     -48.094 148.831   8.761  1.00 37.04     0.020 C 
HETATM   15  C34 BCR C 515     -46.363 144.374   7.070  1.00 45.26     0.048 C 
HETATM   16  C12 BCR C 515     -44.364 141.210   9.084  1.00 41.87     0.007 C 
HETATM   17  C13 BCR C 515     -43.427 140.270   8.447  1.00 44.10    -0.062 C 
HETATM   18  C14 BCR C 515     -42.816 139.325   9.211  1.00 43.10     0.007 C 
HETATM   19  C15 BCR C 515     -41.856 138.350   8.661  1.00 44.95     0.001 C 
HETATM   20  C16 BCR C 515     -41.181 137.492   9.437  1.00 42.57     0.001 C 
HETATM   21  C17 BCR C 515     -40.208 136.563   8.851  1.00 44.11     0.007 C 
HETATM   22  C18 BCR C 515     -39.598 135.565   9.543  1.00 45.12    -0.062 C 
HETATM   23  C19 BCR C 515     -38.603 134.730   8.808  1.00 42.40     0.007 C 
HETATM   24  C20 BCR C 515     -37.897 133.744   9.366  1.00 44.25     0.001 C 
HETATM   25  C21 BCR C 515     -36.919 132.992   8.570  1.00 44.77     0.007 C 
HETATM   26  C22 BCR C 515     -35.981 132.143   9.063  1.00 45.45    -0.062 C 
HETATM   27  C23 BCR C 515     -35.081 131.468   8.090  1.00 43.97     0.007 C 
HETATM   28  C24 BCR C 515     -34.425 130.332   8.377  1.00 46.37     0.009 C 
HETATM   29  C25 BCR C 515     -33.549 129.657   7.370  1.00 44.97    -0.048 C 
HETATM   30  C26 BCR C 515     -34.121 128.708   6.604  1.00 43.46    -0.077 C 
HETATM   31  C27 BCR C 515     -33.382 127.922   5.529  1.00 42.55     0.034 C 
HETATM   32  C28 BCR C 515     -31.995 128.477   5.194  1.00 44.37     0.005 C 
HETATM   33  C29 BCR C 515     -31.276 129.015   6.430  1.00 46.88     0.014 C 
HETATM   34  C30 BCR C 515     -32.088 130.040   7.234  1.00 44.50    -0.020 C 
HETATM   35  C35 BCR C 515     -43.208 140.379   6.951  1.00 43.98     0.048 C 
HETATM   36  C36 BCR C 515     -39.878 135.334  11.019  1.00 37.46     0.048 C 
HETATM   37  C37 BCR C 515     -35.828 131.871  10.542  1.00 40.96     0.048 C 
HETATM   38  C38 BCR C 515     -35.574 128.379   6.818  1.00 36.94     0.044 C 
HETATM   39  C39 BCR C 515     -31.957 131.436   6.609  1.00 44.31     0.020 C 
HETATM   40  C40 BCR C 515     -31.478 130.062   8.632  1.00 48.67     0.020 C 
ENDROOT
TORSDOF 10
BEGIN_RES PHE A  61
REMARK  2 active torsions:
REMARK  status: ('A' for Active; 'I' for Inactive)
REMARK    1  A    between atoms: CA   and  CB  
REMARK    2  A    between atoms: CB   and  CG  
ROOT
ATOM      1  CA  PHE A  61     -36.237 128.293  12.768  1.00 39.40     0.164 C 
ENDROOT
BRANCH   1   2
ATOM      2  CB  PHE A  61     -36.813 128.951  11.509  1.00 39.41     0.058 C 
BRANCH   2   3
ATOM      3  CG  PHE A  61     -36.868 128.046  10.302  1.00 39.01    -0.020 A 
ATOM      4  CD2 PHE A  61     -37.953 128.075   9.440  1.00 40.32    -0.004 A 
ATOM      5  CE2 PHE A  61     -38.004 127.239   8.331  1.00 40.20    -0.000 A 
ATOM      6  CZ  PHE A  61     -36.970 126.369   8.069  1.00 40.34    -0.000 A 
ATOM      7  CE1 PHE A  61     -35.884 126.330   8.915  1.00 41.51    -0.000 A 
ATOM      8  CD1 PHE A  61     -35.835 127.161  10.027  1.00 39.94    -0.004 A 
ENDBRANCH   2   3
ENDBRANCH   1   2
END_RES PHE A  61
BEGIN_RES VAL A 134
REMARK  1 active torsions:
REMARK  status: ('A' for Active; 'I' for Inactive)
REMARK    3  A    between atoms: CA   and  CB  
ROOT
ATOM      9  CA  VAL A 134     -29.766 132.051   9.815  1.00 40.75     0.159 C 
ENDROOT
BRANCH   9  10
ATOM     10  CB  VAL A 134     -30.864 132.765   9.009  1.00 40.76     0.029 C 
ATOM     11  CG1 VAL A 134     -32.108 132.973   9.861  1.00 41.76     0.002 C 
ATOM     12  CG2 VAL A 134     -30.372 134.087   8.439  1.00 40.56     0.002 C 
ENDBRANCH   9  10
END_RES VAL A 134
BEGIN_RES TYR A 338
REMARK  3 active torsions:
REMARK  status: ('A' for Active; 'I' for Inactive)
REMARK    4  A    between atoms: CA   and  CB  
REMARK    5  A    between atoms: CB   and  CG  
REMARK    6  A    between atoms: CZ   and  OH  
ROOT
ATOM     13  CA  TYR A 338     -41.631 124.950   6.058  1.00 38.23     0.164 C 
ENDROOT
BRANCH  13  14
ATOM     14  CB  TYR A 338     -41.621 126.456   6.339  1.00 39.15     0.058 C 
BRANCH  14  15
ATOM     15  CG  TYR A 338     -40.410 127.209   5.839  1.00 39.03    -0.020 A 
ATOM     16  CD2 TYR A 338     -40.236 128.546   6.153  1.00 40.65    -0.002 A 
ATOM     17  CE2 TYR A 338     -39.146 129.271   5.698  1.00 40.91     0.024 A 
ATOM     18  CZ  TYR A 338     -38.195 128.656   4.905  1.00 42.33     0.089 A 
ATOM     19  CE1 TYR A 338     -38.344 127.319   4.581  1.00 40.63     0.024 A 
ATOM     20  CD1 TYR A 338     -39.448 126.615   5.035  1.00 39.27    -0.002 A 
BRANCH  18  21
ATOM     21  OH  TYR A 338     -37.114 129.360   4.455  1.00 43.36    -0.359 OA
ATOM     22  HH  TYR A 338     -37.105 130.309   4.500  1.00  0.00     0.217 HD
ENDBRANCH  18  21
ENDBRANCH  14  15
ENDBRANCH  13  14
END_RES TYR A 338
ENDMDL
MODEL 2
REMARK VINA RESULT:    -9.509      0.859     16.443
REMARK INTER + INTRA:         -11.937
REMARK INTER:                  -9.230
REMARK INTRA:                  -2.707
REMARK UNBOUND:                -2.428
REMARK  0 active torsions:
REMARK  status: ('A' for Active; 'I' for Inactive)
REMARK       I    between atoms: C6_6  and  C7_7 
REMARK       I    between atoms: C8_8  and  C9_9 
REMARK       I    between atoms: C10_10  and  C11_11 
REMARK       I    between atoms: C12_16  and  C13_17 
REMARK       I    between atoms: C14_18  and  C15_19 
REMARK       I    between atoms: C16_20  and  C17_21 
REMARK       I    between atoms: C18_22  and  C19_23 
REMARK       I    between atoms: C20_24  and  C21_25 
REMARK       I    between atoms: C22_26  and  C23_27 
REMARK       I    between atoms: C24_28  and  C25_29 
ROOT
HETATM    1  C1  BCR C 515     -32.297 130.022   7.489  1.00 38.64    -0.020 C 
HETATM    2  C2  BCR C 515     -31.486 128.906   6.825  1.00 35.63     0.014 C 
HETATM    3  C3  BCR C 515     -32.061 128.452   5.494  1.00 36.63     0.005 C 
HETATM    4  C4  BCR C 515     -33.504 128.058   5.586  1.00 37.53     0.034 C 
HETATM    5  C5  BCR C 515     -34.311 128.860   6.586  1.00 37.33    -0.077 C 
HETATM    6  C6  BCR C 515     -33.779 129.744   7.450  1.00 36.93    -0.048 C 
HETATM    7  C7  BCR C 515     -34.627 130.489   8.431  1.00 39.97     0.009 C 
HETATM    8  C8  BCR C 515     -35.544 131.371   8.030  1.00 43.71     0.007 C 
HETATM    9  C9  BCR C 515     -36.411 132.138   8.945  1.00 46.26    -0.062 C 
HETATM   10  C10 BCR C 515     -37.189 133.084   8.379  1.00 44.64     0.007 C 
HETATM   11  C11 BCR C 515     -38.103 133.944   9.150  1.00 42.43     0.001 C 
HETATM   12  C33 BCR C 515     -35.783 128.574   6.564  1.00 39.04     0.044 C 
HETATM   13  C31 BCR C 515     -32.009 131.363   6.781  1.00 36.17     0.020 C 
HETATM   14  C32 BCR C 515     -31.927 130.050   8.983  1.00 37.04     0.020 C 
HETATM   15  C34 BCR C 515     -36.443 131.848  10.433  1.00 45.26     0.048 C 
HETATM   16  C12 BCR C 515     -39.119 134.542   8.525  1.00 41.87     0.007 C 
HETATM   17  C13 BCR C 515     -40.069 135.420   9.228  1.00 44.10    -0.062 C 
HETATM   18  C14 BCR C 515     -40.843 136.271   8.504  1.00 43.10     0.007 C 
HETATM   19  C15 BCR C 515     -41.814 137.192   9.124  1.00 44.95     0.001 C 
HETATM   20  C16 BCR C 515     -42.496 138.100   8.413  1.00 42.57     0.001 C 
HETATM   21  C17 BCR C 515     -43.426 139.021   9.076  1.00 44.11     0.007 C 
HETATM   22  C18 BCR C 515     -44.264 139.863   8.415  1.00 45.12    -0.062 C 
HETATM   23  C19 BCR C 515     -45.121 140.765   9.239  1.00 42.40     0.007 C 
HETATM   24  C20 BCR C 515     -45.958 141.671   8.730  1.00 44.25     0.001 C 
HETATM   25  C21 BCR C 515     -46.744 142.535   9.620  1.00 44.77     0.007 C 
HETATM   26  C22 BCR C 515     -47.439 143.639   9.242  1.00 45.45    -0.062 C 
HETATM   27  C23 BCR C 515     -48.180 144.382  10.296  1.00 43.97     0.007 C 
HETATM   28  C24 BCR C 515     -49.210 145.198  10.018  1.00 46.37     0.009 C 
HETATM   29  C25 BCR C 515     -49.958 145.911  11.100  1.00 44.97    -0.048 C 
HETATM   30  C26 BCR C 515     -51.049 145.294  11.593  1.00 43.46    -0.077 C 
HETATM   31  C27 BCR C 515     -51.928 145.871  12.695  1.00 42.55     0.034 C 
HETATM   32  C28 BCR C 515     -51.326 147.092  13.397  1.00 44.37     0.005 C 
HETATM   33  C29 BCR C 515     -50.559 147.993  12.429  1.00 46.88     0.014 C 
HETATM   34  C30 BCR C 515     -49.491 147.263  11.603  1.00 44.50    -0.020 C 
HETATM   35  C35 BCR C 515     -40.165 135.309  10.736  1.00 43.98     0.048 C 
HETATM   36  C36 BCR C 515     -44.295 139.923   6.896  1.00 37.46     0.048 C 
HETATM   37  C37 BCR C 515     -47.479 144.124   7.811  1.00 40.96     0.048 C 
HETATM   38  C38 BCR C 515     -51.451 143.960  11.023  1.00 36.94     0.044 C 
HETATM   39  C39 BCR C 515     -48.197 147.114  12.413  1.00 44.31     0.020 C 
HETATM   40  C40 BCR C 515     -49.219 148.145  10.389  1.00 48.67     0.020 C 
ENDROOT
TORSDOF 10
BEGIN_RES PHE A  61
REMARK  2 active torsions:
REMARK  status: ('A' for Active; 'I' for Inactive)
REMARK    1  A    between atoms: CA   and  CB  
REMARK    2  A    between atoms: CB   and  CG  
ROOT
ATOM      1  CA  PHE A  61     -36.237 128.293  12.768  1.00 39.40     0.164 C 
ENDROOT
BRANCH   1   2
ATOM      2  CB  PHE A  61     -36.813 128.951  11.509  1.00 39.41     0.058 C 
BRANCH   2   3
ATOM      3  CG  PHE A  61     -36.798 128.071  10.282  1.00 39.01    -0.020 A 
ATOM      4  CD2 PHE A  61     -37.871 128.053   9.405  1.00 40.32    -0.004 A 
ATOM      5  CE2 PHE A  61     -37.857 127.241   8.279  1.00 40.20    -0.000 A 
ATOM      6  CZ  PHE A  61     -36.769 126.440   8.014  1.00 40.34    -0.000 A 
ATOM      7  CE1 PHE A  61     -35.694 126.447   8.875  1.00 41.51    -0.000 A 
ATOM      8  CD1 PHE A  61     -35.710 127.255  10.005  1.00 39.94    -0.004 A 
ENDBRANCH   2   3
ENDBRANCH   1   2
END_RES PHE A  61
BEGIN_RES VAL A 134
REMARK  1 active torsions:
REMARK  status: ('A' for Active; 'I' for Inactive)
REMARK    3  A    between atoms: CA   and  CB  
ROOT
ATOM      9  CA  VAL A 134     -29.766 132.051   9.815  1.00 40.75     0.159 C 
ENDROOT
BRANCH   9  10
ATOM     10  CB  VAL A 134     -30.864 132.765   9.009  1.00 40.76     0.029 C 
ATOM     11  CG1 VAL A 134     -32.098 132.997   9.869  1.00 41.76     0.002 C 
ATOM     12  CG2 VAL A 134     -30.364 134.074   8.417  1.00 40.56     0.002 C 
ENDBRANCH   9  10
END_RES VAL A 134
BEGIN_RES TYR A 338
REMARK  3 active torsions:
REMARK  status: ('A' for Active; 'I' for Inactive)
REMARK    4  A    between atoms: CA   and  CB  
REMARK    5  A    between atoms: CB   and  CG  
REMARK    6  A    between atoms: CZ   and  OH  
ROOT
ATOM     13  CA  TYR A 338     -41.631 124.950   6.058  1.00 38.23     0.164 C 
ENDROOT
BRANCH  13  14
ATOM     14  CB  TYR A 338     -41.621 126.456   6.339  1.00 39.15     0.058 C 
BRANCH  14  15
ATOM     15  CG  TYR A 338     -40.427 127.215   5.808  1.00 39.03    -0.020 A 
ATOM     16  CD2 TYR A 338     -40.255 128.554   6.113  1.00 40.65    -0.002 A 
ATOM     17  CE2 TYR A 338     -39.180 129.285   5.630  1.00 40.91     0.024 A 
ATOM     18  CZ  TYR A 338     -38.244 128.673   4.818  1.00 42.33     0.089 A 
ATOM     19  CE1 TYR A 338     -38.391 127.334   4.503  1.00 40.63     0.024 A 
ATOM     20  CD1 TYR A 338     -39.480 126.624   4.985  1.00 39.27    -0.002 A 
BRANCH  18  21
ATOM     21  OH  TYR A 338     -37.178 129.382   4.340  1.00 43.36    -0.359 OA
ATOM     22  HH  TYR A 338     -36.843 130.130   4.821  1.00  0.00     0.217 HD
ENDBRANCH  18  21
ENDBRANCH  14  15
ENDBRANCH  13  14
END_RES TYR A 338
ENDMDL
MODEL 3
REMARK VINA RESULT:    -8.661      2.100     16.399
REMARK INTER + INTRA:         -11.089
REMARK INTER:                  -7.778
REMARK INTRA:                  -3.310
REMARK UNBOUND:                -2.428
REMARK  0 active torsions:
REMARK  status: ('A' for Active; 'I' for Inactive)
REMARK       I    between atoms: C6_6  and  C7_7 
REMARK       I    between atoms: C8_8  and  C9_9 
REMARK       I    between atoms: C10_10  and  C11_11 
REMARK       I    between atoms: C12_16  and  C13_17 
REMARK       I    between atoms: C14_18  and  C15_19 
REMARK       I    between atoms: C16_20  and  C17_21 
REMARK       I    between atoms: C18_22  and  C19_23 
REMARK       I    between atoms: C20_24  and  C21_25 
REMARK       I    between atoms: C22_26  and  C23_27 
REMARK       I    between atoms: C24_28  and  C25_29 
ROOT
HETATM    1  C1  BCR C 515     -36.711 127.518   8.733  1.00 38.64    -0.020 C 
HETATM    2  C2  BCR C 515     -35.645 126.426   8.609  1.00 35.63     0.014 C 
HETATM    3  C3  BCR C 515     -34.225 126.954   8.724  1.00 36.63     0.005 C 
HETATM    4  C4  BCR C 515     -33.937 128.069   7.765  1.00 37.53     0.034 C 
HETATM    5  C5  BCR C 515     -35.118 128.975   7.483  1.00 37.33    -0.077 C 
HETATM    6  C6  BCR C 515     -36.372 128.735   7.910  1.00 36.93    -0.048 C 
HETATM    7  C7  BCR C 515     -37.502 129.657   7.579  1.00 39.97     0.009 C 
HETATM    8  C8  BCR C 515     -37.540 130.907   8.043  1.00 43.71     0.007 C 
HETATM    9  C9  BCR C 515     -38.624 131.865   7.754  1.00 46.26    -0.062 C 
HETATM   10  C10 BCR C 515     -38.572 133.043   8.410  1.00 44.64     0.007 C 
HETATM   11  C11 BCR C 515     -39.580 134.104   8.246  1.00 42.43     0.001 C 
HETATM   12  C33 BCR C 515     -34.790 130.178   6.650  1.00 39.04     0.044 C 
HETATM   13  C31 BCR C 515     -36.865 127.926  10.213  1.00 36.17     0.020 C 
HETATM   14  C32 BCR C 515     -38.019 126.971   8.131  1.00 37.04     0.020 C 
HETATM   15  C34 BCR C 515     -39.714 131.547   6.748  1.00 45.26     0.048 C 
HETATM   16  C12 BCR C 515     -39.267 135.358   8.575  1.00 41.87     0.007 C 
HETATM   17  C13 BCR C 515     -40.224 136.469   8.443  1.00 44.10    -0.062 C 
HETATM   18  C14 BCR C 515     -39.990 137.628   9.114  1.00 43.10     0.007 C 
HETATM   19  C15 BCR C 515     -40.898 138.788   9.049  1.00 44.95     0.001 C 
HETATM   20  C16 BCR C 515     -40.715 139.886   9.795  1.00 42.57     0.001 C 
HETATM   21  C17 BCR C 515     -41.663 141.003   9.724  1.00 44.11     0.007 C 
HETATM   22  C18 BCR C 515     -41.470 142.205  10.328  1.00 45.12    -0.062 C 
HETATM   23  C19 BCR C 515     -42.551 143.223  10.191  1.00 42.40     0.007 C 
HETATM   24  C20 BCR C 515     -42.519 144.429  10.762  1.00 44.25     0.001 C 
HETATM   25  C21 BCR C 515     -43.643 145.359  10.593  1.00 44.77     0.007 C 
HETATM   26  C22 BCR C 515     -43.842 146.499  11.303  1.00 45.45    -0.062 C 
HETATM   27  C23 BCR C 515     -45.044 147.313  10.978  1.00 43.97     0.007 C 
HETATM   28  C24 BCR C 515     -45.137 148.618  11.280  1.00 46.37     0.009 C 
HETATM   29  C25 BCR C 515     -46.346 149.422  10.916  1.00 44.97    -0.048 C 
HETATM   30  C26 BCR C 515     -46.313 150.068   9.734  1.00 43.46    -0.077 C 
HETATM   31  C27 BCR C 515     -47.452 150.928   9.203  1.00 42.55     0.034 C 
HETATM   32  C28 BCR C 515     -48.757 150.792   9.993  1.00 44.37     0.005 C 
HETATM   33  C29 BCR C 515     -48.508 150.628  11.492  1.00 46.88     0.014 C 
HETATM   34  C30 BCR C 515     -47.539 149.491  11.848  1.00 44.50    -0.020 C 
HETATM   35  C35 BCR C 515     -41.420 136.280   7.531  1.00 43.98     0.048 C 
HETATM   36  C36 BCR C 515     -40.225 142.488  11.153  1.00 37.46     0.048 C 
HETATM   37  C37 BCR C 515     -42.897 146.954  12.392  1.00 40.96     0.048 C 
HETATM   38  C38 BCR C 515     -45.080 149.958   8.879  1.00 36.94     0.044 C 
HETATM   39  C39 BCR C 515     -48.278 148.146  11.872  1.00 44.31     0.020 C 
HETATM   40  C40 BCR C 515     -47.022 149.799  13.249  1.00 48.67     0.020 C 
ENDROOT
TORSDOF 10
BEGIN_RES PHE A  61
REMARK  2 active torsions:
REMARK  status: ('A' for Active; 'I' for Inactive)
REMARK    1  A    between atoms: CA   and  CB  
REMARK    2  A    between atoms: CB   and  CG  
ROOT
ATOM      1  CA  PHE A  61     -36.237 128.293  12.768  1.00 39.40     0.164 C 
ENDROOT
BRANCH   1   2
ATOM      2  CB  PHE A  61     -36.813 128.951  11.509  1.00 39.41     0.058 C 
BRANCH   2   3
ATOM      3  CG  PHE A  61     -36.124 130.232  11.103  1.00 39.01    -0.020 A 
ATOM      4  CD2 PHE A  61     -36.773 131.452  11.203  1.00 40.32    -0.004 A 
ATOM      5  CE2 PHE A  61     -36.139 132.629  10.826  1.00 40.20    -0.000 A 
ATOM      6  CZ  PHE A  61     -34.848 132.600  10.350  1.00 40.34    -0.000 A 
ATOM      7  CE1 PHE A  61     -34.188 131.396  10.247  1.00 41.51    -0.000 A 
ATOM      8  CD1 PHE A  61     -34.824 130.218  10.617  1.00 39.94    -0.004 A 
ENDBRANCH   2   3
ENDBRANCH   1   2
END_RES PHE A  61
BEGIN_RES VAL A 134
REMARK  1 active torsions:
REMARK  status: ('A' for Active; 'I' for Inactive)
REMARK    3  A    between atoms: CA   and  CB  
ROOT
ATOM      9  CA  VAL A 134     -29.766 132.051   9.815  1.00 40.75     0.159 C 
ENDROOT
BRANCH   9  10
ATOM     10  CB  VAL A 134     -30.864 132.765   9.009  1.00 40.76     0.029 C 
ATOM     11  CG1 VAL A 134     -31.478 131.823   7.984  1.00 41.76     0.002 C 
ATOM     12  CG2 VAL A 134     -31.936 133.350   9.916  1.00 40.56     0.002 C 
ENDBRANCH   9  10
END_RES VAL A 134
BEGIN_RES TYR A 338
REMARK  3 active torsions:
REMARK  status: ('A' for Active; 'I' for Inactive)
REMARK    4  A    between atoms: CA   and  CB  
REMARK    5  A    between atoms: CB   and  CG  
REMARK    6  A    between atoms: CZ   and  OH  
ROOT
ATOM     13  CA  TYR A 338     -41.631 124.950   6.058  1.00 38.23     0.164 C 
ENDROOT
BRANCH  13  14
ATOM     14  CB  TYR A 338     -41.621 126.456   6.339  1.00 39.15     0.058 C 
BRANCH  14  15
ATOM     15  CG  TYR A 338     -40.443 127.220   5.779  1.00 39.03    -0.020 A 
ATOM     16  CD2 TYR A 338     -39.415 126.551   5.138  1.00 40.65    -0.002 A 
ATOM     17  CE2 TYR A 338     -38.312 127.218   4.627  1.00 40.91     0.024 A 
ATOM     18  CZ  TYR A 338     -38.221 128.591   4.754  1.00 42.33     0.089 A 
ATOM     19  CE1 TYR A 338     -39.238 129.283   5.387  1.00 40.63     0.024 A 
ATOM     20  CD1 TYR A 338     -40.326 128.596   5.903  1.00 39.27    -0.002 A 
BRANCH  18  21
ATOM     21  OH  TYR A 338     -37.140 129.260   4.250  1.00 43.36    -0.359 OA
ATOM     22  HH  TYR A 338     -37.205 130.181   4.030  1.00  0.00     0.217 HD
ENDBRANCH  18  21
ENDBRANCH  14  15
ENDBRANCH  13  14
END_RES TYR A 338
ENDMDL
MODEL 4
REMARK VINA RESULT:    -8.173      1.847      2.139
REMARK INTER + INTRA:         -10.601
REMARK INTER:                  -6.307
REMARK INTRA:                  -4.293
REMARK UNBOUND:                -2.428
REMARK  0 active torsions:
REMARK  status: ('A' for Active; 'I' for Inactive)
REMARK       I    between atoms: C6_6  and  C7_7 
REMARK       I    between atoms: C8_8  and  C9_9 
REMARK       I    between atoms: C10_10  and  C11_11 
REMARK       I    between atoms: C12_16  and  C13_17 
REMARK       I    between atoms: C14_18  and  C15_19 
REMARK       I    between atoms: C16_20  and  C17_21 
REMARK       I    between atoms: C18_22  and  C19_23 
REMARK       I    between atoms: C20_24  and  C21_25 
REMARK       I    between atoms: C22_26  and  C23_27 
REMARK       I    between atoms: C24_28  and  C25_29 
ROOT
HETATM    1  C1  BCR C 515     -45.592 148.952  12.731  1.00 38.64    -0.020 C 
HETATM    2  C2  BCR C 515     -46.578 149.876  13.451  1.00 35.63     0.014 C 
HETATM    3  C3  BCR C 515     -47.342 149.189  14.570  1.00 36.63     0.005 C 
HETATM    4  C4  BCR C 515     -48.037 147.940  14.120  1.00 37.53     0.034 C 
HETATM    5  C5  BCR C 515     -47.303 147.165  13.046  1.00 37.33    -0.077 C 
HETATM    6  C6  BCR C 515     -46.204 147.612  12.411  1.00 36.93    -0.048 C 
HETATM    7  C7  BCR C 515     -45.537 146.809  11.340  1.00 39.97     0.009 C 
HETATM    8  C8  BCR C 515     -44.956 145.638  11.607  1.00 43.71     0.007 C 
HETATM    9  C9  BCR C 515     -44.281 144.799  10.598  1.00 46.26    -0.062 C 
HETATM   10  C10 BCR C 515     -43.632 143.711  11.062  1.00 44.64     0.007 C 
HETATM   11  C11 BCR C 515     -42.900 142.775  10.192  1.00 42.43     0.001 C 
HETATM   12  C33 BCR C 515     -47.918 145.839  12.710  1.00 39.04     0.044 C 
HETATM   13  C31 BCR C 515     -44.339 148.747  13.610  1.00 36.17     0.020 C 
HETATM   14  C32 BCR C 515     -45.261 149.586  11.367  1.00 37.04     0.020 C 
HETATM   15  C34 BCR C 515     -44.350 145.130   9.120  1.00 45.26     0.048 C 
HETATM   16  C12 BCR C 515     -42.649 141.539  10.628  1.00 41.87     0.007 C 
HETATM   17  C13 BCR C 515     -41.918 140.552   9.816  1.00 44.10    -0.062 C 
HETATM   18  C14 BCR C 515     -41.383 139.461  10.426  1.00 43.10     0.007 C 
HETATM   19  C15 BCR C 515     -40.627 138.427   9.695  1.00 44.95     0.001 C 
HETATM   20  C16 BCR C 515     -40.013 137.412  10.317  1.00 42.57     0.001 C 
HETATM   21  C17 BCR C 515     -39.242 136.425   9.554  1.00 44.11     0.007 C 
HETATM   22  C18 BCR C 515     -38.720 135.289  10.087  1.00 45.12    -0.062 C 
HETATM   23  C19 BCR C 515     -37.927 134.407   9.181  1.00 42.40     0.007 C 
HETATM   24  C20 BCR C 515     -37.322 133.284   9.573  1.00 44.25     0.001 C 
HETATM   25  C21 BCR C 515     -36.539 132.492   8.616  1.00 44.77     0.007 C 
HETATM   26  C22 BCR C 515     -35.691 131.480   8.931  1.00 45.45    -0.062 C 
HETATM   27  C23 BCR C 515     -34.991 130.792   7.814  1.00 43.97     0.007 C 
HETATM   28  C24 BCR C 515     -34.481 129.555   7.930  1.00 46.37     0.009 C 
HETATM   29  C25 BCR C 515     -33.807 128.875   6.781  1.00 44.97    -0.048 C 
HETATM   30  C26 BCR C 515     -34.578 128.093   5.999  1.00 43.46    -0.077 C 
HETATM   31  C27 BCR C 515     -34.062 127.328   4.788  1.00 42.55     0.034 C 
HETATM   32  C28 BCR C 515     -32.646 127.723   4.359  1.00 44.37     0.005 C 
HETATM   33  C29 BCR C 515     -31.746 128.032   5.555  1.00 46.88     0.014 C 
HETATM   34  C30 BCR C 515     -32.326 129.070   6.526  1.00 44.50    -0.020 C 
HETATM   35  C35 BCR C 515     -41.825 140.782   8.321  1.00 43.98     0.048 C 
HETATM   36  C36 BCR C 515     -38.893 134.949  11.558  1.00 37.46     0.048 C 
HETATM   37  C37 BCR C 515     -35.444 131.041  10.357  1.00 40.96     0.048 C 
HETATM   38  C38 BCR C 515     -36.037 127.942   6.336  1.00 36.94     0.044 C 
HETATM   39  C39 BCR C 515     -32.054 130.491   6.016  1.00 44.31     0.020 C 
HETATM   40  C40 BCR C 515     -31.593 128.868   7.848  1.00 48.67     0.020 C 
ENDROOT
TORSDOF 10
BEGIN_RES PHE A  61
REMARK  2 active torsions:
REMARK  status: ('A' for Active; 'I' for Inactive)
REMARK    1  A    between atoms: CA   and  CB  
REMARK    2  A    between atoms: CB   and  CG  
ROOT
ATOM      1  CA  PHE A  61     -36.237 128.293  12.768  1.00 39.40     0.164 C 
ENDROOT
BRANCH   1   2
ATOM      2  CB  PHE A  61     -36.813 128.951  11.509  1.00 39.41     0.058 C 
BRANCH   2   3
ATOM      3  CG  PHE A  61     -36.894 128.038  10.309  1.00 39.01    -0.020 A 
ATOM      4  CD2 PHE A  61     -37.966 128.106   9.433  1.00 40.32    -0.004 A 
ATOM      5  CE2 PHE A  61     -38.040 127.264   8.332  1.00 40.20    -0.000 A 
ATOM      6  CZ  PHE A  61     -37.043 126.347   8.091  1.00 40.34    -0.000 A 
ATOM      7  CE1 PHE A  61     -35.969 126.268   8.950  1.00 41.51    -0.000 A 
ATOM      8  CD1 PHE A  61     -35.898 127.105  10.056  1.00 39.94    -0.004 A 
ENDBRANCH   2   3
ENDBRANCH   1   2
END_RES PHE A  61
BEGIN_RES VAL A 134
REMARK  1 active torsions:
REMARK  status: ('A' for Active; 'I' for Inactive)
REMARK    3  A    between atoms: CA   and  CB  
ROOT
ATOM      9  CA  VAL A 134     -29.766 132.051   9.815  1.00 40.75     0.159 C 
ENDROOT
BRANCH   9  10
ATOM     10  CB  VAL A 134     -30.864 132.765   9.009  1.00 40.76     0.029 C 
ATOM     11  CG1 VAL A 134     -30.834 132.326   7.552  1.00 41.76     0.002 C 
ATOM     12  CG2 VAL A 134     -32.241 132.538   9.613  1.00 40.56     0.002 C 
ENDBRANCH   9  10
END_RES VAL A 134
BEGIN_RES TYR A 338
REMARK  3 active torsions:
REMARK  status: ('A' for Active; 'I' for Inactive)
REMARK    4  A    between atoms: CA   and  CB  
REMARK    5  A    between atoms: CB   and  CG  
REMARK    6  A    between atoms: CZ   and  OH  
ROOT
ATOM     13  CA  TYR A 338     -41.631 124.950   6.058  1.00 38.23     0.164 C 
ENDROOT
BRANCH  13  14
ATOM     14  CB  TYR A 338     -41.621 126.456   6.339  1.00 39.15     0.058 C 
BRANCH  14  15
ATOM     15  CG  TYR A 338     -40.434 127.217   5.795  1.00 39.03    -0.020 A 
ATOM     16  CD2 TYR A 338     -40.259 128.556   6.103  1.00 40.65    -0.002 A 
ATOM     17  CE2 TYR A 338     -39.191 129.288   5.609  1.00 40.91     0.024 A 
ATOM     18  CZ  TYR A 338     -38.265 128.680   4.782  1.00 42.33     0.089 A 
ATOM     19  CE1 TYR A 338     -38.416 127.342   4.464  1.00 40.63     0.024 A 
ATOM     20  CD1 TYR A 338     -39.498 126.630   4.958  1.00 39.27    -0.002 A 
BRANCH  18  21
ATOM     21  OH  TYR A 338     -37.205 129.391   4.293  1.00 43.36    -0.359 OA
ATOM     22  HH  TYR A 338     -36.320 129.056   4.379  1.00  0.00     0.217 HD
ENDBRANCH  18  21
ENDBRANCH  14  15
ENDBRANCH  13  14
END_RES TYR A 338
ENDMDL
MODEL 5
REMARK VINA RESULT:    -8.050      2.094      3.320
REMARK INTER + INTRA:         -10.478
REMARK INTER:                  -7.825
REMARK INTRA:                  -2.653
REMARK UNBOUND:                -2.428
REMARK  0 active torsions:
REMARK  status: ('A' for Active; 'I' for Inactive)
REMARK       I    between atoms: C6_6  and  C7_7 
REMARK       I    between atoms: C8_8  and  C9_9 
REMARK       I    between atoms: C10_10  and  C11_11 
REMARK       I    between atoms: C12_16  and  C13_17 
REMARK       I    between atoms: C14_18  and  C15_19 
REMARK       I    between atoms: C16_20  and  C17_21 
REMARK       I    between atoms: C18_22  and  C19_23 
REMARK       I    between atoms: C20_24  and  C21_25 
REMARK       I    between atoms: C22_26  and  C23_27 
REMARK       I    between atoms: C24_28  and  C25_29 
ROOT
HETATM    1  C1  BCR C 515     -45.390 148.407  13.518  1.00 38.64    -0.020 C 
HETATM    2  C2  BCR C 515     -46.499 149.440  13.738  1.00 35.63     0.014 C 
HETATM    3  C3  BCR C 515     -47.869 148.958  13.292  1.00 36.63     0.005 C 
HETATM    4  C4  BCR C 515     -47.884 148.476  11.873  1.00 37.53     0.034 C 
HETATM    5  C5  BCR C 515     -46.603 147.804  11.424  1.00 37.33    -0.077 C 
HETATM    6  C6  BCR C 515     -45.473 147.770  12.154  1.00 36.93    -0.048 C 
HETATM    7  C7  BCR C 515     -44.231 147.109  11.646  1.00 39.97     0.009 C 
HETATM    8  C8  BCR C 515     -44.180 145.794  11.431  1.00 43.71     0.007 C 
HETATM    9  C9  BCR C 515     -42.988 145.082  10.931  1.00 46.26    -0.062 C 
HETATM   10  C10 BCR C 515     -43.066 143.736  10.897  1.00 44.64     0.007 C 
HETATM   11  C11 BCR C 515     -41.963 142.874  10.437  1.00 42.43     0.001 C 
HETATM   12  C33 BCR C 515     -46.675 147.184  10.061  1.00 39.04     0.044 C 
HETATM   13  C31 BCR C 515     -45.480 147.312  14.603  1.00 36.17     0.020 C 
HETATM   14  C32 BCR C 515     -44.041 149.151  13.539  1.00 37.04     0.020 C 
HETATM   15  C34 BCR C 515     -41.760 145.834  10.453  1.00 45.26     0.048 C 
HETATM   16  C12 BCR C 515     -42.230 141.631  10.035  1.00 41.87     0.007 C 
HETATM   17  C13 BCR C 515     -41.179 140.711   9.568  1.00 44.10    -0.062 C 
HETATM   18  C14 BCR C 515     -41.441 139.379   9.519  1.00 43.10     0.007 C 
HETATM   19  C15 BCR C 515     -40.446 138.384   9.074  1.00 44.95     0.001 C 
HETATM   20  C16 BCR C 515     -40.676 137.066   9.129  1.00 42.57     0.001 C 
HETATM   21  C17 BCR C 515     -39.644 136.111   8.709  1.00 44.11     0.007 C 
HETATM   22  C18 BCR C 515     -39.849 134.772   8.590  1.00 45.12    -0.062 C 
HETATM   23  C19 BCR C 515     -38.683 133.933   8.188  1.00 42.40     0.007 C 
HETATM   24  C20 BCR C 515     -38.723 132.604   8.072  1.00 44.25     0.001 C 
HETATM   25  C21 BCR C 515     -37.517 131.856   7.696  1.00 44.77     0.007 C 
HETATM   26  C22 BCR C 515     -37.362 130.510   7.776  1.00 45.45    -0.062 C 
HETATM   27  C23 BCR C 515     -36.060 129.938   7.340  1.00 43.97     0.007 C 
HETATM   28  C24 BCR C 515     -35.920 128.654   6.972  1.00 46.37     0.009 C 
HETATM   29  C25 BCR C 515     -34.604 128.111   6.509  1.00 44.97    -0.048 C 
HETATM   30  C26 BCR C 515     -34.367 128.141   5.183  1.00 43.46    -0.077 C 
HETATM   31  C27 BCR C 515     -33.084 127.633   4.538  1.00 42.55     0.034 C 
HETATM   32  C28 BCR C 515     -31.963 127.327   5.535  1.00 44.37     0.005 C 
HETATM   33  C29 BCR C 515     -32.496 126.729   6.836  1.00 46.88     0.014 C 
HETATM   34  C30 BCR C 515     -33.602 127.559   7.503  1.00 44.50    -0.020 C 
HETATM   35  C35 BCR C 515     -39.855 141.303   9.127  1.00 43.98     0.048 C 
HETATM   36  C36 BCR C 515     -41.198 134.144   8.901  1.00 37.46     0.048 C 
HETATM   37  C37 BCR C 515     -38.452 129.594   8.285  1.00 40.96     0.048 C 
HETATM   38  C38 BCR C 515     -35.426 128.691   4.267  1.00 36.94     0.044 C 
HETATM   39  C39 BCR C 515     -32.991 128.695   8.334  1.00 44.31     0.020 C 
HETATM   40  C40 BCR C 515     -34.343 126.606   8.435  1.00 48.67     0.020 C 
ENDROOT
TORSDOF 10
BEGIN_RES PHE A  61
REMARK  2 active torsions:
REMARK  status: ('A' for Active; 'I' for Inactive)
REMARK    1  A    between atoms: CA   and  CB  
REMARK    2  A    between atoms: CB   and  CG  
ROOT
ATOM      1  CA  PHE A  61     -36.237 128.293  12.768  1.00 39.40     0.164 C 
ENDROOT
BRANCH   1   2
ATOM      2  CB  PHE A  61     -36.813 128.951  11.509  1.00 39.41     0.058 C 
BRANCH   2   3
ATOM      3  CG  PHE A  61     -36.115 130.225  11.096  1.00 39.01    -0.020 A 
ATOM      4  CD2 PHE A  61     -34.813 130.202  10.621  1.00 40.32    -0.004 A 
ATOM      5  CE2 PHE A  61     -34.172 131.375  10.245  1.00 40.20    -0.000 A 
ATOM      6  CZ  PHE A  61     -34.825 132.583  10.334  1.00 40.34    -0.000 A 
ATOM      7  CE1 PHE A  61     -36.120 132.623  10.802  1.00 41.51    -0.000 A 
ATOM      8  CD1 PHE A  61     -36.760 131.451  11.185  1.00 39.94    -0.004 A 
ENDBRANCH   2   3
ENDBRANCH   1   2
END_RES PHE A  61
BEGIN_RES VAL A 134
REMARK  1 active torsions:
REMARK  status: ('A' for Active; 'I' for Inactive)
REMARK    3  A    between atoms: CA   and  CB  
ROOT
ATOM      9  CA  VAL A 134     -29.766 132.051   9.815  1.00 40.75     0.159 C 
ENDROOT
BRANCH   9  10
ATOM     10  CB  VAL A 134     -30.864 132.765   9.009  1.00 40.76     0.029 C 
ATOM     11  CG1 VAL A 134     -31.472 131.825   7.978  1.00 41.76     0.002 C 
ATOM     12  CG2 VAL A 134     -31.941 133.341   9.916  1.00 40.56     0.002 C 
ENDBRANCH   9  10
END_RES VAL A 134
BEGIN_RES TYR A 338
REMARK  3 active torsions:
REMARK  status: ('A' for Active; 'I' for Inactive)
REMARK    4  A    between atoms: CA   and  CB  
REMARK    5  A    between atoms: CB   and  CG  
REMARK    6  A    between atoms: CZ   and  OH  
ROOT
ATOM     13  CA  TYR A 338     -41.631 124.950   6.058  1.00 38.23     0.164 C 
ENDROOT
BRANCH  13  14
ATOM     14  CB  TYR A 338     -41.621 126.456   6.339  1.00 39.15     0.058 C 
BRANCH  14  15
ATOM     15  CG  TYR A 338     -40.451 127.223   5.766  1.00 39.03    -0.020 A 
ATOM     16  CD2 TYR A 338     -40.423 128.606   5.825  1.00 40.65    -0.002 A 
ATOM     17  CE2 TYR A 338     -39.374 129.341   5.295  1.00 40.91     0.024 A 
ATOM     18  CZ  TYR A 338     -38.318 128.690   4.686  1.00 42.33     0.089 A 
ATOM     19  CE1 TYR A 338     -38.321 127.308   4.619  1.00 40.63     0.024 A 
ATOM     20  CD1 TYR A 338     -39.386 126.591   5.143  1.00 39.27    -0.002 A 
BRANCH  18  21
ATOM     21  OH  TYR A 338     -37.277 129.406   4.165  1.00 43.36    -0.359 OA
ATOM     22  HH  TYR A 338     -37.439 130.117   3.556  1.00  0.00     0.217 HD
ENDBRANCH  18  21
ENDBRANCH  14  15
ENDBRANCH  13  14
END_RES TYR A 338
ENDMDL
MODEL 6
REMARK VINA RESULT:    -7.051      1.817     16.466
REMARK INTER + INTRA:          -9.479
REMARK INTER:                  -6.421
REMARK INTRA:                  -3.058
REMARK UNBOUND:                -2.428
REMARK  0 active torsions:
REMARK  status: ('A' for Active; 'I' for Inactive)
REMARK       I    between atoms: C6_6  and  C7_7 
REMARK       I    between atoms: C8_8  and  C9_9 
REMARK       I    between atoms: C10_10  and  C11_11 
REMARK       I    between atoms: C12_16  and  C13_17 
REMARK       I    between atoms: C14_18  and  C15_19 
REMARK       I    between atoms: C16_20  and  C17_21 
REMARK       I    between atoms: C18_22  and  C19_23 
REMARK       I    between atoms: C20_24  and  C21_25 
REMARK       I    between atoms: C22_26  and  C23_27 
REMARK       I    between atoms: C24_28  and  C25_29 
ROOT
HETATM    1  C1  BCR C 515     -33.600 127.394   7.288  1.00 38.64    -0.020 C 
HETATM    2  C2  BCR C 515     -32.725 126.405   6.513  1.00 35.63     0.014 C 
HETATM    3  C3  BCR C 515     -32.329 126.902   5.133  1.00 36.63     0.005 C 
HETATM    4  C4  BCR C 515     -33.507 127.312   4.301  1.00 37.53     0.034 C 
HETATM    5  C5  BCR C 515     -34.647 127.925   5.086  1.00 37.33    -0.077 C 
HETATM    6  C6  BCR C 515     -34.702 127.964   6.431  1.00 36.93    -0.048 C 
HETATM    7  C7  BCR C 515     -35.869 128.564   7.150  1.00 39.97     0.009 C 
HETATM    8  C8  BCR C 515     -36.149 129.865   7.060  1.00 43.71     0.007 C 
HETATM    9  C9  BCR C 515     -37.282 130.517   7.744  1.00 46.26    -0.062 C 
HETATM   10  C10 BCR C 515     -37.342 131.862   7.652  1.00 44.64     0.007 C 
HETATM   11  C11 BCR C 515     -38.400 132.668   8.284  1.00 42.43     0.001 C 
HETATM   12  C33 BCR C 515     -35.754 128.478   4.240  1.00 39.04     0.044 C 
HETATM   13  C31 BCR C 515     -32.726 128.544   7.831  1.00 36.17     0.020 C 
HETATM   14  C32 BCR C 515     -34.316 126.615   8.407  1.00 37.04     0.020 C 
HETATM   15  C34 BCR C 515     -38.335 129.709   8.477  1.00 45.26     0.048 C 
HETATM   16  C12 BCR C 515     -38.645 133.897   7.827  1.00 41.87     0.007 C 
HETATM   17  C13 BCR C 515     -39.683 134.762   8.411  1.00 44.10    -0.062 C 
HETATM   18  C14 BCR C 515     -39.648 136.098   8.162  1.00 43.10     0.007 C 
HETATM   19  C15 BCR C 515     -40.640 137.041   8.713  1.00 44.95     0.001 C 
HETATM   20  C16 BCR C 515     -40.538 138.366   8.549  1.00 42.57     0.001 C 
HETATM   21  C17 BCR C 515     -41.528 139.270   9.145  1.00 44.11     0.007 C 
HETATM   22  C18 BCR C 515     -41.584 140.606   8.901  1.00 45.12    -0.062 C 
HETATM   23  C19 BCR C 515     -42.630 141.392   9.618  1.00 42.40     0.007 C 
HETATM   24  C20 BCR C 515     -42.777 142.714   9.510  1.00 44.25     0.001 C 
HETATM   25  C21 BCR C 515     -43.820 143.408  10.277  1.00 44.77     0.007 C 
HETATM   26  C22 BCR C 515     -43.920 144.752  10.441  1.00 45.45    -0.062 C 
HETATM   27  C23 BCR C 515     -45.057 145.265  11.252  1.00 43.97     0.007 C 
HETATM   28  C24 BCR C 515     -45.511 146.524  11.147  1.00 46.37     0.009 C 
HETATM   29  C25 BCR C 515     -46.675 147.007  11.953  1.00 44.97    -0.048 C 
HETATM   30  C26 BCR C 515     -47.893 146.904  11.385  1.00 43.46    -0.077 C 
HETATM   31  C27 BCR C 515     -49.186 147.343  12.059  1.00 42.55     0.034 C 
HETATM   32  C28 BCR C 515     -49.034 147.667  13.548  1.00 44.37     0.005 C 
HETATM   33  C29 BCR C 515     -47.699 148.344  13.857  1.00 46.88     0.014 C 
HETATM   34  C30 BCR C 515     -46.471 147.580  13.341  1.00 44.50    -0.020 C 
HETATM   35  C35 BCR C 515     -40.770 134.114   9.245  1.00 43.98     0.048 C 
HETATM   36  C36 BCR C 515     -40.591 141.286   7.973  1.00 37.46     0.048 C 
HETATM   37  C37 BCR C 515     -42.930 145.721   9.837  1.00 40.96     0.048 C 
HETATM   38  C38 BCR C 515     -48.001 146.338   9.994  1.00 36.94     0.044 C 
HETATM   39  C39 BCR C 515     -46.080 146.470  14.326  1.00 44.31     0.020 C 
HETATM   40  C40 BCR C 515     -45.339 148.599  13.266  1.00 48.67     0.020 C 
ENDROOT
TORSDOF 10
BEGIN_RES PHE A  61
REMARK  2 active torsions:
REMARK  status: ('A' for Active; 'I' for Inactive)
REMARK    1  A    between atoms: CA   and  CB  
REMARK    2  A    between atoms: CB   and  CG  
ROOT
ATOM      1  CA  PHE A  61     -36.237 128.293  12.768  1.00 39.40     0.164 C 
ENDROOT
BRANCH   1   2
ATOM      2  CB  PHE A  61     -36.813 128.951  11.509  1.00 39.41     0.058 C 
BRANCH   2   3
ATOM      3  CG  PHE A  61     -35.996 130.105  10.979  1.00 39.01    -0.020 A 
ATOM      4  CD2 PHE A  61     -34.766 129.889  10.377  1.00 40.32    -0.004 A 
ATOM      5  CE2 PHE A  61     -34.015 130.953   9.893  1.00 40.20    -0.000 A 
ATOM      6  CZ  PHE A  61     -34.485 132.241  10.000  1.00 40.34    -0.000 A 
ATOM      7  CE1 PHE A  61     -35.706 132.472  10.594  1.00 41.51    -0.000 A 
ATOM      8  CD1 PHE A  61     -36.455 131.410  11.084  1.00 39.94    -0.004 A 
ENDBRANCH   2   3
ENDBRANCH   1   2
END_RES PHE A  61
BEGIN_RES VAL A 134
REMARK  1 active torsions:
REMARK  status: ('A' for Active; 'I' for Inactive)
REMARK    3  A    between atoms: CA   and  CB  
ROOT
ATOM      9  CA  VAL A 134     -29.766 132.051   9.815  1.00 40.75     0.159 C 
ENDROOT
BRANCH   9  10
ATOM     10  CB  VAL A 134     -30.864 132.765   9.009  1.00 40.76     0.029 C 
ATOM     11  CG1 VAL A 134     -31.423 131.848   7.931  1.00 41.76     0.002 C 
ATOM     12  CG2 VAL A 134     -31.976 133.281   9.910  1.00 40.56     0.002 C 
ENDBRANCH   9  10
END_RES VAL A 134
BEGIN_RES TYR A 338
REMARK  3 active torsions:
REMARK  status: ('A' for Active; 'I' for Inactive)
REMARK    4  A    between atoms: CA   and  CB  
REMARK    5  A    between atoms: CB   and  CG  
REMARK    6  A    between atoms: CZ   and  OH  
ROOT
ATOM     13  CA  TYR A 338     -41.631 124.950   6.058  1.00 38.23     0.164 C 
ENDROOT
BRANCH  13  14
ATOM     14  CB  TYR A 338     -41.621 126.456   6.339  1.00 39.15     0.058 C 
BRANCH  14  15
ATOM     15  CG  TYR A 338     -40.462 127.226   5.748  1.00 39.03    -0.020 A 
ATOM     16  CD2 TYR A 338     -40.388 128.601   5.893  1.00 40.65    -0.002 A 
ATOM     17  CE2 TYR A 338     -39.348 129.341   5.351  1.00 40.91     0.024 A 
ATOM     18  CZ  TYR A 338     -38.349 128.702   4.642  1.00 42.33     0.089 A 
ATOM     19  CE1 TYR A 338     -38.398 127.328   4.488  1.00 40.63     0.024 A 
ATOM     20  CD1 TYR A 338     -39.453 126.607   5.026  1.00 39.27    -0.002 A 
BRANCH  18  21
ATOM     21  OH  TYR A 338     -37.316 129.420   4.107  1.00 43.36    -0.359 OA
ATOM     22  HH  TYR A 338     -36.495 129.505   4.577  1.00  0.00     0.217 HD
ENDBRANCH  18  21
ENDBRANCH  14  15
ENDBRANCH  13  14
END_RES TYR A 338
ENDMDL
