MODEL 1
REMARK VINA RESULT:    -9.870      0.000      0.000
REMARK INTER + INTRA:         -15.752
REMARK INTER:                  -9.870
REMARK INTRA:                  -5.883
REMARK UNBOUND:                -5.883
REMARK  0 active torsions:
REMARK  status: ('A' for Active; 'I' for Inactive)
REMARK       I    between atoms: C6_6  and  C7_7 
REMARK       I    between atoms: C8_8  and  C9_9 
REMARK       I    between atoms: C10_10  and  C11_11 
REMARK       I    between atoms: C12_16  and  C13_17 
REMARK       I    between atoms: C14_18  and  C15_19 
REMARK       I    between atoms: C16_20  and  C17_21 
REMARK       I    between atoms: C18_22  and  C19_23 
REMARK       I    between atoms: C20_24  and  C21_25 
REMARK       I    between atoms: C22_26  and  C23_27 
REMARK       I    between atoms: C24_28  and  C25_29 
ROOT
HETATM    1  C1  BCR B 619     -34.697 130.256   7.950  1.00 29.78    -0.020 C 
HETATM    2  C2  BCR B 619     -33.582 129.458   8.613  1.00 32.88     0.014 C 
HETATM    3  C3  BCR B 619     -33.008 130.182   9.800  1.00 32.12     0.005 C 
HETATM    4  C4  BCR B 619     -34.031 130.448  10.870  1.00 29.37     0.034 C 
HETATM    5  C5  BCR B 619     -35.374 130.883  10.294  1.00 26.51    -0.077 C 
HETATM    6  C6  BCR B 619     -35.674 130.860   8.965  1.00 26.75    -0.048 C 
HETATM    7  C7  BCR B 619     -36.904 131.487   8.425  1.00 27.16     0.009 C 
HETATM    8  C8  BCR B 619     -37.465 132.603   8.884  1.00 26.20     0.007 C 
HETATM    9  C9  BCR B 619     -38.617 133.233   8.278  1.00 20.49    -0.062 C 
HETATM   10  C10 BCR B 619     -38.978 134.440   8.753  1.00 22.41     0.007 C 
HETATM   11  C11 BCR B 619     -40.046 135.272   8.216  1.00 20.79     0.001 C 
HETATM   12  C33 BCR B 619     -36.398 131.261  11.351  1.00 26.02     0.044 C 
HETATM   13  C31 BCR B 619     -35.416 129.334   7.010  1.00 32.38     0.020 C 
HETATM   14  C32 BCR B 619     -34.095 131.434   7.175  1.00 28.82     0.020 C 
HETATM   15  C34 BCR B 619     -39.324 132.485   7.179  1.00 20.53     0.048 C 
HETATM   16  C12 BCR B 619     -40.243 136.534   8.672  1.00 22.97     0.007 C 
HETATM   17  C13 BCR B 619     -41.333 137.428   8.166  1.00 24.26    -0.062 C 
HETATM   18  C14 BCR B 619     -41.491 138.675   8.714  1.00 21.19     0.007 C 
HETATM   19  C15 BCR B 619     -42.551 139.651   8.370  1.00 24.01     0.001 C 
HETATM   20  C16 BCR B 619     -42.676 140.843   9.030  1.00 22.73     0.001 C 
HETATM   21  C17 BCR B 619     -43.780 141.731   8.679  1.00 24.34     0.007 C 
HETATM   22  C18 BCR B 619     -44.059 142.952   9.290  1.00 23.72    -0.062 C 
HETATM   23  C19 BCR B 619     -45.226 143.754   8.798  1.00 24.63     0.007 C 
HETATM   24  C20 BCR B 619     -45.628 144.925   9.346  1.00 25.42     0.001 C 
HETATM   25  C21 BCR B 619     -46.810 145.623   8.852  1.00 24.42     0.007 C 
HETATM   26  C22 BCR B 619     -47.407 146.718   9.358  1.00 28.11    -0.062 C 
HETATM   27  C23 BCR B 619     -48.625 147.191   8.662  1.00 27.88     0.007 C 
HETATM   28  C24 BCR B 619     -49.233 148.369   8.945  1.00 48.58     0.009 C 
HETATM   29  C25 BCR B 619     -50.421 148.998   8.195  1.00 40.96    -0.048 C 
HETATM   30  C26 BCR B 619     -51.516 148.346   7.786  1.00 43.15    -0.077 C 
HETATM   31  C27 BCR B 619     -52.600 148.962   6.908  1.00 40.16     0.034 C 
HETATM   32  C28 BCR B 619     -52.163 150.241   6.254  1.00 50.45     0.005 C 
HETATM   33  C29 BCR B 619     -51.635 151.052   7.391  1.00 52.86     0.014 C 
HETATM   34  C30 BCR B 619     -50.330 150.496   7.949  1.00 49.52    -0.020 C 
HETATM   35  C35 BCR B 619     -42.290 136.841   7.092  1.00 23.42     0.048 C 
HETATM   36  C36 BCR B 619     -43.255 143.527  10.451  1.00 23.31     0.048 C 
HETATM   37  C37 BCR B 619     -46.846 147.426  10.601  1.00 31.17     0.048 C 
HETATM   38  C38 BCR B 619     -51.840 146.967   8.274  1.00 48.43     0.044 C 
HETATM   39  C39 BCR B 619     -49.986 151.350   9.196  1.00 62.11     0.020 C 
HETATM   40  C40 BCR B 619     -49.266 150.588   6.882  1.00 46.92     0.020 C 
ENDROOT
TORSDOF 10
BEGIN_RES PHE A  61
REMARK  2 active torsions:
REMARK  status: ('A' for Active; 'I' for Inactive)
REMARK    1  A    between atoms: CA   and  CB  
REMARK    2  A    between atoms: CB   and  CG  
ROOT
ATOM      1  CA  PHE A  61     -36.237 128.293  12.768  1.00 39.40     0.164 C 
ENDROOT
BRANCH   1   2
ATOM      2  CB  PHE A  61     -36.813 128.951  11.509  1.00 39.41     0.058 C 
BRANCH   2   3
ATOM      3  CG  PHE A  61     -36.810 128.066  10.285  1.00 39.01    -0.020 A 
ATOM      4  CD2 PHE A  61     -37.888 128.052   9.415  1.00 40.32    -0.004 A 
ATOM      5  CE2 PHE A  61     -37.885 127.235   8.291  1.00 40.20    -0.000 A 
ATOM      6  CZ  PHE A  61     -36.804 126.427   8.024  1.00 40.34    -0.000 A 
ATOM      7  CE1 PHE A  61     -35.724 126.431   8.878  1.00 41.51    -0.000 A 
ATOM      8  CD1 PHE A  61     -35.729 127.242  10.005  1.00 39.94    -0.004 A 
ENDBRANCH   2   3
ENDBRANCH   1   2
END_RES PHE A  61
BEGIN_RES VAL A 134
REMARK  1 active torsions:
REMARK  status: ('A' for Active; 'I' for Inactive)
REMARK    3  A    between atoms: CA   and  CB  
ROOT
ATOM      9  CA  VAL A 134     -29.766 132.051   9.815  1.00 40.75     0.159 C 
ENDROOT
BRANCH   9  10
ATOM     10  CB  VAL A 134     -30.864 132.765   9.009  1.00 40.76     0.029 C 
ATOM     11  CG1 VAL A 134     -31.179 131.999   7.732  1.00 41.76     0.002 C 
ATOM     12  CG2 VAL A 134     -32.122 132.975   9.838  1.00 40.56     0.002 C 
ENDBRANCH   9  10
END_RES VAL A 134
BEGIN_RES TYR A 338
REMARK  3 active torsions:
REMARK  status: ('A' for Active; 'I' for Inactive)
REMARK    4  A    between atoms: CA   and  CB  
REMARK    5  A    between atoms: CB   and  CG  
REMARK    6  A    between atoms: CZ   and  OH  
ROOT
ATOM     13  CA  TYR A 338     -41.631 124.950   6.058  1.00 38.23     0.164 C 
ENDROOT
BRANCH  13  14
ATOM     14  CB  TYR A 338     -41.621 126.456   6.339  1.00 39.15     0.058 C 
BRANCH  14  15
ATOM     15  CG  TYR A 338     -40.409 127.208   5.841  1.00 39.03    -0.020 A 
ATOM     16  CD2 TYR A 338     -39.440 126.560   5.093  1.00 40.65    -0.002 A 
ATOM     17  CE2 TYR A 338     -38.308 127.215   4.634  1.00 40.91     0.024 A 
ATOM     18  CZ  TYR A 338     -38.125 128.554   4.922  1.00 42.33     0.089 A 
ATOM     19  CE1 TYR A 338     -39.082 129.225   5.663  1.00 40.63     0.024 A 
ATOM     20  CD1 TYR A 338     -40.200 128.549   6.125  1.00 39.27    -0.002 A 
BRANCH  18  21
ATOM     21  OH  TYR A 338     -37.015 129.211   4.470  1.00 43.36    -0.359 OA
ATOM     22  HH  TYR A 338     -36.725 129.104   3.572  1.00  0.00     0.217 HD
ENDBRANCH  18  21
ENDBRANCH  14  15
ENDBRANCH  13  14
END_RES TYR A 338
ENDMDL
MODEL 2
REMARK VINA RESULT:    -8.271      0.403     16.720
REMARK INTER + INTRA:         -14.154
REMARK INTER:                  -8.610
REMARK INTRA:                  -5.544
REMARK UNBOUND:                -5.883
REMARK  0 active torsions:
REMARK  status: ('A' for Active; 'I' for Inactive)
REMARK       I    between atoms: C6_6  and  C7_7 
REMARK       I    between atoms: C8_8  and  C9_9 
REMARK       I    between atoms: C10_10  and  C11_11 
REMARK       I    between atoms: C12_16  and  C13_17 
REMARK       I    between atoms: C14_18  and  C15_19 
REMARK       I    between atoms: C16_20  and  C17_21 
REMARK       I    between atoms: C18_22  and  C19_23 
REMARK       I    between atoms: C20_24  and  C21_25 
REMARK       I    between atoms: C22_26  and  C23_27 
REMARK       I    between atoms: C24_28  and  C25_29 
ROOT
HETATM    1  C1  BCR B 619     -50.181 150.642   8.075  1.00 29.78    -0.020 C 
HETATM    2  C2  BCR B 619     -51.456 151.326   7.599  1.00 32.88     0.014 C 
HETATM    3  C3  BCR B 619     -52.174 150.507   6.562  1.00 32.12     0.005 C 
HETATM    4  C4  BCR B 619     -52.586 149.153   7.071  1.00 29.37     0.034 C 
HETATM    5  C5  BCR B 619     -51.508 148.505   7.935  1.00 26.51    -0.077 C 
HETATM    6  C6  BCR B 619     -50.381 149.147   8.351  1.00 26.75    -0.048 C 
HETATM    7  C7  BCR B 619     -49.261 148.428   9.004  1.00 27.16     0.009 C 
HETATM    8  C8  BCR B 619     -48.864 147.191   8.712  1.00 26.20     0.007 C 
HETATM    9  C9  BCR B 619     -47.715 146.552   9.310  1.00 20.49    -0.062 C 
HETATM   10  C10 BCR B 619     -47.340 145.362   8.804  1.00 22.41     0.007 C 
HETATM   11  C11 BCR B 619     -46.160 144.609   9.206  1.00 20.79     0.001 C 
HETATM   12  C33 BCR B 619     -51.849 147.093   8.379  1.00 26.02     0.044 C 
HETATM   13  C31 BCR B 619     -49.723 151.350   9.315  1.00 32.38     0.020 C 
HETATM   14  C32 BCR B 619     -49.107 150.741   6.985  1.00 28.82     0.020 C 
HETATM   15  C34 BCR B 619     -47.041 147.260  10.456  1.00 20.53     0.048 C 
HETATM   16  C12 BCR B 619     -45.788 143.488   8.540  1.00 22.97     0.007 C 
HETATM   17  C13 BCR B 619     -44.592 142.667   8.918  1.00 24.26    -0.062 C 
HETATM   18  C14 BCR B 619     -44.313 141.522   8.218  1.00 21.19     0.007 C 
HETATM   19  C15 BCR B 619     -43.210 140.574   8.503  1.00 24.01     0.001 C 
HETATM   20  C16 BCR B 619     -43.058 139.412   7.796  1.00 22.73     0.001 C 
HETATM   21  C17 BCR B 619     -41.986 138.495   8.170  1.00 24.34     0.007 C 
HETATM   22  C18 BCR B 619     -41.735 137.262   7.573  1.00 23.72    -0.062 C 
HETATM   23  C19 BCR B 619     -40.579 136.445   8.066  1.00 24.63     0.007 C 
HETATM   24  C20 BCR B 619     -40.269 135.209   7.604  1.00 25.42     0.001 C 
HETATM   25  C21 BCR B 619     -39.162 134.448   8.172  1.00 24.42     0.007 C 
HETATM   26  C22 BCR B 619     -38.803 133.176   7.914  1.00 28.11    -0.062 C 
HETATM   27  C23 BCR B 619     -37.647 132.646   8.671  1.00 27.88     0.007 C 
HETATM   28  C24 BCR B 619     -37.065 131.453   8.401  1.00 48.58     0.009 C 
HETATM   29  C25 BCR B 619     -35.790 130.880   9.047  1.00 40.96    -0.048 C 
HETATM   30  C26 BCR B 619     -35.500 130.908  10.353  1.00 43.15    -0.077 C 
HETATM   31  C27 BCR B 619     -34.161 130.476  10.941  1.00 40.16     0.034 C 
HETATM   32  C28 BCR B 619     -33.082 130.354   9.905  1.00 50.45     0.005 C 
HETATM   33  C29 BCR B 619     -33.701 129.488   8.856  1.00 52.86     0.014 C 
HETATM   34  C30 BCR B 619     -34.817 130.197   8.098  1.00 49.52    -0.020 C 
HETATM   35  C35 BCR B 619     -43.780 143.129  10.159  1.00 23.42     0.048 C 
HETATM   36  C36 BCR B 619     -42.578 136.671   6.448  1.00 23.31     0.048 C 
HETATM   37  C37 BCR B 619     -39.571 132.326   6.890  1.00 31.17     0.048 C 
HETATM   38  C38 BCR B 619     -36.534 131.249  11.382  1.00 48.43     0.044 C 
HETATM   39  C39 BCR B 619     -35.447 129.141   7.155  1.00 62.11     0.020 C 
HETATM   40  C40 BCR B 619     -34.228 131.361   7.339  1.00 46.92     0.020 C 
ENDROOT
TORSDOF 10
BEGIN_RES PHE A  61
REMARK  2 active torsions:
REMARK  status: ('A' for Active; 'I' for Inactive)
REMARK    1  A    between atoms: CA   and  CB  
REMARK    2  A    between atoms: CB   and  CG  
ROOT
ATOM      1  CA  PHE A  61     -36.237 128.293  12.768  1.00 39.40     0.164 C 
ENDROOT
BRANCH   1   2
ATOM      2  CB  PHE A  61     -36.813 128.951  11.509  1.00 39.41     0.058 C 
BRANCH   2   3
ATOM      3  CG  PHE A  61     -36.864 128.047  10.300  1.00 39.01    -0.020 A 
ATOM      4  CD2 PHE A  61     -37.954 128.064   9.445  1.00 40.32    -0.004 A 
ATOM      5  CE2 PHE A  61     -38.001 127.230   8.335  1.00 40.20    -0.000 A 
ATOM      6  CZ  PHE A  61     -36.958 126.373   8.066  1.00 40.34    -0.000 A 
ATOM      7  CE1 PHE A  61     -35.866 126.346   8.905  1.00 41.51    -0.000 A 
ATOM      8  CD1 PHE A  61     -35.822 127.175  10.019  1.00 39.94    -0.004 A 
ENDBRANCH   2   3
ENDBRANCH   1   2
END_RES PHE A  61
BEGIN_RES VAL A 134
REMARK  1 active torsions:
REMARK  status: ('A' for Active; 'I' for Inactive)
REMARK    3  A    between atoms: CA   and  CB  
ROOT
ATOM      9  CA  VAL A 134     -29.766 132.051   9.815  1.00 40.75     0.159 C 
ENDROOT
BRANCH   9  10
ATOM     10  CB  VAL A 134     -30.864 132.765   9.009  1.00 40.76     0.029 C 
ATOM     11  CG1 VAL A 134     -31.204 131.980   7.750  1.00 41.76     0.002 C 
ATOM     12  CG2 VAL A 134     -32.109 133.007   9.848  1.00 40.56     0.002 C 
ENDBRANCH   9  10
END_RES VAL A 134
BEGIN_RES TYR A 338
REMARK  3 active torsions:
REMARK  status: ('A' for Active; 'I' for Inactive)
REMARK    4  A    between atoms: CA   and  CB  
REMARK    5  A    between atoms: CB   and  CG  
REMARK    6  A    between atoms: CZ   and  OH  
ROOT
ATOM     13  CA  TYR A 338     -41.631 124.950   6.058  1.00 38.23     0.164 C 
ENDROOT
BRANCH  13  14
ATOM     14  CB  TYR A 338     -41.621 126.456   6.339  1.00 39.15     0.058 C 
BRANCH  14  15
ATOM     15  CG  TYR A 338     -40.398 127.204   5.862  1.00 39.03    -0.020 A 
ATOM     16  CD2 TYR A 338     -40.226 128.541   6.178  1.00 40.65    -0.002 A 
ATOM     17  CE2 TYR A 338     -39.125 129.263   5.744  1.00 40.91     0.024 A 
ATOM     18  CZ  TYR A 338     -38.160 128.644   4.971  1.00 42.33     0.089 A 
ATOM     19  CE1 TYR A 338     -38.307 127.307   4.646  1.00 40.63     0.024 A 
ATOM     20  CD1 TYR A 338     -39.422 126.606   5.079  1.00 39.27    -0.002 A 
BRANCH  18  21
ATOM     21  OH  TYR A 338     -37.068 129.344   4.542  1.00 43.36    -0.359 OA
ATOM     22  HH  TYR A 338     -37.130 130.277   4.375  1.00  0.00     0.217 HD
ENDBRANCH  18  21
ENDBRANCH  14  15
ENDBRANCH  13  14
END_RES TYR A 338
ENDMDL
MODEL 3
REMARK VINA RESULT:    -8.097      2.695     16.854
REMARK INTER + INTRA:         -13.980
REMARK INTER:                 -11.364
REMARK INTRA:                  -2.616
REMARK UNBOUND:                -5.883
REMARK  0 active torsions:
REMARK  status: ('A' for Active; 'I' for Inactive)
REMARK       I    between atoms: C6_6  and  C7_7 
REMARK       I    between atoms: C8_8  and  C9_9 
REMARK       I    between atoms: C10_10  and  C11_11 
REMARK       I    between atoms: C12_16  and  C13_17 
REMARK       I    between atoms: C14_18  and  C15_19 
REMARK       I    between atoms: C16_20  and  C17_21 
REMARK       I    between atoms: C18_22  and  C19_23 
REMARK       I    between atoms: C20_24  and  C21_25 
REMARK       I    between atoms: C22_26  and  C23_27 
REMARK       I    between atoms: C24_28  and  C25_29 
ROOT
HETATM    1  C1  BCR B 619     -46.278 149.289  11.303  1.00 29.78    -0.020 C 
HETATM    2  C2  BCR B 619     -47.473 150.025  11.894  1.00 32.88     0.014 C 
HETATM    3  C3  BCR B 619     -48.570 149.077  12.296  1.00 32.12     0.005 C 
HETATM    4  C4  BCR B 619     -48.129 148.084  13.336  1.00 29.37     0.034 C 
HETATM    5  C5  BCR B 619     -46.725 147.550  13.071  1.00 26.51    -0.077 C 
HETATM    6  C6  BCR B 619     -45.893 148.045  12.113  1.00 26.75    -0.048 C 
HETATM    7  C7  BCR B 619     -44.627 147.367  11.743  1.00 27.16     0.009 C 
HETATM    8  C8  BCR B 619     -44.438 146.049  11.715  1.00 26.20     0.007 C 
HETATM    9  C9  BCR B 619     -43.216 145.420  11.267  1.00 20.49    -0.062 C 
HETATM   10  C10 BCR B 619     -43.224 144.080  11.144  1.00 22.41     0.007 C 
HETATM   11  C11 BCR B 619     -42.129 143.275  10.622  1.00 20.79     0.001 C 
HETATM   12  C33 BCR B 619     -46.290 146.468  14.044  1.00 26.02     0.044 C 
HETATM   13  C31 BCR B 619     -45.133 150.256  11.246  1.00 32.38     0.020 C 
HETATM   14  C32 BCR B 619     -46.623 148.797   9.892  1.00 28.82     0.020 C 
HETATM   15  C34 BCR B 619     -42.034 146.312  10.991  1.00 20.53     0.048 C 
HETATM   16  C12 BCR B 619     -42.282 141.945  10.404  1.00 22.97     0.007 C 
HETATM   17  C13 BCR B 619     -41.187 141.067   9.881  1.00 24.26    -0.062 C 
HETATM   18  C14 BCR B 619     -41.413 139.723   9.732  1.00 21.19     0.007 C 
HETATM   19  C15 BCR B 619     -40.421 138.716   9.289  1.00 24.01     0.001 C 
HETATM   20  C16 BCR B 619     -40.719 137.381   9.247  1.00 22.73     0.001 C 
HETATM   21  C17 BCR B 619     -39.675 136.438   8.857  1.00 24.34     0.007 C 
HETATM   22  C18 BCR B 619     -39.816 135.053   8.809  1.00 23.72    -0.062 C 
HETATM   23  C19 BCR B 619     -38.647 134.224   8.370  1.00 24.63     0.007 C 
HETATM   24  C20 BCR B 619     -38.645 132.870   8.335  1.00 25.42     0.001 C 
HETATM   25  C21 BCR B 619     -37.449 132.128   7.951  1.00 24.42     0.007 C 
HETATM   26  C22 BCR B 619     -37.246 130.797   7.983  1.00 28.11    -0.062 C 
HETATM   27  C23 BCR B 619     -35.909 130.320   7.564  1.00 27.88     0.007 C 
HETATM   28  C24 BCR B 619     -35.610 129.011   7.379  1.00 48.58     0.009 C 
HETATM   29  C25 BCR B 619     -34.294 128.433   6.827  1.00 40.96    -0.048 C 
HETATM   30  C26 BCR B 619     -33.065 128.831   7.175  1.00 43.15    -0.077 C 
HETATM   31  C27 BCR B 619     -31.787 128.350   6.495  1.00 40.16     0.034 C 
HETATM   32  C28 BCR B 619     -32.045 127.671   5.181  1.00 50.45     0.005 C 
HETATM   33  C29 BCR B 619     -33.090 126.656   5.513  1.00 52.86     0.014 C 
HETATM   34  C30 BCR B 619     -34.438 127.289   5.836  1.00 49.52    -0.020 C 
HETATM   35  C35 BCR B 619     -39.808 141.734   9.620  1.00 23.42     0.048 C 
HETATM   36  C36 BCR B 619     -41.092 134.313   9.194  1.00 23.31     0.048 C 
HETATM   37  C37 BCR B 619     -38.353 129.835   8.442  1.00 31.17     0.048 C 
HETATM   38  C38 BCR B 619     -32.826 129.700   8.371  1.00 48.43     0.044 C 
HETATM   39  C39 BCR B 619     -35.367 126.135   6.291  1.00 62.11     0.020 C 
HETATM   40  C40 BCR B 619     -34.957 127.987   4.603  1.00 46.92     0.020 C 
ENDROOT
TORSDOF 10
BEGIN_RES PHE A  61
REMARK  2 active torsions:
REMARK  status: ('A' for Active; 'I' for Inactive)
REMARK    1  A    between atoms: CA   and  CB  
REMARK    2  A    between atoms: CB   and  CG  
ROOT
ATOM      1  CA  PHE A  61     -36.237 128.293  12.768  1.00 39.40     0.164 C 
ENDROOT
BRANCH   1   2
ATOM      2  CB  PHE A  61     -36.813 128.951  11.509  1.00 39.41     0.058 C 
BRANCH   2   3
ATOM      3  CG  PHE A  61     -36.371 130.379  11.293  1.00 39.01    -0.020 A 
ATOM      4  CD2 PHE A  61     -35.100 130.666  10.820  1.00 40.32    -0.004 A 
ATOM      5  CE2 PHE A  61     -34.693 131.980  10.625  1.00 40.20    -0.000 A 
ATOM      6  CZ  PHE A  61     -35.553 133.020  10.896  1.00 40.34    -0.000 A 
ATOM      7  CE1 PHE A  61     -36.820 132.751  11.365  1.00 41.51    -0.000 A 
ATOM      8  CD1 PHE A  61     -37.225 131.438  11.566  1.00 39.94    -0.004 A 
ENDBRANCH   2   3
ENDBRANCH   1   2
END_RES PHE A  61
BEGIN_RES VAL A 134
REMARK  1 active torsions:
REMARK  status: ('A' for Active; 'I' for Inactive)
REMARK    3  A    between atoms: CA   and  CB  
ROOT
ATOM      9  CA  VAL A 134     -29.766 132.051   9.815  1.00 40.75     0.159 C 
ENDROOT
BRANCH   9  10
ATOM     10  CB  VAL A 134     -30.864 132.765   9.009  1.00 40.76     0.029 C 
ATOM     11  CG1 VAL A 134     -31.178 131.999   7.732  1.00 41.76     0.002 C 
ATOM     12  CG2 VAL A 134     -32.122 132.974   9.837  1.00 40.56     0.002 C 
ENDBRANCH   9  10
END_RES VAL A 134
BEGIN_RES TYR A 338
REMARK  3 active torsions:
REMARK  status: ('A' for Active; 'I' for Inactive)
REMARK    4  A    between atoms: CA   and  CB  
REMARK    5  A    between atoms: CB   and  CG  
REMARK    6  A    between atoms: CZ   and  OH  
ROOT
ATOM     13  CA  TYR A 338     -41.631 124.950   6.058  1.00 38.23     0.164 C 
ENDROOT
BRANCH  13  14
ATOM     14  CB  TYR A 338     -41.621 126.456   6.339  1.00 39.15     0.058 C 
BRANCH  14  15
ATOM     15  CG  TYR A 338     -40.416 127.211   5.826  1.00 39.03    -0.020 A 
ATOM     16  CD2 TYR A 338     -40.284 128.568   6.069  1.00 40.65    -0.002 A 
ATOM     17  CE2 TYR A 338     -39.200 129.295   5.601  1.00 40.91     0.024 A 
ATOM     18  CZ  TYR A 338     -38.215 128.662   4.866  1.00 42.33     0.089 A 
ATOM     19  CE1 TYR A 338     -38.323 127.306   4.614  1.00 40.63     0.024 A 
ATOM     20  CD1 TYR A 338     -39.421 126.599   5.080  1.00 39.27    -0.002 A 
BRANCH  18  21
ATOM     21  OH  TYR A 338     -37.140 129.368   4.403  1.00 43.36    -0.359 OA
ATOM     22  HH  TYR A 338     -36.719 130.017   4.954  1.00  0.00     0.217 HD
ENDBRANCH  18  21
ENDBRANCH  14  15
ENDBRANCH  13  14
END_RES TYR A 338
ENDMDL
MODEL 4
REMARK VINA RESULT:    -7.744      2.888      4.902
REMARK INTER + INTRA:         -13.627
REMARK INTER:                 -11.540
REMARK INTRA:                  -2.087
REMARK UNBOUND:                -5.883
REMARK  0 active torsions:
REMARK  status: ('A' for Active; 'I' for Inactive)
REMARK       I    between atoms: C6_6  and  C7_7 
REMARK       I    between atoms: C8_8  and  C9_9 
REMARK       I    between atoms: C10_10  and  C11_11 
REMARK       I    between atoms: C12_16  and  C13_17 
REMARK       I    between atoms: C14_18  and  C15_19 
REMARK       I    between atoms: C16_20  and  C17_21 
REMARK       I    between atoms: C18_22  and  C19_23 
REMARK       I    between atoms: C20_24  and  C21_25 
REMARK       I    between atoms: C22_26  and  C23_27 
REMARK       I    between atoms: C24_28  and  C25_29 
ROOT
HETATM    1  C1  BCR B 619     -33.975 126.775   7.022  1.00 29.78    -0.020 C 
HETATM    2  C2  BCR B 619     -33.058 126.028   6.062  1.00 32.88     0.014 C 
HETATM    3  C3  BCR B 619     -32.860 126.786   4.777  1.00 32.12     0.005 C 
HETATM    4  C4  BCR B 619     -32.239 128.139   4.990  1.00 29.37     0.034 C 
HETATM    5  C5  BCR B 619     -32.807 128.854   6.211  1.00 26.51    -0.077 C 
HETATM    6  C6  BCR B 619     -33.645 128.269   7.112  1.00 26.75    -0.048 C 
HETATM    7  C7  BCR B 619     -34.343 129.050   8.161  1.00 27.16     0.009 C 
HETATM    8  C8  BCR B 619     -34.804 130.291   8.019  1.00 26.20     0.007 C 
HETATM    9  C9  BCR B 619     -35.556 130.992   9.036  1.00 20.49    -0.062 C 
HETATM   10  C10 BCR B 619     -36.094 132.178   8.695  1.00 22.41     0.007 C 
HETATM   11  C11 BCR B 619     -36.957 132.987   9.543  1.00 20.79     0.001 C 
HETATM   12  C33 BCR B 619     -32.278 130.266   6.394  1.00 26.02     0.044 C 
HETATM   13  C31 BCR B 619     -33.848 126.124   8.368  1.00 32.38     0.020 C 
HETATM   14  C32 BCR B 619     -35.424 126.681   6.527  1.00 28.82     0.020 C 
HETATM   15  C34 BCR B 619     -35.663 130.347  10.392  1.00 20.53     0.048 C 
HETATM   16  C12 BCR B 619     -37.565 134.100   9.061  1.00 22.97     0.007 C 
HETATM   17  C13 BCR B 619     -38.451 134.976   9.892  1.00 24.26    -0.062 C 
HETATM   18  C14 BCR B 619     -38.991 136.108   9.338  1.00 21.19     0.007 C 
HETATM   19  C15 BCR B 619     -39.833 137.106  10.038  1.00 24.01     0.001 C 
HETATM   20  C16 BCR B 619     -40.261 138.249   9.420  1.00 22.73     0.001 C 
HETATM   21  C17 BCR B 619     -41.037 139.217  10.189  1.00 24.34     0.007 C 
HETATM   22  C18 BCR B 619     -41.504 140.439   9.710  1.00 23.72    -0.062 C 
HETATM   23  C19 BCR B 619     -42.304 141.315  10.626  1.00 24.63     0.007 C 
HETATM   24  C20 BCR B 619     -42.763 142.545  10.294  1.00 25.42     0.001 C 
HETATM   25  C21 BCR B 619     -43.487 143.365  11.259  1.00 24.42     0.007 C 
HETATM   26  C22 BCR B 619     -43.898 144.641  11.129  1.00 28.11    -0.062 C 
HETATM   27  C23 BCR B 619     -44.587 145.238  12.295  1.00 27.88     0.007 C 
HETATM   28  C24 BCR B 619     -45.206 146.443  12.258  1.00 48.58     0.009 C 
HETATM   29  C25 BCR B 619     -46.049 147.084  13.375  1.00 40.96    -0.048 C 
HETATM   30  C26 BCR B 619     -45.729 147.108  14.674  1.00 43.15    -0.077 C 
HETATM   31  C27 BCR B 619     -46.658 147.609  15.774  1.00 40.16     0.034 C 
HETATM   32  C28 BCR B 619     -48.083 147.738  15.320  1.00 50.45     0.005 C 
HETATM   33  C29 BCR B 619     -47.978 148.546  14.067  1.00 52.86     0.014 C 
HETATM   34  C30 BCR B 619     -47.329 147.771  12.926  1.00 49.52    -0.020 C 
HETATM   35  C35 BCR B 619     -38.636 134.586  11.384  1.00 23.42     0.048 C 
HETATM   36  C36 BCR B 619     -41.237 140.961   8.302  1.00 23.31     0.048 C 
HETATM   37  C37 BCR B 619     -43.650 145.428   9.833  1.00 31.17     0.048 C 
HETATM   38  C38 BCR B 619     -44.352 146.762  15.152  1.00 48.43     0.044 C 
HETATM   39  C39 BCR B 619     -47.164 148.773  11.754  1.00 62.11     0.020 C 
HETATM   40  C40 BCR B 619     -48.217 146.607  12.560  1.00 46.92     0.020 C 
ENDROOT
TORSDOF 10
BEGIN_RES PHE A  61
REMARK  2 active torsions:
REMARK  status: ('A' for Active; 'I' for Inactive)
REMARK    1  A    between atoms: CA   and  CB  
REMARK    2  A    between atoms: CB   and  CG  
ROOT
ATOM      1  CA  PHE A  61     -36.237 128.293  12.768  1.00 39.40     0.164 C 
ENDROOT
BRANCH   1   2
ATOM      2  CB  PHE A  61     -36.813 128.951  11.509  1.00 39.41     0.058 C 
BRANCH   2   3
ATOM      3  CG  PHE A  61     -37.097 127.992  10.378  1.00 39.01    -0.020 A 
ATOM      4  CD2 PHE A  61     -36.454 126.766  10.306  1.00 40.32    -0.004 A 
ATOM      5  CE2 PHE A  61     -36.714 125.886   9.263  1.00 40.20    -0.000 A 
ATOM      6  CZ  PHE A  61     -37.621 126.219   8.283  1.00 40.34    -0.000 A 
ATOM      7  CE1 PHE A  61     -38.270 127.433   8.341  1.00 41.51    -0.000 A 
ATOM      8  CD1 PHE A  61     -38.005 128.316   9.380  1.00 39.94    -0.004 A 
ENDBRANCH   2   3
ENDBRANCH   1   2
END_RES PHE A  61
BEGIN_RES VAL A 134
REMARK  1 active torsions:
REMARK  status: ('A' for Active; 'I' for Inactive)
REMARK    3  A    between atoms: CA   and  CB  
ROOT
ATOM      9  CA  VAL A 134     -29.766 132.051   9.815  1.00 40.75     0.159 C 
ENDROOT
BRANCH   9  10
ATOM     10  CB  VAL A 134     -30.864 132.765   9.009  1.00 40.76     0.029 C 
ATOM     11  CG1 VAL A 134     -30.850 132.307   7.558  1.00 41.76     0.002 C 
ATOM     12  CG2 VAL A 134     -32.238 132.559   9.628  1.00 40.56     0.002 C 
ENDBRANCH   9  10
END_RES VAL A 134
BEGIN_RES TYR A 338
REMARK  3 active torsions:
REMARK  status: ('A' for Active; 'I' for Inactive)
REMARK    4  A    between atoms: CA   and  CB  
REMARK    5  A    between atoms: CB   and  CG  
REMARK    6  A    between atoms: CZ   and  OH  
ROOT
ATOM     13  CA  TYR A 338     -41.631 124.950   6.058  1.00 38.23     0.164 C 
ENDROOT
BRANCH  13  14
ATOM     14  CB  TYR A 338     -41.621 126.456   6.339  1.00 39.15     0.058 C 
BRANCH  14  15
ATOM     15  CG  TYR A 338     -40.399 127.205   5.859  1.00 39.03    -0.020 A 
ATOM     16  CD2 TYR A 338     -40.227 128.542   6.175  1.00 40.65    -0.002 A 
ATOM     17  CE2 TYR A 338     -39.127 129.263   5.739  1.00 40.91     0.024 A 
ATOM     18  CZ  TYR A 338     -38.165 128.645   4.963  1.00 42.33     0.089 A 
ATOM     19  CE1 TYR A 338     -38.312 127.309   4.637  1.00 40.63     0.024 A 
ATOM     20  CD1 TYR A 338     -39.426 126.608   5.073  1.00 39.27    -0.002 A 
BRANCH  18  21
ATOM     21  OH  TYR A 338     -37.074 129.346   4.531  1.00 43.36    -0.359 OA
ATOM     22  HH  TYR A 338     -36.597 129.065   3.758  1.00  0.00     0.217 HD
ENDBRANCH  18  21
ENDBRANCH  14  15
ENDBRANCH  13  14
END_RES TYR A 338
ENDMDL
MODEL 5
REMARK VINA RESULT:    -7.464      2.766     16.841
REMARK INTER + INTRA:         -13.347
REMARK INTER:                 -10.333
REMARK INTRA:                  -3.014
REMARK UNBOUND:                -5.883
REMARK  0 active torsions:
REMARK  status: ('A' for Active; 'I' for Inactive)
REMARK       I    between atoms: C6_6  and  C7_7 
REMARK       I    between atoms: C8_8  and  C9_9 
REMARK       I    between atoms: C10_10  and  C11_11 
REMARK       I    between atoms: C12_16  and  C13_17 
REMARK       I    between atoms: C14_18  and  C15_19 
REMARK       I    between atoms: C16_20  and  C17_21 
REMARK       I    between atoms: C18_22  and  C19_23 
REMARK       I    between atoms: C20_24  and  C21_25 
REMARK       I    between atoms: C22_26  and  C23_27 
REMARK       I    between atoms: C24_28  and  C25_29 
ROOT
HETATM    1  C1  BCR B 619     -47.055 148.072  12.128  1.00 29.78    -0.020 C 
HETATM    2  C2  BCR B 619     -47.716 148.986  13.152  1.00 32.88     0.014 C 
HETATM    3  C3  BCR B 619     -47.704 148.381  14.530  1.00 32.12     0.005 C 
HETATM    4  C4  BCR B 619     -46.313 148.117  15.036  1.00 29.37     0.034 C 
HETATM    5  C5  BCR B 619     -45.397 147.554  13.954  1.00 26.51    -0.077 C 
HETATM    6  C6  BCR B 619     -45.740 147.470  12.638  1.00 26.75    -0.048 C 
HETATM    7  C7  BCR B 619     -44.916 146.726  11.656  1.00 27.16     0.009 C 
HETATM    8  C8  BCR B 619     -44.241 145.606  11.906  1.00 26.20     0.007 C 
HETATM    9  C9  BCR B 619     -43.516 144.861  10.903  1.00 20.49    -0.062 C 
HETATM   10  C10 BCR B 619     -43.015 143.666  11.267  1.00 22.41     0.007 C 
HETATM   11  C11 BCR B 619     -42.339 142.729  10.380  1.00 20.79     0.001 C 
HETATM   12  C33 BCR B 619     -44.015 147.176  14.458  1.00 26.02     0.044 C 
HETATM   13  C31 BCR B 619     -46.819 148.879  10.886  1.00 32.38     0.020 C 
HETATM   14  C32 BCR B 619     -47.982 146.890  11.820  1.00 28.82     0.020 C 
HETATM   15  C34 BCR B 619     -43.369 145.486   9.541  1.00 20.53     0.048 C 
HETATM   16  C12 BCR B 619     -41.994 141.489  10.806  1.00 22.97     0.007 C 
HETATM   17  C13 BCR B 619     -41.286 140.491   9.942  1.00 24.26    -0.062 C 
HETATM   18  C14 BCR B 619     -40.933 139.275  10.467  1.00 21.19     0.007 C 
HETATM   19  C15 BCR B 619     -40.180 138.208   9.767  1.00 24.01     0.001 C 
HETATM   20  C16 BCR B 619     -39.804 137.056  10.401  1.00 22.73     0.001 C 
HETATM   21  C17 BCR B 619     -39.011 136.074   9.668  1.00 24.34     0.007 C 
HETATM   22  C18 BCR B 619     -38.522 134.879  10.191  1.00 23.72    -0.062 C 
HETATM   23  C19 BCR B 619     -37.736 133.969   9.296  1.00 24.63     0.007 C 
HETATM   24  C20 BCR B 619     -37.164 132.810   9.703  1.00 25.42     0.001 C 
HETATM   25  C21 BCR B 619     -36.363 132.003   8.790  1.00 24.42     0.007 C 
HETATM   26  C22 BCR B 619     -35.635 130.905   9.064  1.00 28.11    -0.062 C 
HETATM   27  C23 BCR B 619     -34.887 130.305   7.937  1.00 27.88     0.007 C 
HETATM   28  C24 BCR B 619     -34.253 129.110   8.015  1.00 48.58     0.009 C 
HETATM   29  C25 BCR B 619     -33.562 128.353   6.867  1.00 40.96    -0.048 C 
HETATM   30  C26 BCR B 619     -32.758 128.901   5.948  1.00 43.15    -0.077 C 
HETATM   31  C27 BCR B 619     -32.217 128.156   4.732  1.00 40.16     0.034 C 
HETATM   32  C28 BCR B 619     -32.944 126.870   4.465  1.00 50.45     0.005 C 
HETATM   33  C29 BCR B 619     -32.917 126.173   5.786  1.00 52.86     0.014 C 
HETATM   34  C30 BCR B 619     -33.803 126.852   6.824  1.00 49.52    -0.020 C 
HETATM   35  C35 BCR B 619     -40.910 140.940   8.503  1.00 23.42     0.048 C 
HETATM   36  C36 BCR B 619     -38.721 134.437  11.637  1.00 23.31     0.048 C 
HETATM   37  C37 BCR B 619     -35.584 130.319  10.484  1.00 31.17     0.048 C 
HETATM   38  C38 BCR B 619     -32.203 130.283   6.110  1.00 48.43     0.044 C 
HETATM   39  C39 BCR B 619     -33.563 126.107   8.161  1.00 62.11     0.020 C 
HETATM   40  C40 BCR B 619     -35.240 126.764   6.370  1.00 46.92     0.020 C 
ENDROOT
TORSDOF 10
BEGIN_RES PHE A  61
REMARK  2 active torsions:
REMARK  status: ('A' for Active; 'I' for Inactive)
REMARK    1  A    between atoms: CA   and  CB  
REMARK    2  A    between atoms: CB   and  CG  
ROOT
ATOM      1  CA  PHE A  61     -36.237 128.293  12.768  1.00 39.40     0.164 C 
ENDROOT
BRANCH   1   2
ATOM      2  CB  PHE A  61     -36.813 128.951  11.509  1.00 39.41     0.058 C 
BRANCH   2   3
ATOM      3  CG  PHE A  61     -37.040 128.002  10.357  1.00 39.01    -0.020 A 
ATOM      4  CD2 PHE A  61     -36.300 126.836  10.239  1.00 40.32    -0.004 A 
ATOM      5  CE2 PHE A  61     -36.507 125.965   9.177  1.00 40.20    -0.000 A 
ATOM      6  CZ  PHE A  61     -37.459 126.248   8.223  1.00 40.34    -0.000 A 
ATOM      7  CE1 PHE A  61     -38.204 127.401   8.327  1.00 41.51    -0.000 A 
ATOM      8  CD1 PHE A  61     -37.992 128.275   9.385  1.00 39.94    -0.004 A 
ENDBRANCH   2   3
ENDBRANCH   1   2
END_RES PHE A  61
BEGIN_RES VAL A 134
REMARK  1 active torsions:
REMARK  status: ('A' for Active; 'I' for Inactive)
REMARK    3  A    between atoms: CA   and  CB  
ROOT
ATOM      9  CA  VAL A 134     -29.766 132.051   9.815  1.00 40.75     0.159 C 
ENDROOT
BRANCH   9  10
ATOM     10  CB  VAL A 134     -30.864 132.765   9.009  1.00 40.76     0.029 C 
ATOM     11  CG1 VAL A 134     -30.851 132.306   7.558  1.00 41.76     0.002 C 
ATOM     12  CG2 VAL A 134     -32.238 132.561   9.629  1.00 40.56     0.002 C 
ENDBRANCH   9  10
END_RES VAL A 134
BEGIN_RES TYR A 338
REMARK  3 active torsions:
REMARK  status: ('A' for Active; 'I' for Inactive)
REMARK    4  A    between atoms: CA   and  CB  
REMARK    5  A    between atoms: CB   and  CG  
REMARK    6  A    between atoms: CZ   and  OH  
ROOT
ATOM     13  CA  TYR A 338     -41.631 124.950   6.058  1.00 38.23     0.164 C 
ENDROOT
BRANCH  13  14
ATOM     14  CB  TYR A 338     -41.621 126.456   6.339  1.00 39.15     0.058 C 
BRANCH  14  15
ATOM     15  CG  TYR A 338     -40.396 127.204   5.865  1.00 39.03    -0.020 A 
ATOM     16  CD2 TYR A 338     -40.220 128.538   6.191  1.00 40.65    -0.002 A 
ATOM     17  CE2 TYR A 338     -39.117 129.259   5.760  1.00 40.91     0.024 A 
ATOM     18  CZ  TYR A 338     -38.156 128.642   4.981  1.00 42.33     0.089 A 
ATOM     19  CE1 TYR A 338     -38.307 127.308   4.647  1.00 40.63     0.024 A 
ATOM     20  CD1 TYR A 338     -39.424 126.608   5.076  1.00 39.27    -0.002 A 
BRANCH  18  21
ATOM     21  OH  TYR A 338     -37.061 129.342   4.555  1.00 43.36    -0.359 OA
ATOM     22  HH  TYR A 338     -37.158 130.221   4.209  1.00  0.00     0.217 HD
ENDBRANCH  18  21
ENDBRANCH  14  15
ENDBRANCH  13  14
END_RES TYR A 338
ENDMDL
