MODEL 1
REMARK VINA RESULT:    -8.778      0.000      0.000
REMARK INTER + INTRA:         -14.278
REMARK INTER:                  -8.778
REMARK INTRA:                  -5.500
REMARK UNBOUND:                -5.500
REMARK  0 active torsions:
REMARK  status: ('A' for Active; 'I' for Inactive)
REMARK       I    between atoms: C6_6  and  C7_7 
REMARK       I    between atoms: C8_8  and  C9_9 
REMARK       I    between atoms: C10_10  and  C11_11 
REMARK       I    between atoms: C12_16  and  C13_17 
REMARK       I    between atoms: C14_18  and  C15_19 
REMARK       I    between atoms: C16_20  and  C17_21 
REMARK       I    between atoms: C18_22  and  C19_23 
REMARK       I    between atoms: C20_24  and  C21_25 
REMARK       I    between atoms: C22_26  and  C23_27 
REMARK       I    between atoms: C24_28  and  C25_29 
ROOT
HETATM    1  C1  BCR K 102     -34.589 126.985   4.952  1.00 41.29    -0.020 C 
HETATM    2  C2  BCR K 102     -33.915 125.850   4.188  1.00 34.85     0.014 C 
HETATM    3  C3  BCR K 102     -32.775 126.354   3.319  1.00 30.40     0.005 C 
HETATM    4  C4  BCR K 102     -31.707 127.040   4.161  1.00 33.17     0.034 C 
HETATM    5  C5  BCR K 102     -32.272 127.828   5.320  1.00 30.48    -0.077 C 
HETATM    6  C6  BCR K 102     -33.564 127.820   5.696  1.00 35.91    -0.048 C 
HETATM    7  C7  BCR K 102     -33.962 128.666   6.863  1.00 31.64     0.009 C 
HETATM    8  C8  BCR K 102     -35.044 129.460   6.845  1.00 31.88     0.007 C 
HETATM    9  C9  BCR K 102     -35.458 130.338   7.968  1.00 37.16    -0.062 C 
HETATM   10  C10 BCR K 102     -36.539 131.141   7.811  1.00 29.99     0.007 C 
HETATM   11  C11 BCR K 102     -37.071 132.113   8.781  1.00 26.11     0.001 C 
HETATM   12  C33 BCR K 102     -31.288 128.657   6.088  1.00 26.98     0.044 C 
HETATM   13  C31 BCR K 102     -35.577 126.328   5.907  1.00 30.36     0.020 C 
HETATM   14  C32 BCR K 102     -35.318 127.905   3.971  1.00 47.86     0.020 C 
HETATM   15  C34 BCR K 102     -34.654 130.319   9.227  1.00 25.90     0.048 C 
HETATM   16  C12 BCR K 102     -38.098 132.870   8.364  1.00 29.14     0.007 C 
HETATM   17  C13 BCR K 102     -38.725 133.966   9.149  1.00 25.00    -0.062 C 
HETATM   18  C14 BCR K 102     -39.639 134.755   8.531  1.00 24.50     0.007 C 
HETATM   19  C15 BCR K 102     -40.285 135.917   9.160  1.00 30.28     0.001 C 
HETATM   20  C16 BCR K 102     -41.005 136.783   8.429  1.00 32.56     0.001 C 
HETATM   21  C17 BCR K 102     -41.608 137.968   9.053  1.00 33.23     0.007 C 
HETATM   22  C18 BCR K 102     -42.345 138.877   8.376  1.00 32.04    -0.062 C 
HETATM   23  C19 BCR K 102     -42.890 140.058   9.098  1.00 23.78     0.007 C 
HETATM   24  C20 BCR K 102     -43.426 141.140   8.514  1.00 27.80     0.001 C 
HETATM   25  C21 BCR K 102     -43.917 142.215   9.393  1.00 28.10     0.007 C 
HETATM   26  C22 BCR K 102     -44.671 143.280   9.046  1.00 35.25    -0.062 C 
HETATM   27  C23 BCR K 102     -45.037 144.139  10.037  1.00 39.65     0.007 C 
HETATM   28  C24 BCR K 102     -46.188 144.829  10.003  1.00 30.30     0.009 C 
HETATM   29  C25 BCR K 102     -46.648 145.739  11.091  1.00 31.56    -0.048 C 
HETATM   30  C26 BCR K 102     -47.208 145.217  12.197  1.00 30.88    -0.077 C 
HETATM   31  C27 BCR K 102     -47.702 146.065  13.346  1.00 24.32     0.034 C 
HETATM   32  C28 BCR K 102     -47.051 147.431  13.341  1.00 28.11     0.005 C 
HETATM   33  C29 BCR K 102     -47.237 148.029  11.960  1.00 26.57     0.014 C 
HETATM   34  C30 BCR K 102     -46.487 147.231  10.899  1.00 33.55    -0.020 C 
HETATM   35  C35 BCR K 102     -38.276 134.240  10.560  1.00 24.65     0.048 C 
HETATM   36  C36 BCR K 102     -42.652 138.690   6.921  1.00 32.76     0.048 C 
HETATM   37  C37 BCR K 102     -45.118 143.483   7.627  1.00 22.12     0.048 C 
HETATM   38  C38 BCR K 102     -47.369 143.724  12.352  1.00 27.43     0.044 C 
HETATM   39  C39 BCR K 102     -45.000 147.552  10.926  1.00 35.79     0.020 C 
HETATM   40  C40 BCR K 102     -47.063 147.594   9.541  1.00 38.30     0.020 C 
ENDROOT
TORSDOF 10
BEGIN_RES PHE A  61
REMARK  2 active torsions:
REMARK  status: ('A' for Active; 'I' for Inactive)
REMARK    1  A    between atoms: CA   and  CB  
REMARK    2  A    between atoms: CB   and  CG  
ROOT
ATOM      1  CA  PHE A  61     -36.237 128.293  12.768  1.00 39.40     0.164 C 
ENDROOT
BRANCH   1   2
ATOM      2  CB  PHE A  61     -36.813 128.951  11.509  1.00 39.41     0.058 C 
BRANCH   2   3
ATOM      3  CG  PHE A  61     -36.831 128.059  10.291  1.00 39.01    -0.020 A 
ATOM      4  CD2 PHE A  61     -35.795 127.171  10.044  1.00 40.32    -0.004 A 
ATOM      5  CE2 PHE A  61     -35.811 126.353   8.921  1.00 40.20    -0.000 A 
ATOM      6  CZ  PHE A  61     -36.863 126.410   8.036  1.00 40.34    -0.000 A 
ATOM      7  CE1 PHE A  61     -37.901 127.286   8.268  1.00 41.51    -0.000 A 
ATOM      8  CD1 PHE A  61     -37.882 128.109   9.387  1.00 39.94    -0.004 A 
ENDBRANCH   2   3
ENDBRANCH   1   2
END_RES PHE A  61
BEGIN_RES VAL A 134
REMARK  1 active torsions:
REMARK  status: ('A' for Active; 'I' for Inactive)
REMARK    3  A    between atoms: CA   and  CB  
ROOT
ATOM      9  CA  VAL A 134     -29.766 132.051   9.815  1.00 40.75     0.159 C 
ENDROOT
BRANCH   9  10
ATOM     10  CB  VAL A 134     -30.864 132.765   9.009  1.00 40.76     0.029 C 
ATOM     11  CG1 VAL A 134     -31.220 131.969   7.762  1.00 41.76     0.002 C 
ATOM     12  CG2 VAL A 134     -32.101 133.027   9.855  1.00 40.56     0.002 C 
ENDBRANCH   9  10
END_RES VAL A 134
BEGIN_RES TYR A 338
REMARK  3 active torsions:
REMARK  status: ('A' for Active; 'I' for Inactive)
REMARK    4  A    between atoms: CA   and  CB  
REMARK    5  A    between atoms: CB   and  CG  
REMARK    6  A    between atoms: CZ   and  OH  
ROOT
ATOM     13  CA  TYR A 338     -41.631 124.950   6.058  1.00 38.23     0.164 C 
ENDROOT
BRANCH  13  14
ATOM     14  CB  TYR A 338     -41.621 126.456   6.339  1.00 39.15     0.058 C 
BRANCH  14  15
ATOM     15  CG  TYR A 338     -40.419 127.212   5.822  1.00 39.03    -0.020 A 
ATOM     16  CD2 TYR A 338     -40.213 128.533   6.183  1.00 40.65    -0.002 A 
ATOM     17  CE2 TYR A 338     -39.130 129.261   5.715  1.00 40.91     0.024 A 
ATOM     18  CZ  TYR A 338     -38.221 128.666   4.861  1.00 42.33     0.089 A 
ATOM     19  CE1 TYR A 338     -38.402 127.346   4.489  1.00 40.63     0.024 A 
ATOM     20  CD1 TYR A 338     -39.499 126.638   4.958  1.00 39.27    -0.002 A 
BRANCH  18  21
ATOM     21  OH  TYR A 338     -37.147 129.373   4.396  1.00 43.36    -0.359 OA
ATOM     22  HH  TYR A 338     -36.690 129.093   3.612  1.00  0.00     0.217 HD
ENDBRANCH  18  21
ENDBRANCH  14  15
ENDBRANCH  13  14
END_RES TYR A 338
ENDMDL
