MODEL 1
REMARK VINA RESULT:    -8.891      0.000      0.000
REMARK INTER + INTRA:         -11.767
REMARK INTER:                  -8.891
REMARK INTRA:                  -2.876
REMARK UNBOUND:                -2.876
REMARK  0 active torsions:
REMARK  status: ('A' for Active; 'I' for Inactive)
REMARK       I    between atoms: C6_6  and  C7_7 
REMARK       I    between atoms: C8_8  and  C9_9 
REMARK       I    between atoms: C10_10  and  C11_11 
REMARK       I    between atoms: C12_16  and  C13_17 
REMARK       I    between atoms: C14_18  and  C15_19 
REMARK       I    between atoms: C16_20  and  C17_21 
REMARK       I    between atoms: C18_22  and  C19_23 
REMARK       I    between atoms: C20_24  and  C21_25 
REMARK       I    between atoms: C22_26  and  C23_27 
REMARK       I    between atoms: C24_28  and  C25_29 
ROOT
HETATM    1  C1  BCR B 618     -32.289 130.039   7.529  1.00 29.97    -0.020 C 
HETATM    2  C2  BCR B 618     -31.472 128.926   6.853  1.00 30.11     0.014 C 
HETATM    3  C3  BCR B 618     -32.011 128.461   5.494  1.00 28.88     0.005 C 
HETATM    4  C4  BCR B 618     -33.485 128.096   5.500  1.00 28.77     0.034 C 
HETATM    5  C5  BCR B 618     -34.292 128.870   6.525  1.00 28.24    -0.077 C 
HETATM    6  C6  BCR B 618     -33.758 129.720   7.443  1.00 26.72    -0.048 C 
HETATM    7  C7  BCR B 618     -34.675 130.407   8.380  1.00 26.16     0.009 C 
HETATM    8  C8  BCR B 618     -35.133 131.654   8.185  1.00 23.90     0.007 C 
HETATM    9  C9  BCR B 618     -36.078 132.267   9.170  1.00 22.06    -0.062 C 
HETATM   10  C10 BCR B 618     -36.712 133.411   8.852  1.00 23.67     0.007 C 
HETATM   11  C11 BCR B 618     -37.704 134.116   9.662  1.00 23.73     0.001 C 
HETATM   12  C33 BCR B 618     -35.761 128.581   6.489  1.00 30.53     0.044 C 
HETATM   13  C31 BCR B 618     -32.041 131.429   6.907  1.00 30.85     0.020 C 
HETATM   14  C32 BCR B 618     -31.794 130.069   8.993  1.00 30.08     0.020 C 
HETATM   15  C34 BCR B 618     -36.292 131.638  10.526  1.00 25.71     0.048 C 
HETATM   16  C12 BCR B 618     -38.142 135.318   9.203  1.00 24.44     0.007 C 
HETATM   17  C13 BCR B 618     -39.198 136.098   9.881  1.00 23.39    -0.062 C 
HETATM   18  C14 BCR B 618     -39.660 137.255   9.261  1.00 20.98     0.007 C 
HETATM   19  C15 BCR B 618     -40.803 138.003   9.818  1.00 21.06     0.001 C 
HETATM   20  C16 BCR B 618     -41.325 139.023   9.101  1.00 22.19     0.001 C 
HETATM   21  C17 BCR B 618     -42.480 139.768   9.620  1.00 21.58     0.007 C 
HETATM   22  C18 BCR B 618     -43.159 140.760   8.957  1.00 20.96    -0.062 C 
HETATM   23  C19 BCR B 618     -44.288 141.405   9.650  1.00 19.82     0.007 C 
HETATM   24  C20 BCR B 618     -45.117 142.360   9.122  1.00 20.56     0.001 C 
HETATM   25  C21 BCR B 618     -46.156 142.903  10.026  1.00 20.57     0.007 C 
HETATM   26  C22 BCR B 618     -47.175 143.714   9.623  1.00 19.60    -0.062 C 
HETATM   27  C23 BCR B 618     -48.119 144.189  10.642  1.00 22.92     0.007 C 
HETATM   28  C24 BCR B 618     -49.050 145.133  10.390  1.00 24.17     0.009 C 
HETATM   29  C25 BCR B 618     -50.019 145.647  11.417  1.00 26.94    -0.048 C 
HETATM   30  C26 BCR B 618     -50.689 144.894  12.335  1.00 28.75    -0.077 C 
HETATM   31  C27 BCR B 618     -51.680 145.480  13.361  1.00 30.75     0.034 C 
HETATM   32  C28 BCR B 618     -52.087 146.927  13.066  1.00 33.35     0.005 C 
HETATM   33  C29 BCR B 618     -50.906 147.755  12.567  1.00 31.28     0.014 C 
HETATM   34  C30 BCR B 618     -50.234 147.161  11.316  1.00 29.59    -0.020 C 
HETATM   35  C35 BCR B 618     -39.726 135.537  11.180  1.00 23.27     0.048 C 
HETATM   36  C36 BCR B 618     -42.770 141.231   7.604  1.00 21.00     0.048 C 
HETATM   37  C37 BCR B 618     -47.343 144.084   8.148  1.00 20.72     0.048 C 
HETATM   38  C38 BCR B 618     -50.527 143.403  12.487  1.00 30.08     0.044 C 
HETATM   39  C39 BCR B 618     -48.879 147.864  11.194  1.00 28.53     0.020 C 
HETATM   40  C40 BCR B 618     -51.079 147.419  10.073  1.00 29.57     0.020 C 
ENDROOT
TORSDOF 10
BEGIN_RES PHE A  61
REMARK  2 active torsions:
REMARK  status: ('A' for Active; 'I' for Inactive)
REMARK    1  A    between atoms: CA   and  CB  
REMARK    2  A    between atoms: CB   and  CG  
ROOT
ATOM      1  CA  PHE A  61     -36.237 128.293  12.768  1.00 39.40     0.164 C 
ENDROOT
BRANCH   1   2
ATOM      2  CB  PHE A  61     -36.813 128.951  11.509  1.00 39.41     0.058 C 
BRANCH   2   3
ATOM      3  CG  PHE A  61     -36.784 128.076  10.279  1.00 39.01    -0.020 A 
ATOM      4  CD2 PHE A  61     -37.865 128.029   9.413  1.00 40.32    -0.004 A 
ATOM      5  CE2 PHE A  61     -37.838 127.221   8.283  1.00 40.20    -0.000 A 
ATOM      6  CZ  PHE A  61     -36.729 126.455   8.004  1.00 40.34    -0.000 A 
ATOM      7  CE1 PHE A  61     -35.645 126.493   8.853  1.00 41.51    -0.000 A 
ATOM      8  CD1 PHE A  61     -35.675 127.295   9.986  1.00 39.94    -0.004 A 
ENDBRANCH   2   3
ENDBRANCH   1   2
END_RES PHE A  61
BEGIN_RES VAL A 134
REMARK  1 active torsions:
REMARK  status: ('A' for Active; 'I' for Inactive)
REMARK    3  A    between atoms: CA   and  CB  
ROOT
ATOM      9  CA  VAL A 134     -29.766 132.051   9.815  1.00 40.75     0.159 C 
ENDROOT
BRANCH   9  10
ATOM     10  CB  VAL A 134     -30.864 132.765   9.009  1.00 40.76     0.029 C 
ATOM     11  CG1 VAL A 134     -32.091 133.013   9.874  1.00 41.76     0.002 C 
ATOM     12  CG2 VAL A 134     -30.359 134.065   8.402  1.00 40.56     0.002 C 
ENDBRANCH   9  10
END_RES VAL A 134
BEGIN_RES TYR A 338
REMARK  3 active torsions:
REMARK  status: ('A' for Active; 'I' for Inactive)
REMARK    4  A    between atoms: CA   and  CB  
REMARK    5  A    between atoms: CB   and  CG  
REMARK    6  A    between atoms: CZ   and  OH  
ROOT
ATOM     13  CA  TYR A 338     -41.631 124.950   6.058  1.00 38.23     0.164 C 
ENDROOT
BRANCH  13  14
ATOM     14  CB  TYR A 338     -41.621 126.456   6.339  1.00 39.15     0.058 C 
BRANCH  14  15
ATOM     15  CG  TYR A 338     -40.423 127.213   5.814  1.00 39.03    -0.020 A 
ATOM     16  CD2 TYR A 338     -40.255 128.554   6.115  1.00 40.65    -0.002 A 
ATOM     17  CE2 TYR A 338     -39.177 129.284   5.638  1.00 40.91     0.024 A 
ATOM     18  CZ  TYR A 338     -38.233 128.669   4.837  1.00 42.33     0.089 A 
ATOM     19  CE1 TYR A 338     -38.376 127.328   4.526  1.00 40.63     0.024 A 
ATOM     20  CD1 TYR A 338     -39.469 126.620   5.002  1.00 39.27    -0.002 A 
BRANCH  18  21
ATOM     21  OH  TYR A 338     -37.163 129.377   4.365  1.00 43.36    -0.359 OA
ATOM     22  HH  TYR A 338     -36.669 129.945   4.945  1.00  0.00     0.217 HD
ENDBRANCH  18  21
ENDBRANCH  14  15
ENDBRANCH  13  14
END_RES TYR A 338
ENDMDL
MODEL 2
REMARK VINA RESULT:    -8.429      2.771     16.382
REMARK INTER + INTRA:         -11.305
REMARK INTER:                  -7.940
REMARK INTRA:                  -3.365
REMARK UNBOUND:                -2.876
REMARK  0 active torsions:
REMARK  status: ('A' for Active; 'I' for Inactive)
REMARK       I    between atoms: C6_6  and  C7_7 
REMARK       I    between atoms: C8_8  and  C9_9 
REMARK       I    between atoms: C10_10  and  C11_11 
REMARK       I    between atoms: C12_16  and  C13_17 
REMARK       I    between atoms: C14_18  and  C15_19 
REMARK       I    between atoms: C16_20  and  C17_21 
REMARK       I    between atoms: C18_22  and  C19_23 
REMARK       I    between atoms: C20_24  and  C21_25 
REMARK       I    between atoms: C22_26  and  C23_27 
REMARK       I    between atoms: C24_28  and  C25_29 
ROOT
HETATM    1  C1  BCR B 618     -46.121 149.996  11.953  1.00 29.97    -0.020 C 
HETATM    2  C2  BCR B 618     -46.944 151.273  11.720  1.00 30.11     0.014 C 
HETATM    3  C3  BCR B 618     -47.649 151.350  10.359  1.00 28.88     0.005 C 
HETATM    4  C4  BCR B 618     -46.739 151.093   9.171  1.00 28.77     0.034 C 
HETATM    5  C5  BCR B 618     -45.584 150.162   9.489  1.00 28.24    -0.077 C 
HETATM    6  C6  BCR B 618     -45.295 149.689  10.731  1.00 26.72    -0.048 C 
HETATM    7  C7  BCR B 618     -44.133 148.786  10.885  1.00 26.16     0.009 C 
HETATM    8  C8  BCR B 618     -44.236 147.448  10.912  1.00 23.90     0.007 C 
HETATM    9  C9  BCR B 618     -43.006 146.605  11.048  1.00 22.06    -0.062 C 
HETATM   10  C10 BCR B 618     -43.090 145.277  10.837  1.00 23.67     0.007 C 
HETATM   11  C11 BCR B 618     -41.990 144.316  10.870  1.00 23.73     0.001 C 
HETATM   12  C33 BCR B 618     -44.723 149.832   8.308  1.00 30.53     0.044 C 
HETATM   13  C31 BCR B 618     -46.994 148.769  12.287  1.00 30.85     0.020 C 
HETATM   14  C32 BCR B 618     -45.233 150.307  13.179  1.00 30.08     0.020 C 
HETATM   15  C34 BCR B 618     -41.691 147.222  11.456  1.00 25.71     0.048 C 
HETATM   16  C12 BCR B 618     -42.309 143.001  10.740  1.00 24.44     0.007 C 
HETATM   17  C13 BCR B 618     -41.291 141.932  10.677  1.00 23.39    -0.062 C 
HETATM   18  C14 BCR B 618     -41.717 140.633  10.417  1.00 20.98     0.007 C 
HETATM   19  C15 BCR B 618     -40.741 139.547  10.209  1.00 21.06     0.001 C 
HETATM   20  C16 BCR B 618     -41.188 138.339   9.799  1.00 22.19     0.001 C 
HETATM   21  C17 BCR B 618     -40.235 137.248   9.558  1.00 21.58     0.007 C 
HETATM   22  C18 BCR B 618     -40.545 136.008   9.056  1.00 20.96    -0.062 C 
HETATM   23  C19 BCR B 618     -39.450 135.035   8.899  1.00 19.82     0.007 C 
HETATM   24  C20 BCR B 618     -39.559 133.781   8.355  1.00 20.56     0.001 C 
HETATM   25  C21 BCR B 618     -38.329 132.957   8.348  1.00 20.57     0.007 C 
HETATM   26  C22 BCR B 618     -38.205 131.770   7.688  1.00 19.60    -0.062 C 
HETATM   27  C23 BCR B 618     -36.926 131.058   7.791  1.00 22.92     0.007 C 
HETATM   28  C24 BCR B 618     -36.754 129.800   7.333  1.00 24.17     0.009 C 
HETATM   29  C25 BCR B 618     -35.460 129.042   7.437  1.00 26.94    -0.048 C 
HETATM   30  C26 BCR B 618     -34.214 129.547   7.215  1.00 28.75    -0.077 C 
HETATM   31  C27 BCR B 618     -32.921 128.715   7.331  1.00 30.75     0.034 C 
HETATM   32  C28 BCR B 618     -33.167 127.205   7.411  1.00 33.35     0.005 C 
HETATM   33  C29 BCR B 618     -34.382 126.876   8.274  1.00 31.28     0.014 C 
HETATM   34  C30 BCR B 618     -35.672 127.567   7.794  1.00 29.59    -0.020 C 
HETATM   35  C35 BCR B 618     -39.852 142.356  10.853  1.00 23.27     0.048 C 
HETATM   36  C36 BCR B 618     -41.932 135.605   8.715  1.00 21.00     0.048 C 
HETATM   37  C37 BCR B 618     -39.355 131.224   6.839  1.00 20.72     0.048 C 
HETATM   38  C38 BCR B 618     -33.935 130.986   6.859  1.00 30.08     0.044 C 
HETATM   39  C39 BCR B 618     -36.662 127.457   8.957  1.00 28.53     0.020 C 
HETATM   40  C40 BCR B 618     -36.229 126.874   6.556  1.00 29.57     0.020 C 
ENDROOT
TORSDOF 10
BEGIN_RES PHE A  61
REMARK  2 active torsions:
REMARK  status: ('A' for Active; 'I' for Inactive)
REMARK    1  A    between atoms: CA   and  CB  
REMARK    2  A    between atoms: CB   and  CG  
ROOT
ATOM      1  CA  PHE A  61     -36.237 128.293  12.768  1.00 39.40     0.164 C 
ENDROOT
BRANCH   1   2
ATOM      2  CB  PHE A  61     -36.813 128.951  11.509  1.00 39.41     0.058 C 
BRANCH   2   3
ATOM      3  CG  PHE A  61     -36.121 130.230  11.101  1.00 39.01    -0.020 A 
ATOM      4  CD2 PHE A  61     -36.781 131.447  11.162  1.00 40.32    -0.004 A 
ATOM      5  CE2 PHE A  61     -36.144 132.622  10.783  1.00 40.20    -0.000 A 
ATOM      6  CZ  PHE A  61     -34.840 132.594  10.343  1.00 40.34    -0.000 A 
ATOM      7  CE1 PHE A  61     -34.170 131.393  10.278  1.00 41.51    -0.000 A 
ATOM      8  CD1 PHE A  61     -34.808 130.217  10.651  1.00 39.94    -0.004 A 
ENDBRANCH   2   3
ENDBRANCH   1   2
END_RES PHE A  61
BEGIN_RES VAL A 134
REMARK  1 active torsions:
REMARK  status: ('A' for Active; 'I' for Inactive)
REMARK    3  A    between atoms: CA   and  CB  
ROOT
ATOM      9  CA  VAL A 134     -29.766 132.051   9.815  1.00 40.75     0.159 C 
ENDROOT
BRANCH   9  10
ATOM     10  CB  VAL A 134     -30.864 132.765   9.009  1.00 40.76     0.029 C 
ATOM     11  CG1 VAL A 134     -31.357 131.882   7.872  1.00 41.76     0.002 C 
ATOM     12  CG2 VAL A 134     -32.020 133.198   9.897  1.00 40.56     0.002 C 
ENDBRANCH   9  10
END_RES VAL A 134
BEGIN_RES TYR A 338
REMARK  3 active torsions:
REMARK  status: ('A' for Active; 'I' for Inactive)
REMARK    4  A    between atoms: CA   and  CB  
REMARK    5  A    between atoms: CB   and  CG  
REMARK    6  A    between atoms: CZ   and  OH  
ROOT
ATOM     13  CA  TYR A 338     -41.631 124.950   6.058  1.00 38.23     0.164 C 
ENDROOT
BRANCH  13  14
ATOM     14  CB  TYR A 338     -41.621 126.456   6.339  1.00 39.15     0.058 C 
BRANCH  14  15
ATOM     15  CG  TYR A 338     -40.445 127.221   5.776  1.00 39.03    -0.020 A 
ATOM     16  CD2 TYR A 338     -39.515 126.584   4.972  1.00 40.65    -0.002 A 
ATOM     17  CE2 TYR A 338     -38.416 127.250   4.452  1.00 40.91     0.024 A 
ATOM     18  CZ  TYR A 338     -38.228 128.590   4.736  1.00 42.33     0.089 A 
ATOM     19  CE1 TYR A 338     -39.147 129.249   5.534  1.00 40.63     0.024 A 
ATOM     20  CD1 TYR A 338     -40.232 128.562   6.055  1.00 39.27    -0.002 A 
BRANCH  18  21
ATOM     21  OH  TYR A 338     -37.151 129.258   4.225  1.00 43.36    -0.359 OA
ATOM     22  HH  TYR A 338     -37.265 129.887   3.522  1.00  0.00     0.217 HD
ENDBRANCH  18  21
ENDBRANCH  14  15
ENDBRANCH  13  14
END_RES TYR A 338
ENDMDL
MODEL 3
REMARK VINA RESULT:    -7.539      1.607     16.614
REMARK INTER + INTRA:         -10.415
REMARK INTER:                  -8.514
REMARK INTRA:                  -1.901
REMARK UNBOUND:                -2.876
REMARK  0 active torsions:
REMARK  status: ('A' for Active; 'I' for Inactive)
REMARK       I    between atoms: C6_6  and  C7_7 
REMARK       I    between atoms: C8_8  and  C9_9 
REMARK       I    between atoms: C10_10  and  C11_11 
REMARK       I    between atoms: C12_16  and  C13_17 
REMARK       I    between atoms: C14_18  and  C15_19 
REMARK       I    between atoms: C16_20  and  C17_21 
REMARK       I    between atoms: C18_22  and  C19_23 
REMARK       I    between atoms: C20_24  and  C21_25 
REMARK       I    between atoms: C22_26  and  C23_27 
REMARK       I    between atoms: C24_28  and  C25_29 
ROOT
HETATM    1  C1  BCR B 618     -51.132 147.094  10.164  1.00 29.97    -0.020 C 
HETATM    2  C2  BCR B 618     -51.783 148.356  10.751  1.00 30.11     0.014 C 
HETATM    3  C3  BCR B 618     -51.029 148.985  11.931  1.00 28.88     0.005 C 
HETATM    4  C4  BCR B 618     -50.689 148.009  13.042  1.00 28.77     0.034 C 
HETATM    5  C5  BCR B 618     -50.488 146.587  12.554  1.00 28.24    -0.077 C 
HETATM    6  C6  BCR B 618     -50.705 146.174  11.277  1.00 26.72    -0.048 C 
HETATM    7  C7  BCR B 618     -50.463 144.751  10.949  1.00 26.16     0.009 C 
HETATM    8  C8  BCR B 618     -49.323 144.302  10.402  1.00 23.90     0.007 C 
HETATM    9  C9  BCR B 618     -49.150 142.842  10.124  1.00 22.06    -0.062 C 
HETATM   10  C10 BCR B 618     -47.930 142.371   9.801  1.00 23.67     0.007 C 
HETATM   11  C11 BCR B 618     -47.567 140.977   9.554  1.00 23.73     0.001 C 
HETATM   12  C33 BCR B 618     -50.071 145.628  13.626  1.00 30.53     0.044 C 
HETATM   13  C31 BCR B 618     -49.911 147.404   9.274  1.00 30.85     0.020 C 
HETATM   14  C32 BCR B 618     -52.225 146.452   9.279  1.00 30.08     0.020 C 
HETATM   15  C34 BCR B 618     -50.333 141.905  10.162  1.00 25.71     0.048 C 
HETATM   16  C12 BCR B 618     -46.299 140.730   9.131  1.00 24.44     0.007 C 
HETATM   17  C13 BCR B 618     -45.777 139.364   8.920  1.00 23.39    -0.062 C 
HETATM   18  C14 BCR B 618     -44.430 139.216   8.607  1.00 20.98     0.007 C 
HETATM   19  C15 BCR B 618     -43.819 137.876   8.516  1.00 21.06     0.001 C 
HETATM   20  C16 BCR B 618     -42.479 137.780   8.373  1.00 22.19     0.001 C 
HETATM   21  C17 BCR B 618     -41.842 136.457   8.307  1.00 21.58     0.007 C 
HETATM   22  C18 BCR B 618     -40.491 136.220   8.255  1.00 20.96    -0.062 C 
HETATM   23  C19 BCR B 618     -40.040 134.819   8.176  1.00 19.82     0.007 C 
HETATM   24  C20 BCR B 618     -38.738 134.391   8.183  1.00 20.56     0.001 C 
HETATM   25  C21 BCR B 618     -38.524 132.932   8.042  1.00 20.57     0.007 C 
HETATM   26  C22 BCR B 618     -37.320 132.315   8.212  1.00 19.60    -0.062 C 
HETATM   27  C23 BCR B 618     -37.262 130.861   8.019  1.00 22.92     0.007 C 
HETATM   28  C24 BCR B 618     -36.099 130.177   7.985  1.00 24.17     0.009 C 
HETATM   29  C25 BCR B 618     -36.009 128.691   7.776  1.00 26.94    -0.048 C 
HETATM   30  C26 BCR B 618     -36.819 127.751   8.339  1.00 28.75    -0.077 C 
HETATM   31  C27 BCR B 618     -36.672 126.236   8.091  1.00 30.75     0.034 C 
HETATM   32  C28 BCR B 618     -35.354 125.850   7.411  1.00 33.35     0.005 C 
HETATM   33  C29 BCR B 618     -34.959 126.855   6.332  1.00 31.28     0.014 C 
HETATM   34  C30 BCR B 618     -34.845 128.297   6.860  1.00 29.59    -0.020 C 
HETATM   35  C35 BCR B 618     -46.754 138.228   9.114  1.00 23.27     0.048 C 
HETATM   36  C36 BCR B 618     -39.485 137.311   8.226  1.00 21.00     0.048 C 
HETATM   37  C37 BCR B 618     -36.083 133.114   8.627  1.00 20.72     0.048 C 
HETATM   38  C38 BCR B 618     -37.979 128.068   9.249  1.00 30.08     0.044 C 
HETATM   39  C39 BCR B 618     -34.839 129.197   5.621  1.00 28.53     0.020 C 
HETATM   40  C40 BCR B 618     -33.557 128.481   7.655  1.00 29.57     0.020 C 
ENDROOT
TORSDOF 10
BEGIN_RES PHE A  61
REMARK  2 active torsions:
REMARK  status: ('A' for Active; 'I' for Inactive)
REMARK    1  A    between atoms: CA   and  CB  
REMARK    2  A    between atoms: CB   and  CG  
ROOT
ATOM      1  CA  PHE A  61     -36.237 128.293  12.768  1.00 39.40     0.164 C 
ENDROOT
BRANCH   1   2
ATOM      2  CB  PHE A  61     -36.813 128.951  11.509  1.00 39.41     0.058 C 
BRANCH   2   3
ATOM      3  CG  PHE A  61     -36.585 130.441  11.424  1.00 39.01    -0.020 A 
ATOM      4  CD2 PHE A  61     -37.620 131.334  11.656  1.00 40.32    -0.004 A 
ATOM      5  CE2 PHE A  61     -37.409 132.705  11.574  1.00 40.20    -0.000 A 
ATOM      6  CZ  PHE A  61     -36.163 133.198  11.263  1.00 40.34    -0.000 A 
ATOM      7  CE1 PHE A  61     -35.123 132.324  11.032  1.00 41.51    -0.000 A 
ATOM      8  CD1 PHE A  61     -35.335 130.954  11.107  1.00 39.94    -0.004 A 
ENDBRANCH   2   3
ENDBRANCH   1   2
END_RES PHE A  61
BEGIN_RES VAL A 134
REMARK  1 active torsions:
REMARK  status: ('A' for Active; 'I' for Inactive)
REMARK    3  A    between atoms: CA   and  CB  
ROOT
ATOM      9  CA  VAL A 134     -29.766 132.051   9.815  1.00 40.75     0.159 C 
ENDROOT
BRANCH   9  10
ATOM     10  CB  VAL A 134     -30.864 132.765   9.009  1.00 40.76     0.029 C 
ATOM     11  CG1 VAL A 134     -31.223 131.967   7.764  1.00 41.76     0.002 C 
ATOM     12  CG2 VAL A 134     -32.100 133.030   9.856  1.00 40.56     0.002 C 
ENDBRANCH   9  10
END_RES VAL A 134
BEGIN_RES TYR A 338
REMARK  3 active torsions:
REMARK  status: ('A' for Active; 'I' for Inactive)
REMARK    4  A    between atoms: CA   and  CB  
REMARK    5  A    between atoms: CB   and  CG  
REMARK    6  A    between atoms: CZ   and  OH  
ROOT
ATOM     13  CA  TYR A 338     -41.631 124.950   6.058  1.00 38.23     0.164 C 
ENDROOT
BRANCH  13  14
ATOM     14  CB  TYR A 338     -41.621 126.456   6.339  1.00 39.15     0.058 C 
BRANCH  14  15
ATOM     15  CG  TYR A 338     -40.398 127.205   5.861  1.00 39.03    -0.020 A 
ATOM     16  CD2 TYR A 338     -40.223 128.540   6.182  1.00 40.65    -0.002 A 
ATOM     17  CE2 TYR A 338     -39.122 129.261   5.748  1.00 40.91     0.024 A 
ATOM     18  CZ  TYR A 338     -38.162 128.644   4.968  1.00 42.33     0.089 A 
ATOM     19  CE1 TYR A 338     -38.312 127.309   4.638  1.00 40.63     0.024 A 
ATOM     20  CD1 TYR A 338     -39.427 126.609   5.071  1.00 39.27    -0.002 A 
BRANCH  18  21
ATOM     21  OH  TYR A 338     -37.070 129.345   4.538  1.00 43.36    -0.359 OA
ATOM     22  HH  TYR A 338     -36.516 129.802   5.160  1.00  0.00     0.217 HD
ENDBRANCH  18  21
ENDBRANCH  14  15
ENDBRANCH  13  14
END_RES TYR A 338
ENDMDL
MODEL 4
REMARK VINA RESULT:    -7.294      1.527     16.507
REMARK INTER + INTRA:         -10.170
REMARK INTER:                  -7.670
REMARK INTRA:                  -2.500
REMARK UNBOUND:                -2.876
REMARK  0 active torsions:
REMARK  status: ('A' for Active; 'I' for Inactive)
REMARK       I    between atoms: C6_6  and  C7_7 
REMARK       I    between atoms: C8_8  and  C9_9 
REMARK       I    between atoms: C10_10  and  C11_11 
REMARK       I    between atoms: C12_16  and  C13_17 
REMARK       I    between atoms: C14_18  and  C15_19 
REMARK       I    between atoms: C16_20  and  C17_21 
REMARK       I    between atoms: C18_22  and  C19_23 
REMARK       I    between atoms: C20_24  and  C21_25 
REMARK       I    between atoms: C22_26  and  C23_27 
REMARK       I    between atoms: C24_28  and  C25_29 
ROOT
HETATM    1  C1  BCR B 618     -50.068 148.888   9.128  1.00 29.97    -0.020 C 
HETATM    2  C2  BCR B 618     -51.306 149.721   9.493  1.00 30.11     0.014 C 
HETATM    3  C3  BCR B 618     -52.200 149.112  10.581  1.00 28.88     0.005 C 
HETATM    4  C4  BCR B 618     -52.600 147.671  10.323  1.00 28.77     0.034 C 
HETATM    5  C5  BCR B 618     -51.571 146.895   9.522  1.00 28.24    -0.077 C 
HETATM    6  C6  BCR B 618     -50.453 147.440   8.972  1.00 26.72    -0.048 C 
HETATM    7  C7  BCR B 618     -49.539 146.554   8.217  1.00 26.16     0.009 C 
HETATM    8  C8  BCR B 618     -48.438 146.002   8.750  1.00 23.90     0.007 C 
HETATM    9  C9  BCR B 618     -47.580 145.097   7.923  1.00 22.06    -0.062 C 
HETATM   10  C10 BCR B 618     -46.621 144.366   8.524  1.00 23.67     0.007 C 
HETATM   11  C11 BCR B 618     -45.734 143.395   7.887  1.00 23.73     0.001 C 
HETATM   12  C33 BCR B 618     -51.912 145.449   9.329  1.00 30.53     0.044 C 
HETATM   13  C31 BCR B 618     -48.940 148.995  10.175  1.00 30.85     0.020 C 
HETATM   14  C32 BCR B 618     -49.554 149.489   7.801  1.00 30.08     0.020 C 
HETATM   15  C34 BCR B 618     -47.751 145.029   6.425  1.00 25.71     0.048 C 
HETATM   16  C12 BCR B 618     -44.758 142.845   8.657  1.00 24.44     0.007 C 
HETATM   17  C13 BCR B 618     -43.843 141.795   8.163  1.00 23.39    -0.062 C 
HETATM   18  C14 BCR B 618     -42.963 141.212   9.068  1.00 20.98     0.007 C 
HETATM   19  C15 BCR B 618     -42.120 140.068   8.671  1.00 21.06     0.001 C 
HETATM   20  C16 BCR B 618     -41.402 139.427   9.619  1.00 22.19     0.001 C 
HETATM   21  C17 BCR B 618     -40.576 138.268   9.255  1.00 21.58     0.007 C 
HETATM   22  C18 BCR B 618     -39.873 137.477  10.130  1.00 20.96    -0.062 C 
HETATM   23  C19 BCR B 618     -39.085 136.364   9.572  1.00 19.82     0.007 C 
HETATM   24  C20 BCR B 618     -38.380 135.436  10.293  1.00 20.56     0.001 C 
HETATM   25  C21 BCR B 618     -37.617 134.436   9.512  1.00 20.57     0.007 C 
HETATM   26  C22 BCR B 618     -37.016 133.338  10.053  1.00 19.60    -0.062 C 
HETATM   27  C23 BCR B 618     -36.278 132.445   9.151  1.00 22.92     0.007 C 
HETATM   28  C24 BCR B 618     -35.499 131.438   9.599  1.00 24.17     0.009 C 
HETATM   29  C25 BCR B 618     -34.723 130.518   8.699  1.00 26.94    -0.048 C 
HETATM   30  C26 BCR B 618     -35.169 129.971   7.533  1.00 28.75    -0.077 C 
HETATM   31  C27 BCR B 618     -34.325 129.026   6.655  1.00 30.75     0.034 C 
HETATM   32  C28 BCR B 618     -33.064 128.503   7.350  1.00 33.35     0.005 C 
HETATM   33  C29 BCR B 618     -32.393 129.585   8.192  1.00 31.28     0.014 C 
HETATM   34  C30 BCR B 618     -33.329 130.197   9.250  1.00 29.59    -0.020 C 
HETATM   35  C35 BCR B 618     -43.981 141.406   6.710  1.00 23.27     0.048 C 
HETATM   36  C36 BCR B 618     -39.843 137.730  11.592  1.00 21.00     0.048 C 
HETATM   37  C37 BCR B 618     -37.142 133.034  11.547  1.00 20.72     0.048 C 
HETATM   38  C38 BCR B 618     -36.527 130.242   6.936  1.00 30.08     0.044 C 
HETATM   39  C39 BCR B 618     -32.650 131.490   9.712  1.00 28.53     0.020 C 
HETATM   40  C40 BCR B 618     -33.513 129.244  10.426  1.00 29.57     0.020 C 
ENDROOT
TORSDOF 10
BEGIN_RES PHE A  61
REMARK  2 active torsions:
REMARK  status: ('A' for Active; 'I' for Inactive)
REMARK    1  A    between atoms: CA   and  CB  
REMARK    2  A    between atoms: CB   and  CG  
ROOT
ATOM      1  CA  PHE A  61     -36.237 128.293  12.768  1.00 39.40     0.164 C 
ENDROOT
BRANCH   1   2
ATOM      2  CB  PHE A  61     -36.813 128.951  11.509  1.00 39.41     0.058 C 
BRANCH   2   3
ATOM      3  CG  PHE A  61     -36.765 128.084  10.274  1.00 39.01    -0.020 A 
ATOM      4  CD2 PHE A  61     -37.823 128.061   9.379  1.00 40.32    -0.004 A 
ATOM      5  CE2 PHE A  61     -37.779 127.260   8.245  1.00 40.20    -0.000 A 
ATOM      6  CZ  PHE A  61     -36.676 126.476   7.991  1.00 40.34    -0.000 A 
ATOM      7  CE1 PHE A  61     -35.615 126.490   8.869  1.00 41.51    -0.000 A 
ATOM      8  CD1 PHE A  61     -35.662 127.285  10.007  1.00 39.94    -0.004 A 
ENDBRANCH   2   3
ENDBRANCH   1   2
END_RES PHE A  61
BEGIN_RES VAL A 134
REMARK  1 active torsions:
REMARK  status: ('A' for Active; 'I' for Inactive)
REMARK    3  A    between atoms: CA   and  CB  
ROOT
ATOM      9  CA  VAL A 134     -29.766 132.051   9.815  1.00 40.75     0.159 C 
ENDROOT
BRANCH   9  10
ATOM     10  CB  VAL A 134     -30.864 132.765   9.009  1.00 40.76     0.029 C 
ATOM     11  CG1 VAL A 134     -30.624 134.267   8.986  1.00 41.76     0.002 C 
ATOM     12  CG2 VAL A 134     -30.971 132.214   7.596  1.00 40.56     0.002 C 
ENDBRANCH   9  10
END_RES VAL A 134
BEGIN_RES TYR A 338
REMARK  3 active torsions:
REMARK  status: ('A' for Active; 'I' for Inactive)
REMARK    4  A    between atoms: CA   and  CB  
REMARK    5  A    between atoms: CB   and  CG  
REMARK    6  A    between atoms: CZ   and  OH  
ROOT
ATOM     13  CA  TYR A 338     -41.631 124.950   6.058  1.00 38.23     0.164 C 
ENDROOT
BRANCH  13  14
ATOM     14  CB  TYR A 338     -41.621 126.456   6.339  1.00 39.15     0.058 C 
BRANCH  14  15
ATOM     15  CG  TYR A 338     -40.422 127.213   5.815  1.00 39.03    -0.020 A 
ATOM     16  CD2 TYR A 338     -39.450 126.562   5.075  1.00 40.65    -0.002 A 
ATOM     17  CE2 TYR A 338     -38.331 127.221   4.593  1.00 40.91     0.024 A 
ATOM     18  CZ  TYR A 338     -38.164 128.569   4.850  1.00 42.33     0.089 A 
ATOM     19  CE1 TYR A 338     -39.124 129.243   5.584  1.00 40.63     0.024 A 
ATOM     20  CD1 TYR A 338     -40.230 128.562   6.069  1.00 39.27    -0.002 A 
BRANCH  18  21
ATOM     21  OH  TYR A 338     -37.066 129.230   4.376  1.00 43.36    -0.359 OA
ATOM     22  HH  TYR A 338     -36.707 129.016   3.522  1.00  0.00     0.217 HD
ENDBRANCH  18  21
ENDBRANCH  14  15
ENDBRANCH  13  14
END_RES TYR A 338
ENDMDL
MODEL 5
REMARK VINA RESULT:    -6.099      1.756     16.624
REMARK INTER + INTRA:          -8.975
REMARK INTER:                  -6.024
REMARK INTRA:                  -2.951
REMARK UNBOUND:                -2.876
REMARK  0 active torsions:
REMARK  status: ('A' for Active; 'I' for Inactive)
REMARK       I    between atoms: C6_6  and  C7_7 
REMARK       I    between atoms: C8_8  and  C9_9 
REMARK       I    between atoms: C10_10  and  C11_11 
REMARK       I    between atoms: C12_16  and  C13_17 
REMARK       I    between atoms: C14_18  and  C15_19 
REMARK       I    between atoms: C16_20  and  C17_21 
REMARK       I    between atoms: C18_22  and  C19_23 
REMARK       I    between atoms: C20_24  and  C21_25 
REMARK       I    between atoms: C22_26  and  C23_27 
REMARK       I    between atoms: C24_28  and  C25_29 
ROOT
HETATM    1  C1  BCR B 618     -48.788 147.090   9.841  1.00 29.97    -0.020 C 
HETATM    2  C2  BCR B 618     -50.055 147.905  10.144  1.00 30.11     0.014 C 
HETATM    3  C3  BCR B 618     -51.279 147.072  10.550  1.00 28.88     0.005 C 
HETATM    4  C4  BCR B 618     -51.604 145.938   9.594  1.00 28.77     0.034 C 
HETATM    5  C5  BCR B 618     -50.385 145.383   8.881  1.00 28.24    -0.077 C 
HETATM    6  C6  BCR B 618     -49.134 145.908   8.974  1.00 26.72    -0.048 C 
HETATM    7  C7  BCR B 618     -48.041 145.255   8.220  1.00 26.16     0.009 C 
HETATM    8  C8  BCR B 618     -47.198 144.363   8.763  1.00 23.90     0.007 C 
HETATM    9  C9  BCR B 618     -46.134 143.729   7.923  1.00 22.06    -0.062 C 
HETATM   10  C10 BCR B 618     -45.453 142.673   8.406  1.00 23.67     0.007 C 
HETATM   11  C11 BCR B 618     -44.428 141.900   7.708  1.00 23.73     0.001 C 
HETATM   12  C33 BCR B 618     -50.677 144.210   7.997  1.00 30.53     0.044 C 
HETATM   13  C31 BCR B 618     -48.077 146.587  11.114  1.00 30.85     0.020 C 
HETATM   14  C32 BCR B 618     -47.842 148.074   9.115  1.00 30.08     0.020 C 
HETATM   15  C34 BCR B 618     -45.792 144.289   6.563  1.00 25.71     0.048 C 
HETATM   16  C12 BCR B 618     -43.783 140.937   8.419  1.00 24.44     0.007 C 
HETATM   17  C13 BCR B 618     -42.782 140.032   7.817  1.00 23.39    -0.062 C 
HETATM   18  C14 BCR B 618     -42.273 139.001   8.601  1.00 20.98     0.007 C 
HETATM   19  C15 BCR B 618     -41.375 137.986   8.020  1.00 21.06     0.001 C 
HETATM   20  C16 BCR B 618     -41.035 136.912   8.768  1.00 22.19     0.001 C 
HETATM   21  C17 BCR B 618     -40.163 135.873   8.205  1.00 21.58     0.007 C 
HETATM   22  C18 BCR B 618     -39.817 134.695   8.821  1.00 20.96    -0.062 C 
HETATM   23  C19 BCR B 618     -38.915 133.780   8.101  1.00 19.82     0.007 C 
HETATM   24  C20 BCR B 618     -38.518 132.540   8.528  1.00 20.56     0.001 C 
HETATM   25  C21 BCR B 618     -37.562 131.818   7.657  1.00 20.57     0.007 C 
HETATM   26  C22 BCR B 618     -37.206 130.513   7.827  1.00 19.60    -0.062 C 
HETATM   27  C23 BCR B 618     -36.229 129.941   6.892  1.00 22.92     0.007 C 
HETATM   28  C24 BCR B 618     -35.673 128.724   7.073  1.00 24.17     0.009 C 
HETATM   29  C25 BCR B 618     -34.662 128.120   6.140  1.00 26.94    -0.048 C 
HETATM   30  C26 BCR B 618     -34.702 128.161   4.778  1.00 28.75    -0.077 C 
HETATM   31  C27 BCR B 618     -33.635 127.514   3.872  1.00 30.75     0.034 C 
HETATM   32  C28 BCR B 618     -32.696 126.558   4.615  1.00 33.35     0.005 C 
HETATM   33  C29 BCR B 618     -32.322 127.092   5.995  1.00 31.28     0.014 C 
HETATM   34  C30 BCR B 618     -33.544 127.382   6.884  1.00 29.59    -0.020 C 
HETATM   35  C35 BCR B 618     -42.431 140.278   6.369  1.00 23.27     0.048 C 
HETATM   36  C36 BCR B 618     -40.276 134.341  10.188  1.00 21.00     0.048 C 
HETATM   37  C37 BCR B 618     -37.836 129.668   8.936  1.00 20.72     0.048 C 
HETATM   38  C38 BCR B 618     -35.771 128.867   3.984  1.00 30.08     0.044 C 
HETATM   39  C39 BCR B 618     -33.028 128.254   8.033  1.00 28.53     0.020 C 
HETATM   40  C40 BCR B 618     -34.138 126.086   7.428  1.00 29.57     0.020 C 
ENDROOT
TORSDOF 10
BEGIN_RES PHE A  61
REMARK  2 active torsions:
REMARK  status: ('A' for Active; 'I' for Inactive)
REMARK    1  A    between atoms: CA   and  CB  
REMARK    2  A    between atoms: CB   and  CG  
ROOT
ATOM      1  CA  PHE A  61     -36.237 128.293  12.768  1.00 39.40     0.164 C 
ENDROOT
BRANCH   1   2
ATOM      2  CB  PHE A  61     -36.813 128.951  11.509  1.00 39.41     0.058 C 
BRANCH   2   3
ATOM      3  CG  PHE A  61     -36.019 130.131  11.003  1.00 39.01    -0.020 A 
ATOM      4  CD2 PHE A  61     -36.483 131.426  11.170  1.00 40.32    -0.004 A 
ATOM      5  CE2 PHE A  61     -35.753 132.511  10.701  1.00 40.20    -0.000 A 
ATOM      6  CZ  PHE A  61     -34.549 132.314  10.063  1.00 40.34    -0.000 A 
ATOM      7  CE1 PHE A  61     -34.073 131.033   9.891  1.00 41.51    -0.000 A 
ATOM      8  CD1 PHE A  61     -34.806 129.948  10.354  1.00 39.94    -0.004 A 
ENDBRANCH   2   3
ENDBRANCH   1   2
END_RES PHE A  61
BEGIN_RES VAL A 134
REMARK  1 active torsions:
REMARK  status: ('A' for Active; 'I' for Inactive)
REMARK    3  A    between atoms: CA   and  CB  
ROOT
ATOM      9  CA  VAL A 134     -29.766 132.051   9.815  1.00 40.75     0.159 C 
ENDROOT
BRANCH   9  10
ATOM     10  CB  VAL A 134     -30.864 132.765   9.009  1.00 40.76     0.029 C 
ATOM     11  CG1 VAL A 134     -31.477 131.823   7.983  1.00 41.76     0.002 C 
ATOM     12  CG2 VAL A 134     -31.936 133.349   9.916  1.00 40.56     0.002 C 
ENDBRANCH   9  10
END_RES VAL A 134
BEGIN_RES TYR A 338
REMARK  3 active torsions:
REMARK  status: ('A' for Active; 'I' for Inactive)
REMARK    4  A    between atoms: CA   and  CB  
REMARK    5  A    between atoms: CB   and  CG  
REMARK    6  A    between atoms: CZ   and  OH  
ROOT
ATOM     13  CA  TYR A 338     -41.631 124.950   6.058  1.00 38.23     0.164 C 
ENDROOT
BRANCH  13  14
ATOM     14  CB  TYR A 338     -41.621 126.456   6.339  1.00 39.15     0.058 C 
BRANCH  14  15
ATOM     15  CG  TYR A 338     -40.466 127.227   5.743  1.00 39.03    -0.020 A 
ATOM     16  CD2 TYR A 338     -40.319 128.579   6.000  1.00 40.65    -0.002 A 
ATOM     17  CE2 TYR A 338     -39.281 129.321   5.458  1.00 40.91     0.024 A 
ATOM     18  CZ  TYR A 338     -38.357 128.707   4.633  1.00 42.33     0.089 A 
ATOM     19  CE1 TYR A 338     -38.480 127.355   4.365  1.00 40.63     0.024 A 
ATOM     20  CD1 TYR A 338     -39.533 126.634   4.906  1.00 39.27    -0.002 A 
BRANCH  18  21
ATOM     21  OH  TYR A 338     -37.327 129.427   4.096  1.00 43.36    -0.359 OA
ATOM     22  HH  TYR A 338     -36.935 129.164   3.271  1.00  0.00     0.217 HD
ENDBRANCH  18  21
ENDBRANCH  14  15
ENDBRANCH  13  14
END_RES TYR A 338
ENDMDL
