MODEL 1
REMARK VINA RESULT:    -7.253      0.000      0.000
REMARK INTER + INTRA:         -11.123
REMARK INTER:                  -7.253
REMARK INTRA:                  -3.870
REMARK UNBOUND:                -3.870
REMARK  0 active torsions:
REMARK  status: ('A' for Active; 'I' for Inactive)
REMARK       I    between atoms: C6_6  and  C7_7 
REMARK       I    between atoms: C8_8  and  C9_9 
REMARK       I    between atoms: C10_10  and  C11_11 
REMARK       I    between atoms: C12_16  and  C13_17 
REMARK       I    between atoms: C14_18  and  C15_19 
REMARK       I    between atoms: C16_20  and  C17_21 
REMARK       I    between atoms: C18_22  and  C19_23 
REMARK       I    between atoms: C20_24  and  C21_25 
REMARK       I    between atoms: C22_26  and  C23_27 
REMARK       I    between atoms: C24_28  and  C25_29 
ROOT
HETATM    1  C1  BCR K 103     -34.431 127.158   5.758  1.00 56.77    -0.020 C 
HETATM    2  C2  BCR K 103     -33.795 126.330   4.662  1.00 45.87     0.014 C 
HETATM    3  C3  BCR K 103     -32.686 127.090   4.000  1.00 50.21     0.005 C 
HETATM    4  C4  BCR K 103     -31.593 127.351   4.997  1.00 55.76     0.034 C 
HETATM    5  C5  BCR K 103     -32.158 128.056   6.164  1.00 58.42    -0.077 C 
HETATM    6  C6  BCR K 103     -33.457 128.005   6.515  1.00 56.84    -0.048 C 
HETATM    7  C7  BCR K 103     -33.996 128.691   7.692  1.00 58.02     0.009 C 
HETATM    8  C8  BCR K 103     -34.111 130.016   7.756  1.00 55.60     0.007 C 
HETATM    9  C9  BCR K 103     -34.826 130.697   8.821  1.00 59.41    -0.062 C 
HETATM   10  C10 BCR K 103     -35.334 131.923   8.614  1.00 53.38     0.007 C 
HETATM   11  C11 BCR K 103     -36.298 132.550   9.482  1.00 50.51     0.001 C 
HETATM   12  C33 BCR K 103     -31.141 128.836   6.892  1.00 50.72     0.044 C 
HETATM   13  C31 BCR K 103     -35.142 126.194   6.696  1.00 56.63     0.020 C 
HETATM   14  C32 BCR K 103     -35.501 128.001   5.106  1.00 56.21     0.020 C 
HETATM   15  C34 BCR K 103     -34.839 130.063  10.152  1.00 55.47     0.048 C 
HETATM   16  C12 BCR K 103     -36.856 133.692   9.098  1.00 38.57     0.007 C 
HETATM   17  C13 BCR K 103     -37.846 134.406   9.856  1.00 36.45    -0.062 C 
HETATM   18  C14 BCR K 103     -38.318 135.532   9.305  1.00 45.53     0.007 C 
HETATM   19  C15 BCR K 103     -39.356 136.360   9.859  1.00 39.78     0.001 C 
HETATM   20  C16 BCR K 103     -39.793 137.398   9.134  1.00 43.24     0.001 C 
HETATM   21  C17 BCR K 103     -40.921 138.144   9.643  1.00 54.91     0.007 C 
HETATM   22  C18 BCR K 103     -41.512 139.218   9.092  1.00 49.76    -0.062 C 
HETATM   23  C19 BCR K 103     -42.423 139.999   9.933  1.00 46.29     0.007 C 
HETATM   24  C20 BCR K 103     -43.166 141.022   9.497  1.00 45.35     0.001 C 
HETATM   25  C21 BCR K 103     -44.285 141.506  10.288  1.00 43.82     0.007 C 
HETATM   26  C22 BCR K 103     -45.322 142.230   9.817  1.00 45.32    -0.062 C 
HETATM   27  C23 BCR K 103     -46.432 142.581  10.709  1.00 50.38     0.007 C 
HETATM   28  C24 BCR K 103     -47.433 143.415  10.403  1.00 43.89     0.009 C 
HETATM   29  C25 BCR K 103     -48.495 143.791  11.337  1.00 45.21    -0.048 C 
HETATM   30  C26 BCR K 103     -48.298 144.689  12.307  1.00 43.50    -0.077 C 
HETATM   31  C27 BCR K 103     -49.292 145.128  13.299  1.00 46.50     0.034 C 
HETATM   32  C28 BCR K 103     -50.697 144.874  12.824  1.00 48.43     0.005 C 
HETATM   33  C29 BCR K 103     -50.803 143.481  12.288  1.00 49.94     0.014 C 
HETATM   34  C30 BCR K 103     -49.843 143.159  11.161  1.00 40.03    -0.020 C 
HETATM   35  C35 BCR K 103     -37.933 134.166  11.312  1.00 51.19     0.048 C 
HETATM   36  C36 BCR K 103     -41.200 139.638   7.701  1.00 40.30     0.048 C 
HETATM   37  C37 BCR K 103     -45.499 142.391   8.358  1.00 47.05     0.048 C 
HETATM   38  C38 BCR K 103     -47.002 145.340  12.562  1.00 45.74     0.044 C 
HETATM   39  C39 BCR K 103     -50.403 143.624   9.848  1.00 41.11     0.020 C 
HETATM   40  C40 BCR K 103     -49.787 141.635  11.109  1.00 43.62     0.020 C 
ENDROOT
TORSDOF 10
BEGIN_RES PHE A  61
REMARK  2 active torsions:
REMARK  status: ('A' for Active; 'I' for Inactive)
REMARK    1  A    between atoms: CA   and  CB  
REMARK    2  A    between atoms: CB   and  CG  
ROOT
ATOM      1  CA  PHE A  61     -36.237 128.293  12.768  1.00 39.40     0.164 C 
ENDROOT
BRANCH   1   2
ATOM      2  CB  PHE A  61     -36.813 128.951  11.509  1.00 39.41     0.058 C 
BRANCH   2   3
ATOM      3  CG  PHE A  61     -36.966 128.018  10.332  1.00 39.01    -0.020 A 
ATOM      4  CD2 PHE A  61     -36.156 126.901  10.198  1.00 40.32    -0.004 A 
ATOM      5  CE2 PHE A  61     -36.296 126.046   9.113  1.00 40.20    -0.000 A 
ATOM      6  CZ  PHE A  61     -37.249 126.294   8.152  1.00 40.34    -0.000 A 
ATOM      7  CE1 PHE A  61     -38.063 127.398   8.271  1.00 41.51    -0.000 A 
ATOM      8  CD1 PHE A  61     -37.919 128.258   9.352  1.00 39.94    -0.004 A 
ENDBRANCH   2   3
ENDBRANCH   1   2
END_RES PHE A  61
BEGIN_RES VAL A 134
REMARK  1 active torsions:
REMARK  status: ('A' for Active; 'I' for Inactive)
REMARK    3  A    between atoms: CA   and  CB  
ROOT
ATOM      9  CA  VAL A 134     -29.766 132.051   9.815  1.00 40.75     0.159 C 
ENDROOT
BRANCH   9  10
ATOM     10  CB  VAL A 134     -30.864 132.765   9.009  1.00 40.76     0.029 C 
ATOM     11  CG1 VAL A 134     -31.169 132.007   7.725  1.00 41.76     0.002 C 
ATOM     12  CG2 VAL A 134     -32.127 132.962   9.833  1.00 40.56     0.002 C 
ENDBRANCH   9  10
END_RES VAL A 134
BEGIN_RES TYR A 338
REMARK  3 active torsions:
REMARK  status: ('A' for Active; 'I' for Inactive)
REMARK    4  A    between atoms: CA   and  CB  
REMARK    5  A    between atoms: CB   and  CG  
REMARK    6  A    between atoms: CZ   and  OH  
ROOT
ATOM     13  CA  TYR A 338     -41.631 124.950   6.058  1.00 38.23     0.164 C 
ENDROOT
BRANCH  13  14
ATOM     14  CB  TYR A 338     -41.621 126.456   6.339  1.00 39.15     0.058 C 
BRANCH  14  15
ATOM     15  CG  TYR A 338     -40.428 127.215   5.806  1.00 39.03    -0.020 A 
ATOM     16  CD2 TYR A 338     -40.257 128.555   6.109  1.00 40.65    -0.002 A 
ATOM     17  CE2 TYR A 338     -39.183 129.286   5.625  1.00 40.91     0.024 A 
ATOM     18  CZ  TYR A 338     -38.247 128.674   4.813  1.00 42.33     0.089 A 
ATOM     19  CE1 TYR A 338     -38.393 127.334   4.499  1.00 40.63     0.024 A 
ATOM     20  CD1 TYR A 338     -39.482 126.624   4.983  1.00 39.27    -0.002 A 
BRANCH  18  21
ATOM     21  OH  TYR A 338     -37.182 129.383   4.333  1.00 43.36    -0.359 OA
ATOM     22  HH  TYR A 338     -36.970 129.365   3.407  1.00  0.00     0.217 HD
ENDBRANCH  18  21
ENDBRANCH  14  15
ENDBRANCH  13  14
END_RES TYR A 338
ENDMDL
MODEL 2
REMARK VINA RESULT:    -6.960      0.797     15.844
REMARK INTER + INTRA:         -10.830
REMARK INTER:                  -8.538
REMARK INTRA:                  -2.292
REMARK UNBOUND:                -3.870
REMARK  0 active torsions:
REMARK  status: ('A' for Active; 'I' for Inactive)
REMARK       I    between atoms: C6_6  and  C7_7 
REMARK       I    between atoms: C8_8  and  C9_9 
REMARK       I    between atoms: C10_10  and  C11_11 
REMARK       I    between atoms: C12_16  and  C13_17 
REMARK       I    between atoms: C14_18  and  C15_19 
REMARK       I    between atoms: C16_20  and  C17_21 
REMARK       I    between atoms: C18_22  and  C19_23 
REMARK       I    between atoms: C20_24  and  C21_25 
REMARK       I    between atoms: C22_26  and  C23_27 
REMARK       I    between atoms: C24_28  and  C25_29 
ROOT
HETATM    1  C1  BCR K 103     -50.157 142.622  12.084  1.00 56.77    -0.020 C 
HETATM    2  C2  BCR K 103     -51.258 143.021  13.043  1.00 45.87     0.014 C 
HETATM    3  C3  BCR K 103     -50.692 143.736  14.231  1.00 50.21     0.005 C 
HETATM    4  C4  BCR K 103     -50.055 145.022  13.786  1.00 55.76     0.034 C 
HETATM    5  C5  BCR K 103     -49.043 144.730  12.753  1.00 58.42    -0.077 C 
HETATM    6  C6  BCR K 103     -49.053 143.627  11.981  1.00 56.84    -0.048 C 
HETATM    7  C7  BCR K 103     -48.054 143.367  10.942  1.00 58.02     0.009 C 
HETATM    8  C8  BCR K 103     -46.790 143.061  11.228  1.00 55.60     0.007 C 
HETATM    9  C9  BCR K 103     -45.842 142.603  10.227  1.00 59.41    -0.062 C 
HETATM   10  C10 BCR K 103     -44.783 141.862  10.592  1.00 53.38     0.007 C 
HETATM   11  C11 BCR K 103     -43.966 141.118   9.668  1.00 50.51     0.001 C 
HETATM   12  C33 BCR K 103     -48.010 145.779  12.672  1.00 50.72     0.044 C 
HETATM   13  C31 BCR K 103     -50.803 142.398  10.724  1.00 56.63     0.020 C 
HETATM   14  C32 BCR K 103     -49.638 141.281  12.545  1.00 56.21     0.020 C 
HETATM   15  C34 BCR K 103     -46.008 143.100   8.848  1.00 55.47     0.048 C 
HETATM   16  C12 BCR K 103     -43.046 140.291  10.150  1.00 38.57     0.007 C 
HETATM   17  C13 BCR K 103     -42.185 139.476   9.340  1.00 36.45    -0.062 C 
HETATM   18  C14 BCR K 103     -41.330 138.680   9.997  1.00 45.53     0.007 C 
HETATM   19  C15 BCR K 103     -40.429 137.739   9.386  1.00 39.78     0.001 C 
HETATM   20  C16 BCR K 103     -39.712 136.938  10.185  1.00 43.24     0.001 C 
HETATM   21  C17 BCR K 103     -38.909 135.912   9.560  1.00 54.91     0.007 C 
HETATM   22  C18 BCR K 103     -38.111 135.014  10.161  1.00 49.76    -0.062 C 
HETATM   23  C19 BCR K 103     -37.153 134.287   9.324  1.00 46.29     0.007 C 
HETATM   24  C20 BCR K 103     -36.374 133.289   9.755  1.00 45.35     0.001 C 
HETATM   25  C21 BCR K 103     -35.726 132.401   8.805  1.00 43.82     0.007 C 
HETATM   26  C22 BCR K 103     -35.258 131.165   9.082  1.00 45.32    -0.062 C 
HETATM   27  C23 BCR K 103     -34.701 130.338   8.007  1.00 50.38     0.007 C 
HETATM   28  C24 BCR K 103     -34.073 129.168   8.180  1.00 43.89     0.009 C 
HETATM   29  C25 BCR K 103     -33.477 128.394   7.091  1.00 45.21    -0.048 C 
HETATM   30  C26 BCR K 103     -32.301 128.727   6.548  1.00 43.50    -0.077 C 
HETATM   31  C27 BCR K 103     -31.623 128.024   5.448  1.00 46.50     0.034 C 
HETATM   32  C28 BCR K 103     -32.100 126.603   5.322  1.00 48.43     0.005 C 
HETATM   33  C29 BCR K 103     -33.596 126.569   5.364  1.00 49.94     0.014 C 
HETATM   34  C30 BCR K 103     -34.210 127.180   6.607  1.00 40.03    -0.020 C 
HETATM   35  C35 BCR K 103     -41.941 139.876   7.938  1.00 51.19     0.048 C 
HETATM   36  C36 BCR K 103     -38.150 134.815  11.633  1.00 40.30     0.048 C 
HETATM   37  C37 BCR K 103     -35.592 130.529  10.374  1.00 47.05     0.048 C 
HETATM   38  C38 BCR K 103     -31.528 129.914   6.949  1.00 45.74     0.044 C 
HETATM   39  C39 BCR K 103     -34.233 126.178   7.725  1.00 41.11     0.020 C 
HETATM   40  C40 BCR K 103     -35.662 127.467   6.234  1.00 43.62     0.020 C 
ENDROOT
TORSDOF 10
BEGIN_RES PHE A  61
REMARK  2 active torsions:
REMARK  status: ('A' for Active; 'I' for Inactive)
REMARK    1  A    between atoms: CA   and  CB  
REMARK    2  A    between atoms: CB   and  CG  
ROOT
ATOM      1  CA  PHE A  61     -36.237 128.293  12.768  1.00 39.40     0.164 C 
ENDROOT
BRANCH   1   2
ATOM      2  CB  PHE A  61     -36.813 128.951  11.509  1.00 39.41     0.058 C 
BRANCH   2   3
ATOM      3  CG  PHE A  61     -37.080 127.995  10.371  1.00 39.01    -0.020 A 
ATOM      4  CD2 PHE A  61     -36.387 126.799  10.270  1.00 40.32    -0.004 A 
ATOM      5  CE2 PHE A  61     -36.631 125.921   9.221  1.00 40.20    -0.000 A 
ATOM      6  CZ  PHE A  61     -37.573 126.227   8.265  1.00 40.34    -0.000 A 
ATOM      7  CE1 PHE A  61     -38.272 127.411   8.353  1.00 41.51    -0.000 A 
ATOM      8  CD1 PHE A  61     -38.023 128.291   9.398  1.00 39.94    -0.004 A 
ENDBRANCH   2   3
ENDBRANCH   1   2
END_RES PHE A  61
BEGIN_RES VAL A 134
REMARK  1 active torsions:
REMARK  status: ('A' for Active; 'I' for Inactive)
REMARK    3  A    between atoms: CA   and  CB  
ROOT
ATOM      9  CA  VAL A 134     -29.766 132.051   9.815  1.00 40.75     0.159 C 
ENDROOT
BRANCH   9  10
ATOM     10  CB  VAL A 134     -30.864 132.765   9.009  1.00 40.76     0.029 C 
ATOM     11  CG1 VAL A 134     -30.874 132.281   7.566  1.00 41.76     0.002 C 
ATOM     12  CG2 VAL A 134     -32.233 132.589   9.647  1.00 40.56     0.002 C 
ENDBRANCH   9  10
END_RES VAL A 134
BEGIN_RES TYR A 338
REMARK  3 active torsions:
REMARK  status: ('A' for Active; 'I' for Inactive)
REMARK    4  A    between atoms: CA   and  CB  
REMARK    5  A    between atoms: CB   and  CG  
REMARK    6  A    between atoms: CZ   and  OH  
ROOT
ATOM     13  CA  TYR A 338     -41.631 124.950   6.058  1.00 38.23     0.164 C 
ENDROOT
BRANCH  13  14
ATOM     14  CB  TYR A 338     -41.621 126.456   6.339  1.00 39.15     0.058 C 
BRANCH  14  15
ATOM     15  CG  TYR A 338     -40.422 127.213   5.816  1.00 39.03    -0.020 A 
ATOM     16  CD2 TYR A 338     -40.253 128.553   6.119  1.00 40.65    -0.002 A 
ATOM     17  CE2 TYR A 338     -39.174 129.282   5.643  1.00 40.91     0.024 A 
ATOM     18  CZ  TYR A 338     -38.231 128.668   4.840  1.00 42.33     0.089 A 
ATOM     19  CE1 TYR A 338     -38.376 127.328   4.527  1.00 40.63     0.024 A 
ATOM     20  CD1 TYR A 338     -39.469 126.620   5.002  1.00 39.27    -0.002 A 
BRANCH  18  21
ATOM     21  OH  TYR A 338     -37.161 129.376   4.369  1.00 43.36    -0.359 OA
ATOM     22  HH  TYR A 338     -36.326 129.345   4.823  1.00  0.00     0.217 HD
ENDBRANCH  18  21
ENDBRANCH  14  15
ENDBRANCH  13  14
END_RES TYR A 338
ENDMDL
