MODEL 1
REMARK VINA RESULT:    -9.238      0.000      0.000
REMARK INTER + INTRA:         -13.192
REMARK INTER:                  -9.238
REMARK INTRA:                  -3.953
REMARK UNBOUND:                -3.953
REMARK  0 active torsions:
REMARK  status: ('A' for Active; 'I' for Inactive)
REMARK       I    between atoms: C6_6  and  C7_7 
REMARK       I    between atoms: C8_8  and  C9_9 
REMARK       I    between atoms: C10_10  and  C11_11 
REMARK       I    between atoms: C12_16  and  C13_17 
REMARK       I    between atoms: C14_18  and  C15_19 
REMARK       I    between atoms: C16_20  and  C17_21 
REMARK       I    between atoms: C18_22  and  C19_23 
REMARK       I    between atoms: C20_24  and  C21_25 
REMARK       I    between atoms: C22_26  and  C23_27 
REMARK       I    between atoms: C24_28  and  C25_29 
ROOT
HETATM    1  C1  BCR T 101     -33.759 128.641   6.373  1.00 48.00    -0.020 C 
HETATM    2  C2  BCR T 101     -32.510 127.814   6.036  1.00 45.40     0.014 C 
HETATM    3  C3  BCR T 101     -32.735 126.325   6.050  1.00 45.70     0.005 C 
HETATM    4  C4  BCR T 101     -33.414 125.850   7.330  1.00 45.85     0.034 C 
HETATM    5  C5  BCR T 101     -34.670 126.624   7.625  1.00 47.82    -0.077 C 
HETATM    6  C6  BCR T 101     -34.817 127.914   7.205  1.00 44.72    -0.048 C 
HETATM    7  C7  BCR T 101     -36.086 128.609   7.578  1.00 42.20     0.009 C 
HETATM    8  C8  BCR T 101     -36.297 129.935   7.542  1.00 44.51     0.007 C 
HETATM    9  C9  BCR T 101     -37.595 130.523   7.959  1.00 46.58    -0.062 C 
HETATM   10  C10 BCR T 101     -37.748 131.852   7.814  1.00 43.07     0.007 C 
HETATM   11  C11 BCR T 101     -38.934 132.603   8.211  1.00 43.14     0.001 C 
HETATM   12  C33 BCR T 101     -35.722 125.893   8.419  1.00 47.62     0.044 C 
HETATM   13  C31 BCR T 101     -34.399 129.137   5.073  1.00 41.19     0.020 C 
HETATM   14  C32 BCR T 101     -33.206 129.871   7.111  1.00 53.32     0.020 C 
HETATM   15  C34 BCR T 101     -38.699 129.643   8.514  1.00 45.50     0.048 C 
HETATM   16  C12 BCR T 101     -38.897 133.944   8.132  1.00 43.45     0.007 C 
HETATM   17  C13 BCR T 101     -39.990 134.849   8.591  1.00 44.47    -0.062 C 
HETATM   18  C14 BCR T 101     -39.654 136.156   8.626  1.00 36.71     0.007 C 
HETATM   19  C15 BCR T 101     -40.433 137.296   9.137  1.00 34.79     0.001 C 
HETATM   20  C16 BCR T 101     -40.595 138.479   8.534  1.00 32.63     0.001 C 
HETATM   21  C17 BCR T 101     -41.329 139.521   9.295  1.00 31.36     0.007 C 
HETATM   22  C18 BCR T 101     -41.435 140.824   8.910  1.00 32.34    -0.062 C 
HETATM   23  C19 BCR T 101     -42.119 141.722   9.871  1.00 28.96     0.007 C 
HETATM   24  C20 BCR T 101     -42.241 143.053   9.763  1.00 27.10     0.001 C 
HETATM   25  C21 BCR T 101     -42.843 143.744  10.922  1.00 26.88     0.007 C 
HETATM   26  C22 BCR T 101     -42.972 145.097  10.957  1.00 28.28    -0.062 C 
HETATM   27  C23 BCR T 101     -43.509 145.638  12.216  1.00 26.57     0.007 C 
HETATM   28  C24 BCR T 101     -43.600 146.961  12.458  1.00 26.41     0.009 C 
HETATM   29  C25 BCR T 101     -44.095 147.424  13.794  1.00 26.91    -0.048 C 
HETATM   30  C26 BCR T 101     -45.220 146.933  14.371  1.00 25.86    -0.077 C 
HETATM   31  C27 BCR T 101     -45.717 147.366  15.739  1.00 27.15     0.034 C 
HETATM   32  C28 BCR T 101     -44.557 147.997  16.547  1.00 24.72     0.005 C 
HETATM   33  C29 BCR T 101     -43.989 149.123  15.678  1.00 28.53     0.014 C 
HETATM   34  C30 BCR T 101     -43.258 148.553  14.449  1.00 28.77    -0.020 C 
HETATM   35  C35 BCR T 101     -41.359 134.362   9.018  1.00 39.12     0.048 C 
HETATM   36  C36 BCR T 101     -40.796 141.369   7.637  1.00 30.01     0.048 C 
HETATM   37  C37 BCR T 101     -42.552 146.041   9.823  1.00 26.82     0.048 C 
HETATM   38  C38 BCR T 101     -46.065 145.878  13.746  1.00 26.07     0.044 C 
HETATM   39  C39 BCR T 101     -41.877 148.038  14.873  1.00 27.86     0.020 C 
HETATM   40  C40 BCR T 101     -43.114 149.707  13.436  1.00 24.32     0.020 C 
ENDROOT
TORSDOF 10
BEGIN_RES PHE A  61
REMARK  2 active torsions:
REMARK  status: ('A' for Active; 'I' for Inactive)
REMARK    1  A    between atoms: CA   and  CB  
REMARK    2  A    between atoms: CB   and  CG  
ROOT
ATOM      1  CA  PHE A  61     -36.237 128.293  12.768  1.00 39.40     0.164 C 
ENDROOT
BRANCH   1   2
ATOM      2  CB  PHE A  61     -36.813 128.951  11.509  1.00 39.41     0.058 C 
BRANCH   2   3
ATOM      3  CG  PHE A  61     -36.019 130.131  11.003  1.00 39.01    -0.020 A 
ATOM      4  CD2 PHE A  61     -34.723 129.970  10.537  1.00 40.32    -0.004 A 
ATOM      5  CE2 PHE A  61     -33.993 131.057  10.074  1.00 40.20    -0.000 A 
ATOM      6  CZ  PHE A  61     -34.550 132.316  10.069  1.00 40.34    -0.000 A 
ATOM      7  CE1 PHE A  61     -35.837 132.492  10.526  1.00 41.51    -0.000 A 
ATOM      8  CD1 PHE A  61     -36.565 131.407  10.995  1.00 39.94    -0.004 A 
ENDBRANCH   2   3
ENDBRANCH   1   2
END_RES PHE A  61
BEGIN_RES VAL A 134
REMARK  1 active torsions:
REMARK  status: ('A' for Active; 'I' for Inactive)
REMARK    3  A    between atoms: CA   and  CB  
ROOT
ATOM      9  CA  VAL A 134     -29.766 132.051   9.815  1.00 40.75     0.159 C 
ENDROOT
BRANCH   9  10
ATOM     10  CB  VAL A 134     -30.864 132.765   9.009  1.00 40.76     0.029 C 
ATOM     11  CG1 VAL A 134     -31.410 131.854   7.920  1.00 41.76     0.002 C 
ATOM     12  CG2 VAL A 134     -31.985 133.265   9.908  1.00 40.56     0.002 C 
ENDBRANCH   9  10
END_RES VAL A 134
BEGIN_RES TYR A 338
REMARK  3 active torsions:
REMARK  status: ('A' for Active; 'I' for Inactive)
REMARK    4  A    between atoms: CA   and  CB  
REMARK    5  A    between atoms: CB   and  CG  
REMARK    6  A    between atoms: CZ   and  OH  
ROOT
ATOM     13  CA  TYR A 338     -41.631 124.950   6.058  1.00 38.23     0.164 C 
ENDROOT
BRANCH  13  14
ATOM     14  CB  TYR A 338     -41.621 126.456   6.339  1.00 39.15     0.058 C 
BRANCH  14  15
ATOM     15  CG  TYR A 338     -40.424 127.214   5.812  1.00 39.03    -0.020 A 
ATOM     16  CD2 TYR A 338     -40.399 128.598   5.850  1.00 40.65    -0.002 A 
ATOM     17  CE2 TYR A 338     -39.325 129.325   5.361  1.00 40.91     0.024 A 
ATOM     18  CZ  TYR A 338     -38.239 128.665   4.816  1.00 42.33     0.089 A 
ATOM     19  CE1 TYR A 338     -38.239 127.282   4.772  1.00 40.63     0.024 A 
ATOM     20  CD1 TYR A 338     -39.329 126.573   5.254  1.00 39.27    -0.002 A 
BRANCH  18  21
ATOM     21  OH  TYR A 338     -37.173 129.372   4.336  1.00 43.36    -0.359 OA
ATOM     22  HH  TYR A 338     -36.823 129.186   3.472  1.00  0.00     0.217 HD
ENDBRANCH  18  21
ENDBRANCH  14  15
ENDBRANCH  13  14
END_RES TYR A 338
ENDMDL
MODEL 2
REMARK VINA RESULT:    -7.767      2.929      6.118
REMARK INTER + INTRA:         -11.720
REMARK INTER:                  -4.750
REMARK INTRA:                  -6.970
REMARK UNBOUND:                -3.953
REMARK  0 active torsions:
REMARK  status: ('A' for Active; 'I' for Inactive)
REMARK       I    between atoms: C6_6  and  C7_7 
REMARK       I    between atoms: C8_8  and  C9_9 
REMARK       I    between atoms: C10_10  and  C11_11 
REMARK       I    between atoms: C12_16  and  C13_17 
REMARK       I    between atoms: C14_18  and  C15_19 
REMARK       I    between atoms: C16_20  and  C17_21 
REMARK       I    between atoms: C18_22  and  C19_23 
REMARK       I    between atoms: C20_24  and  C21_25 
REMARK       I    between atoms: C22_26  and  C23_27 
REMARK       I    between atoms: C24_28  and  C25_29 
ROOT
HETATM    1  C1  BCR T 101     -36.723 133.210   9.666  1.00 48.00    -0.020 C 
HETATM    2  C2  BCR T 101     -35.759 132.033   9.876  1.00 45.40     0.014 C 
HETATM    3  C3  BCR T 101     -35.735 131.046   8.739  1.00 45.70     0.005 C 
HETATM    4  C4  BCR T 101     -37.131 130.584   8.338  1.00 45.85     0.034 C 
HETATM    5  C5  BCR T 101     -38.056 131.741   8.076  1.00 47.82    -0.077 C 
HETATM    6  C6  BCR T 101     -37.881 132.939   8.704  1.00 44.72    -0.048 C 
HETATM    7  C7  BCR T 101     -38.874 134.016   8.404  1.00 42.20     0.009 C 
HETATM    8  C8  BCR T 101     -39.069 135.130   9.126  1.00 44.51     0.007 C 
HETATM    9  C9  BCR T 101     -40.103 136.126   8.748  1.00 46.58    -0.062 C 
HETATM   10  C10 BCR T 101     -40.175 137.252   9.480  1.00 43.07     0.007 C 
HETATM   11  C11 BCR T 101     -41.155 138.316   9.281  1.00 43.14     0.001 C 
HETATM   12  C33 BCR T 101     -39.178 131.478   7.104  1.00 47.62     0.044 C 
HETATM   13  C31 BCR T 101     -35.933 134.424   9.168  1.00 41.19     0.020 C 
HETATM   14  C32 BCR T 101     -37.227 133.539  11.081  1.00 53.32     0.020 C 
HETATM   15  C34 BCR T 101     -41.026 135.872   7.571  1.00 45.50     0.048 C 
HETATM   16  C12 BCR T 101     -41.197 139.320  10.172  1.00 43.45     0.007 C 
HETATM   17  C13 BCR T 101     -42.202 140.422  10.156  1.00 44.47    -0.062 C 
HETATM   18  C14 BCR T 101     -42.200 141.195  11.265  1.00 36.71     0.007 C 
HETATM   19  C15 BCR T 101     -43.124 142.278  11.636  1.00 34.79     0.001 C 
HETATM   20  C16 BCR T 101     -42.785 143.474  12.129  1.00 32.63     0.001 C 
HETATM   21  C17 BCR T 101     -43.898 144.366  12.542  1.00 31.36     0.007 C 
HETATM   22  C18 BCR T 101     -43.736 145.538  13.218  1.00 32.34    -0.062 C 
HETATM   23  C19 BCR T 101     -44.988 146.219  13.628  1.00 28.96     0.007 C 
HETATM   24  C20 BCR T 101     -45.078 147.316  14.395  1.00 27.10     0.001 C 
HETATM   25  C21 BCR T 101     -46.444 147.723  14.783  1.00 26.88     0.007 C 
HETATM   26  C22 BCR T 101     -46.666 148.786  15.602  1.00 28.28    -0.062 C 
HETATM   27  C23 BCR T 101     -48.074 149.008  15.965  1.00 26.57     0.007 C 
HETATM   28  C24 BCR T 101     -48.455 149.949  16.852  1.00 26.41     0.009 C 
HETATM   29  C25 BCR T 101     -49.905 150.060  17.215  1.00 26.91    -0.048 C 
HETATM   30  C26 BCR T 101     -50.894 150.099  16.289  1.00 25.86    -0.077 C 
HETATM   31  C27 BCR T 101     -52.369 150.177  16.641  1.00 27.15     0.034 C 
HETATM   32  C28 BCR T 101     -52.591 149.699  18.097  1.00 24.72     0.005 C 
HETATM   33  C29 BCR T 101     -51.670 150.550  18.975  1.00 28.53     0.014 C 
HETATM   34  C30 BCR T 101     -50.192 150.189  18.734  1.00 28.77    -0.020 C 
HETATM   35  C35 BCR T 101     -43.176 140.655   9.021  1.00 39.12     0.048 C 
HETATM   36  C36 BCR T 101     -42.371 146.072  13.639  1.00 30.01     0.048 C 
HETATM   37  C37 BCR T 101     -45.564 149.684  16.178  1.00 26.82     0.048 C 
HETATM   38  C38 BCR T 101     -50.645 150.018  14.822  1.00 26.07     0.044 C 
HETATM   39  C39 BCR T 101     -49.863 148.883  19.468  1.00 27.86     0.020 C 
HETATM   40  C40 BCR T 101     -49.347 151.350  19.296  1.00 24.32     0.020 C 
ENDROOT
TORSDOF 10
BEGIN_RES PHE A  61
REMARK  2 active torsions:
REMARK  status: ('A' for Active; 'I' for Inactive)
REMARK    1  A    between atoms: CA   and  CB  
REMARK    2  A    between atoms: CB   and  CG  
ROOT
ATOM      1  CA  PHE A  61     -36.237 128.293  12.768  1.00 39.40     0.164 C 
ENDROOT
BRANCH   1   2
ATOM      2  CB  PHE A  61     -36.813 128.951  11.509  1.00 39.41     0.058 C 
BRANCH   2   3
ATOM      3  CG  PHE A  61     -36.567 128.180  10.234  1.00 39.01    -0.020 A 
ATOM      4  CD2 PHE A  61     -37.619 127.817   9.408  1.00 40.32    -0.004 A 
ATOM      5  CE2 PHE A  61     -37.391 127.105   8.236  1.00 40.20    -0.000 A 
ATOM      6  CZ  PHE A  61     -36.111 126.753   7.877  1.00 40.34    -0.000 A 
ATOM      7  CE1 PHE A  61     -35.054 127.108   8.686  1.00 41.51    -0.000 A 
ATOM      8  CD1 PHE A  61     -35.282 127.814   9.860  1.00 39.94    -0.004 A 
ENDBRANCH   2   3
ENDBRANCH   1   2
END_RES PHE A  61
BEGIN_RES VAL A 134
REMARK  1 active torsions:
REMARK  status: ('A' for Active; 'I' for Inactive)
REMARK    3  A    between atoms: CA   and  CB  
ROOT
ATOM      9  CA  VAL A 134     -29.766 132.051   9.815  1.00 40.75     0.159 C 
ENDROOT
BRANCH   9  10
ATOM     10  CB  VAL A 134     -30.864 132.765   9.009  1.00 40.76     0.029 C 
ATOM     11  CG1 VAL A 134     -31.295 131.919   7.820  1.00 41.76     0.002 C 
ATOM     12  CG2 VAL A 134     -32.058 133.121   9.881  1.00 40.56     0.002 C 
ENDBRANCH   9  10
END_RES VAL A 134
BEGIN_RES TYR A 338
REMARK  3 active torsions:
REMARK  status: ('A' for Active; 'I' for Inactive)
REMARK    4  A    between atoms: CA   and  CB  
REMARK    5  A    between atoms: CB   and  CG  
REMARK    6  A    between atoms: CZ   and  OH  
ROOT
ATOM     13  CA  TYR A 338     -41.631 124.950   6.058  1.00 38.23     0.164 C 
ENDROOT
BRANCH  13  14
ATOM     14  CB  TYR A 338     -41.621 126.456   6.339  1.00 39.15     0.058 C 
BRANCH  14  15
ATOM     15  CG  TYR A 338     -40.402 127.206   5.853  1.00 39.03    -0.020 A 
ATOM     16  CD2 TYR A 338     -39.393 126.541   5.178  1.00 40.65    -0.002 A 
ATOM     17  CE2 TYR A 338     -38.254 127.194   4.732  1.00 40.91     0.024 A 
ATOM     18  CZ  TYR A 338     -38.106 128.549   4.961  1.00 42.33     0.089 A 
ATOM     19  CE1 TYR A 338     -39.104 129.237   5.629  1.00 40.63     0.024 A 
ATOM     20  CD1 TYR A 338     -40.229 128.563   6.078  1.00 39.27    -0.002 A 
BRANCH  18  21
ATOM     21  OH  TYR A 338     -36.990 129.204   4.522  1.00 43.36    -0.359 OA
ATOM     22  HH  TYR A 338     -36.408 128.793   3.892  1.00  0.00     0.217 HD
ENDBRANCH  18  21
ENDBRANCH  14  15
ENDBRANCH  13  14
END_RES TYR A 338
ENDMDL
