MODEL 1
REMARK VINA RESULT:    -6.313      0.000      0.000
REMARK INTER + INTRA:         -10.501
REMARK INTER:                  -6.313
REMARK INTRA:                  -4.188
REMARK UNBOUND:                -4.188
REMARK  0 active torsions:
REMARK  status: ('A' for Active; 'I' for Inactive)
REMARK       I    between atoms: C6_6  and  C7_7 
REMARK       I    between atoms: C8_8  and  C9_9 
REMARK       I    between atoms: C10_10  and  C11_11 
REMARK       I    between atoms: C12_16  and  C13_17 
REMARK       I    between atoms: C14_18  and  C15_19 
REMARK       I    between atoms: C16_20  and  C17_21 
REMARK       I    between atoms: C18_22  and  C19_23 
REMARK       I    between atoms: C20_24  and  C21_25 
REMARK       I    between atoms: C22_26  and  C23_27 
REMARK       I    between atoms: C24_28  and  C25_29 
ROOT
HETATM    1  C1  BCR K 102     -50.345 144.608   9.071  1.00 38.40    -0.020 C 
HETATM    2  C2  BCR K 102     -51.703 145.065   9.584  1.00 38.88     0.014 C 
HETATM    3  C3  BCR K 102     -51.755 145.259  11.096  1.00 36.35     0.005 C 
HETATM    4  C4  BCR K 102     -50.740 146.315  11.503  1.00 39.30     0.034 C 
HETATM    5  C5  BCR K 102     -49.363 145.998  10.925  1.00 38.06    -0.077 C 
HETATM    6  C6  BCR K 102     -49.187 145.256   9.814  1.00 35.81    -0.048 C 
HETATM    7  C7  BCR K 102     -47.852 144.886   9.267  1.00 37.55     0.009 C 
HETATM    8  C8  BCR K 102     -46.771 144.532   9.997  1.00 35.06     0.007 C 
HETATM    9  C9  BCR K 102     -45.547 144.054   9.320  1.00 32.94    -0.062 C 
HETATM   10  C10 BCR K 102     -44.814 143.071   9.916  1.00 29.26     0.007 C 
HETATM   11  C11 BCR K 102     -43.631 142.499   9.231  1.00 31.72     0.001 C 
HETATM   12  C33 BCR K 102     -48.195 146.608  11.637  1.00 42.01     0.044 C 
HETATM   13  C31 BCR K 102     -50.248 144.971   7.611  1.00 35.78     0.020 C 
HETATM   14  C32 BCR K 102     -50.255 143.067   9.124  1.00 39.14     0.020 C 
HETATM   15  C34 BCR K 102     -45.099 144.630   7.977  1.00 34.26     0.048 C 
HETATM   16  C12 BCR K 102     -43.022 141.379   9.695  1.00 31.36     0.007 C 
HETATM   17  C13 BCR K 102     -41.941 140.606   8.996  1.00 34.21    -0.062 C 
HETATM   18  C14 BCR K 102     -41.550 139.418   9.536  1.00 32.95     0.007 C 
HETATM   19  C15 BCR K 102     -40.525 138.470   9.042  1.00 34.69     0.001 C 
HETATM   20  C16 BCR K 102     -40.145 137.376   9.754  1.00 32.05     0.001 C 
HETATM   21  C17 BCR K 102     -39.104 136.480   9.227  1.00 30.56     0.007 C 
HETATM   22  C18 BCR K 102     -38.718 135.337   9.868  1.00 30.66    -0.062 C 
HETATM   23  C19 BCR K 102     -37.676 134.523   9.198  1.00 30.34     0.007 C 
HETATM   24  C20 BCR K 102     -37.249 133.308   9.570  1.00 29.93     0.001 C 
HETATM   25  C21 BCR K 102     -36.261 132.647   8.710  1.00 31.06     0.007 C 
HETATM   26  C22 BCR K 102     -36.088 131.309   8.701  1.00 32.58    -0.062 C 
HETATM   27  C23 BCR K 102     -35.108 130.721   7.753  1.00 31.86     0.007 C 
HETATM   28  C24 BCR K 102     -34.811 129.405   7.786  1.00 29.98     0.009 C 
HETATM   29  C25 BCR K 102     -33.842 128.777   6.874  1.00 30.51    -0.048 C 
HETATM   30  C26 BCR K 102     -32.510 128.994   7.063  1.00 29.80    -0.077 C 
HETATM   31  C27 BCR K 102     -31.460 128.397   6.182  1.00 28.84     0.034 C 
HETATM   32  C28 BCR K 102     -32.046 127.897   4.868  1.00 30.72     0.005 C 
HETATM   33  C29 BCR K 102     -33.308 127.028   5.172  1.00 30.97     0.014 C 
HETATM   34  C30 BCR K 102     -34.413 127.900   5.738  1.00 30.37    -0.020 C 
HETATM   35  C35 BCR K 102     -41.437 141.051   7.656  1.00 29.96     0.048 C 
HETATM   36  C36 BCR K 102     -39.379 134.836  11.127  1.00 30.23     0.048 C 
HETATM   37  C37 BCR K 102     -36.892 130.438   9.653  1.00 31.58     0.048 C 
HETATM   38  C38 BCR K 102     -32.018 129.842   8.215  1.00 29.47     0.044 C 
HETATM   39  C39 BCR K 102     -35.481 126.971   6.367  1.00 31.75     0.020 C 
HETATM   40  C40 BCR K 102     -35.038 128.752   4.633  1.00 30.63     0.020 C 
ENDROOT
TORSDOF 10
BEGIN_RES PHE A  61
REMARK  2 active torsions:
REMARK  status: ('A' for Active; 'I' for Inactive)
REMARK    1  A    between atoms: CA   and  CB  
REMARK    2  A    between atoms: CB   and  CG  
ROOT
ATOM      1  CA  PHE A  61     -36.237 128.293  12.768  1.00 39.40     0.164 C 
ENDROOT
BRANCH   1   2
ATOM      2  CB  PHE A  61     -36.813 128.951  11.509  1.00 39.41     0.058 C 
BRANCH   2   3
ATOM      3  CG  PHE A  61     -36.944 128.024  10.324  1.00 39.01    -0.020 A 
ATOM      4  CD2 PHE A  61     -38.032 128.109   9.471  1.00 40.32    -0.004 A 
ATOM      5  CE2 PHE A  61     -38.152 127.253   8.383  1.00 40.20    -0.000 A 
ATOM      6  CZ  PHE A  61     -37.185 126.306   8.135  1.00 40.34    -0.000 A 
ATOM      7  CE1 PHE A  61     -36.096 126.210   8.972  1.00 41.51    -0.000 A 
ATOM      8  CD1 PHE A  61     -35.979 127.061  10.064  1.00 39.94    -0.004 A 
ENDBRANCH   2   3
ENDBRANCH   1   2
END_RES PHE A  61
BEGIN_RES VAL A 134
REMARK  1 active torsions:
REMARK  status: ('A' for Active; 'I' for Inactive)
REMARK    3  A    between atoms: CA   and  CB  
ROOT
ATOM      9  CA  VAL A 134     -29.766 132.051   9.815  1.00 40.75     0.159 C 
ENDROOT
BRANCH   9  10
ATOM     10  CB  VAL A 134     -30.864 132.765   9.009  1.00 40.76     0.029 C 
ATOM     11  CG1 VAL A 134     -30.895 132.258   7.575  1.00 41.76     0.002 C 
ATOM     12  CG2 VAL A 134     -32.228 132.616   9.664  1.00 40.56     0.002 C 
ENDBRANCH   9  10
END_RES VAL A 134
BEGIN_RES TYR A 338
REMARK  3 active torsions:
REMARK  status: ('A' for Active; 'I' for Inactive)
REMARK    4  A    between atoms: CA   and  CB  
REMARK    5  A    between atoms: CB   and  CG  
REMARK    6  A    between atoms: CZ   and  OH  
ROOT
ATOM     13  CA  TYR A 338     -41.631 124.950   6.058  1.00 38.23     0.164 C 
ENDROOT
BRANCH  13  14
ATOM     14  CB  TYR A 338     -41.621 126.456   6.339  1.00 39.15     0.058 C 
BRANCH  14  15
ATOM     15  CG  TYR A 338     -40.423 127.213   5.815  1.00 39.03    -0.020 A 
ATOM     16  CD2 TYR A 338     -40.246 128.550   6.128  1.00 40.65    -0.002 A 
ATOM     17  CE2 TYR A 338     -39.168 129.280   5.653  1.00 40.91     0.024 A 
ATOM     18  CZ  TYR A 338     -38.232 128.669   4.839  1.00 42.33     0.089 A 
ATOM     19  CE1 TYR A 338     -38.384 127.332   4.515  1.00 40.63     0.024 A 
ATOM     20  CD1 TYR A 338     -39.476 126.624   4.991  1.00 39.27    -0.002 A 
BRANCH  18  21
ATOM     21  OH  TYR A 338     -37.162 129.377   4.368  1.00 43.36    -0.359 OA
ATOM     22  HH  TYR A 338     -36.883 129.282   3.464  1.00  0.00     0.217 HD
ENDBRANCH  18  21
ENDBRANCH  14  15
ENDBRANCH  13  14
END_RES TYR A 338
ENDMDL
MODEL 2
REMARK VINA RESULT:    -5.843      1.416     16.105
REMARK INTER + INTRA:         -10.031
REMARK INTER:                  -6.757
REMARK INTRA:                  -3.274
REMARK UNBOUND:                -4.188
REMARK  0 active torsions:
REMARK  status: ('A' for Active; 'I' for Inactive)
REMARK       I    between atoms: C6_6  and  C7_7 
REMARK       I    between atoms: C8_8  and  C9_9 
REMARK       I    between atoms: C10_10  and  C11_11 
REMARK       I    between atoms: C12_16  and  C13_17 
REMARK       I    between atoms: C14_18  and  C15_19 
REMARK       I    between atoms: C16_20  and  C17_21 
REMARK       I    between atoms: C18_22  and  C19_23 
REMARK       I    between atoms: C20_24  and  C21_25 
REMARK       I    between atoms: C22_26  and  C23_27 
REMARK       I    between atoms: C24_28  and  C25_29 
ROOT
HETATM    1  C1  BCR K 102     -34.362 126.763   6.063  1.00 38.40    -0.020 C 
HETATM    2  C2  BCR K 102     -33.717 125.850   5.030  1.00 38.88     0.014 C 
HETATM    3  C3  BCR K 102     -32.735 126.565   4.107  1.00 36.35     0.005 C 
HETATM    4  C4  BCR K 102     -31.616 127.173   4.935  1.00 39.30     0.034 C 
HETATM    5  C5  BCR K 102     -32.179 128.014   6.078  1.00 38.06    -0.077 C 
HETATM    6  C6  BCR K 102     -33.402 127.810   6.606  1.00 35.81    -0.048 C 
HETATM    7  C7  BCR K 102     -33.993 128.655   7.680  1.00 37.55     0.009 C 
HETATM    8  C8  BCR K 102     -33.883 129.998   7.777  1.00 35.06     0.007 C 
HETATM    9  C9  BCR K 102     -34.637 130.728   8.818  1.00 32.94    -0.062 C 
HETATM   10  C10 BCR K 102     -35.132 131.963   8.520  1.00 29.26     0.007 C 
HETATM   11  C11 BCR K 102     -35.969 132.691   9.502  1.00 31.72     0.001 C 
HETATM   12  C33 BCR K 102     -31.267 129.065   6.633  1.00 42.01     0.044 C 
HETATM   13  C31 BCR K 102     -34.847 125.909   7.207  1.00 35.78     0.020 C 
HETATM   14  C32 BCR K 102     -35.628 127.417   5.467  1.00 39.14     0.020 C 
HETATM   15  C34 BCR K 102     -34.875 130.126  10.204  1.00 34.26     0.048 C 
HETATM   16  C12 BCR K 102     -36.653 133.809   9.152  1.00 31.36     0.007 C 
HETATM   17  C13 BCR K 102     -37.668 134.526   9.995  1.00 34.21    -0.062 C 
HETATM   18  C14 BCR K 102     -38.370 135.545   9.427  1.00 32.95     0.007 C 
HETATM   19  C15 BCR K 102     -39.422 136.394  10.032  1.00 34.69     0.001 C 
HETATM   20  C16 BCR K 102     -39.953 137.466   9.384  1.00 32.05     0.001 C 
HETATM   21  C17 BCR K 102     -40.979 138.289  10.041  1.00 30.56     0.007 C 
HETATM   22  C18 BCR K 102     -41.588 139.344   9.423  1.00 30.66    -0.062 C 
HETATM   23  C19 BCR K 102     -42.623 140.061  10.205  1.00 30.34     0.007 C 
HETATM   24  C20 BCR K 102     -43.438 141.026   9.757  1.00 29.93     0.001 C 
HETATM   25  C21 BCR K 102     -44.448 141.543  10.687  1.00 31.06     0.007 C 
HETATM   26  C22 BCR K 102     -45.576 142.153  10.267  1.00 32.58    -0.062 C 
HETATM   27  C23 BCR K 102     -46.571 142.591  11.278  1.00 31.86     0.007 C 
HETATM   28  C24 BCR K 102     -47.656 143.309  10.921  1.00 29.98     0.009 C 
HETATM   29  C25 BCR K 102     -48.667 143.772  11.885  1.00 30.51    -0.048 C 
HETATM   30  C26 BCR K 102     -48.366 144.804  12.723  1.00 29.80    -0.077 C 
HETATM   31  C27 BCR K 102     -49.332 145.333  13.733  1.00 28.84     0.034 C 
HETATM   32  C28 BCR K 102     -50.471 144.355  13.990  1.00 30.72     0.005 C 
HETATM   33  C29 BCR K 102     -51.052 143.880  12.620  1.00 30.97     0.014 C 
HETATM   34  C30 BCR K 102     -50.026 143.037  11.886  1.00 30.37    -0.020 C 
HETATM   35  C35 BCR K 102     -38.014 134.015  11.362  1.00 29.96     0.048 C 
HETATM   36  C36 BCR K 102     -41.336 139.712   7.983  1.00 30.23     0.048 C 
HETATM   37  C37 BCR K 102     -45.802 142.380   8.780  1.00 31.58     0.048 C 
HETATM   38  C38 BCR K 102     -47.023 145.497  12.649  1.00 29.47     0.044 C 
HETATM   39  C39 BCR K 102     -50.478 142.909  10.410  1.00 31.75     0.020 C 
HETATM   40  C40 BCR K 102     -49.915 141.654  12.527  1.00 30.63     0.020 C 
ENDROOT
TORSDOF 10
BEGIN_RES PHE A  61
REMARK  2 active torsions:
REMARK  status: ('A' for Active; 'I' for Inactive)
REMARK    1  A    between atoms: CA   and  CB  
REMARK    2  A    between atoms: CB   and  CG  
ROOT
ATOM      1  CA  PHE A  61     -36.237 128.293  12.768  1.00 39.40     0.164 C 
ENDROOT
BRANCH   1   2
ATOM      2  CB  PHE A  61     -36.813 128.951  11.509  1.00 39.41     0.058 C 
BRANCH   2   3
ATOM      3  CG  PHE A  61     -37.016 128.006  10.349  1.00 39.01    -0.020 A 
ATOM      4  CD2 PHE A  61     -36.288 126.831  10.252  1.00 40.32    -0.004 A 
ATOM      5  CE2 PHE A  61     -36.474 125.964   9.182  1.00 40.20    -0.000 A 
ATOM      6  CZ  PHE A  61     -37.391 126.261   8.200  1.00 40.34    -0.000 A 
ATOM      7  CE1 PHE A  61     -38.124 127.424   8.282  1.00 41.51    -0.000 A 
ATOM      8  CD1 PHE A  61     -37.934 128.294   9.348  1.00 39.94    -0.004 A 
ENDBRANCH   2   3
ENDBRANCH   1   2
END_RES PHE A  61
BEGIN_RES VAL A 134
REMARK  1 active torsions:
REMARK  status: ('A' for Active; 'I' for Inactive)
REMARK    3  A    between atoms: CA   and  CB  
ROOT
ATOM      9  CA  VAL A 134     -29.766 132.051   9.815  1.00 40.75     0.159 C 
ENDROOT
BRANCH   9  10
ATOM     10  CB  VAL A 134     -30.864 132.765   9.009  1.00 40.76     0.029 C 
ATOM     11  CG1 VAL A 134     -31.176 132.001   7.731  1.00 41.76     0.002 C 
ATOM     12  CG2 VAL A 134     -32.123 132.971   9.836  1.00 40.56     0.002 C 
ENDBRANCH   9  10
END_RES VAL A 134
BEGIN_RES TYR A 338
REMARK  3 active torsions:
REMARK  status: ('A' for Active; 'I' for Inactive)
REMARK    4  A    between atoms: CA   and  CB  
REMARK    5  A    between atoms: CB   and  CG  
REMARK    6  A    between atoms: CZ   and  OH  
ROOT
ATOM     13  CA  TYR A 338     -41.631 124.950   6.058  1.00 38.23     0.164 C 
ENDROOT
BRANCH  13  14
ATOM     14  CB  TYR A 338     -41.621 126.456   6.339  1.00 39.15     0.058 C 
BRANCH  14  15
ATOM     15  CG  TYR A 338     -40.424 127.214   5.813  1.00 39.03    -0.020 A 
ATOM     16  CD2 TYR A 338     -40.251 128.552   6.121  1.00 40.65    -0.002 A 
ATOM     17  CE2 TYR A 338     -39.173 129.282   5.643  1.00 40.91     0.024 A 
ATOM     18  CZ  TYR A 338     -38.235 128.670   4.833  1.00 42.33     0.089 A 
ATOM     19  CE1 TYR A 338     -38.384 127.331   4.515  1.00 40.63     0.024 A 
ATOM     20  CD1 TYR A 338     -39.475 126.623   4.992  1.00 39.27    -0.002 A 
BRANCH  18  21
ATOM     21  OH  TYR A 338     -37.166 129.378   4.360  1.00 43.36    -0.359 OA
ATOM     22  HH  TYR A 338     -36.513 128.956   3.815  1.00  0.00     0.217 HD
ENDBRANCH  18  21
ENDBRANCH  14  15
ENDBRANCH  13  14
END_RES TYR A 338
ENDMDL
