MODEL 1
REMARK VINA RESULT:    -8.997      0.000      0.000
REMARK INTER + INTRA:         -15.921
REMARK INTER:                  -8.997
REMARK INTRA:                  -6.924
REMARK UNBOUND:                -6.924
REMARK  0 active torsions:
REMARK  status: ('A' for Active; 'I' for Inactive)
REMARK       I    between atoms: C6_6  and  C7_7 
REMARK       I    between atoms: C8_8  and  C9_9 
REMARK       I    between atoms: C10_10  and  C11_11 
REMARK       I    between atoms: C12_16  and  C13_17 
REMARK       I    between atoms: C14_18  and  C15_19 
REMARK       I    between atoms: C16_20  and  C17_21 
REMARK       I    between atoms: C18_22  and  C19_23 
REMARK       I    between atoms: C20_24  and  C21_25 
REMARK       I    between atoms: C22_26  and  C23_27 
REMARK       I    between atoms: C24_28  and  C25_29 
ROOT
HETATM    1  C1  BCR A 610     -34.856 130.884   8.073  1.00 29.59    -0.020 C 
HETATM    2  C2  BCR A 610     -33.717 130.017   8.556  1.00 31.72     0.014 C 
HETATM    3  C3  BCR A 610     -33.243 130.500   9.896  1.00 27.94     0.005 C 
HETATM    4  C4  BCR A 610     -34.381 130.408  10.907  1.00 32.43     0.034 C 
HETATM    5  C5  BCR A 610     -35.685 130.981  10.401  1.00 29.29    -0.077 C 
HETATM    6  C6  BCR A 610     -35.922 131.164   9.110  1.00 25.73    -0.048 C 
HETATM    7  C7  BCR A 610     -37.179 131.831   8.618  1.00 25.66     0.009 C 
HETATM    8  C8  BCR A 610     -37.630 132.941   9.234  1.00 28.04     0.007 C 
HETATM    9  C9  BCR A 610     -38.785 133.707   8.682  1.00 26.85    -0.062 C 
HETATM   10  C10 BCR A 610     -39.065 134.947   9.151  1.00 26.33     0.007 C 
HETATM   11  C11 BCR A 610     -40.157 135.783   8.633  1.00 27.36     0.001 C 
HETATM   12  C33 BCR A 610     -36.719 131.123  11.442  1.00 35.13     0.044 C 
HETATM   13  C31 BCR A 610     -35.461 130.170   6.911  1.00 31.88     0.020 C 
HETATM   14  C32 BCR A 610     -34.275 132.235   7.635  1.00 31.60     0.020 C 
HETATM   15  C34 BCR A 610     -39.586 133.043   7.585  1.00 29.30     0.048 C 
HETATM   16  C12 BCR A 610     -40.387 136.986   9.209  1.00 26.07     0.007 C 
HETATM   17  C13 BCR A 610     -41.465 137.935   8.849  1.00 27.88    -0.062 C 
HETATM   18  C14 BCR A 610     -41.436 139.175   9.429  1.00 26.29     0.007 C 
HETATM   19  C15 BCR A 610     -42.385 140.251   9.114  1.00 24.17     0.001 C 
HETATM   20  C16 BCR A 610     -42.282 141.482   9.641  1.00 25.06     0.001 C 
HETATM   21  C17 BCR A 610     -43.244 142.497   9.225  1.00 23.08     0.007 C 
HETATM   22  C18 BCR A 610     -43.301 143.793   9.652  1.00 25.47    -0.062 C 
HETATM   23  C19 BCR A 610     -44.352 144.714   9.152  1.00 24.27     0.007 C 
HETATM   24  C20 BCR A 610     -44.763 145.796   9.791  1.00 22.34     0.001 C 
HETATM   25  C21 BCR A 610     -45.846 146.640   9.199  1.00 26.05     0.007 C 
HETATM   26  C22 BCR A 610     -46.413 147.719   9.867  1.00 27.30    -0.062 C 
HETATM   27  C23 BCR A 610     -47.516 148.473   9.168  1.00 23.16     0.007 C 
HETATM   28  C24 BCR A 610     -48.207 149.425   9.777  1.00 21.54     0.009 C 
HETATM   29  C25 BCR A 610     -49.330 150.069   9.126  1.00 21.54    -0.048 C 
HETATM   30  C26 BCR A 610     -49.143 150.632   7.910  1.00 20.62    -0.077 C 
HETATM   31  C27 BCR A 610     -50.229 151.350   7.120  1.00 20.11     0.034 C 
HETATM   32  C28 BCR A 610     -51.590 151.005   7.687  1.00 24.80     0.005 C 
HETATM   33  C29 BCR A 610     -51.577 151.063   9.222  1.00 24.65     0.014 C 
HETATM   34  C30 BCR A 610     -50.650 150.047   9.861  1.00 22.24    -0.020 C 
HETATM   35  C35 BCR A 610     -42.545 137.414   7.930  1.00 33.62     0.048 C 
HETATM   36  C36 BCR A 610     -42.319 144.329  10.626  1.00 23.31     0.048 C 
HETATM   37  C37 BCR A 610     -45.908 148.106  11.252  1.00 28.25     0.048 C 
HETATM   38  C38 BCR A 610     -47.795 150.796   7.300  1.00 20.57     0.044 C 
HETATM   39  C39 BCR A 610     -51.178 148.604   9.742  1.00 24.02     0.020 C 
HETATM   40  C40 BCR A 610     -50.456 150.453  11.275  1.00 22.78     0.020 C 
ENDROOT
TORSDOF 10
BEGIN_RES PHE A  61
REMARK  2 active torsions:
REMARK  status: ('A' for Active; 'I' for Inactive)
REMARK    1  A    between atoms: CA   and  CB  
REMARK    2  A    between atoms: CB   and  CG  
ROOT
ATOM      1  CA  PHE A  61     -36.237 128.293  12.768  1.00 39.40     0.164 C 
ENDROOT
BRANCH   1   2
ATOM      2  CB  PHE A  61     -36.813 128.951  11.509  1.00 39.41     0.058 C 
BRANCH   2   3
ATOM      3  CG  PHE A  61     -36.659 128.131  10.250  1.00 39.01    -0.020 A 
ATOM      4  CD2 PHE A  61     -37.672 128.080   9.306  1.00 40.32    -0.004 A 
ATOM      5  CE2 PHE A  61     -37.530 127.323   8.150  1.00 40.20    -0.000 A 
ATOM      6  CZ  PHE A  61     -36.373 126.612   7.923  1.00 40.34    -0.000 A 
ATOM      7  CE1 PHE A  61     -35.356 126.655   8.851  1.00 41.51    -0.000 A 
ATOM      8  CD1 PHE A  61     -35.500 127.406  10.010  1.00 39.94    -0.004 A 
ENDBRANCH   2   3
ENDBRANCH   1   2
END_RES PHE A  61
BEGIN_RES VAL A 134
REMARK  1 active torsions:
REMARK  status: ('A' for Active; 'I' for Inactive)
REMARK    3  A    between atoms: CA   and  CB  
ROOT
ATOM      9  CA  VAL A 134     -29.766 132.051   9.815  1.00 40.75     0.159 C 
ENDROOT
BRANCH   9  10
ATOM     10  CB  VAL A 134     -30.864 132.765   9.009  1.00 40.76     0.029 C 
ATOM     11  CG1 VAL A 134     -31.224 131.966   7.765  1.00 41.76     0.002 C 
ATOM     12  CG2 VAL A 134     -32.099 133.031   9.856  1.00 40.56     0.002 C 
ENDBRANCH   9  10
END_RES VAL A 134
BEGIN_RES TYR A 338
REMARK  3 active torsions:
REMARK  status: ('A' for Active; 'I' for Inactive)
REMARK    4  A    between atoms: CA   and  CB  
REMARK    5  A    between atoms: CB   and  CG  
REMARK    6  A    between atoms: CZ   and  OH  
ROOT
ATOM     13  CA  TYR A 338     -41.631 124.950   6.058  1.00 38.23     0.164 C 
ENDROOT
BRANCH  13  14
ATOM     14  CB  TYR A 338     -41.621 126.456   6.339  1.00 39.15     0.058 C 
BRANCH  14  15
ATOM     15  CG  TYR A 338     -40.400 127.205   5.858  1.00 39.03    -0.020 A 
ATOM     16  CD2 TYR A 338     -40.214 128.534   6.198  1.00 40.65    -0.002 A 
ATOM     17  CE2 TYR A 338     -39.114 129.256   5.761  1.00 40.91     0.024 A 
ATOM     18  CZ  TYR A 338     -38.166 128.646   4.961  1.00 42.33     0.089 A 
ATOM     19  CE1 TYR A 338     -38.327 127.317   4.612  1.00 40.63     0.024 A 
ATOM     20  CD1 TYR A 338     -39.441 126.616   5.048  1.00 39.27    -0.002 A 
BRANCH  18  21
ATOM     21  OH  TYR A 338     -37.075 129.347   4.528  1.00 43.36    -0.359 OA
ATOM     22  HH  TYR A 338     -36.854 130.183   4.922  1.00  0.00     0.217 HD
ENDBRANCH  18  21
ENDBRANCH  14  15
ENDBRANCH  13  14
END_RES TYR A 338
ENDMDL
MODEL 2
REMARK VINA RESULT:    -7.769      0.696      1.044
REMARK INTER + INTRA:         -14.693
REMARK INTER:                 -11.095
REMARK INTRA:                  -3.599
REMARK UNBOUND:                -6.924
REMARK  0 active torsions:
REMARK  status: ('A' for Active; 'I' for Inactive)
REMARK       I    between atoms: C6_6  and  C7_7 
REMARK       I    between atoms: C8_8  and  C9_9 
REMARK       I    between atoms: C10_10  and  C11_11 
REMARK       I    between atoms: C12_16  and  C13_17 
REMARK       I    between atoms: C14_18  and  C15_19 
REMARK       I    between atoms: C16_20  and  C17_21 
REMARK       I    between atoms: C18_22  and  C19_23 
REMARK       I    between atoms: C20_24  and  C21_25 
REMARK       I    between atoms: C22_26  and  C23_27 
REMARK       I    between atoms: C24_28  and  C25_29 
ROOT
HETATM    1  C1  BCR A 610     -34.321 130.795   7.840  1.00 29.59    -0.020 C 
HETATM    2  C2  BCR A 610     -33.135 129.947   8.233  1.00 31.72     0.014 C 
HETATM    3  C3  BCR A 610     -32.545 130.460   9.515  1.00 27.94     0.005 C 
HETATM    4  C4  BCR A 610     -33.586 130.379  10.627  1.00 32.43     0.034 C 
HETATM    5  C5  BCR A 610     -34.936 130.932  10.231  1.00 29.29    -0.077 C 
HETATM    6  C6  BCR A 610     -35.291 131.087   8.965  1.00 25.73    -0.048 C 
HETATM    7  C7  BCR A 610     -36.594 131.734   8.577  1.00 25.66     0.009 C 
HETATM    8  C8  BCR A 610     -36.997 132.853   9.210  1.00 28.04     0.007 C 
HETATM    9  C9  BCR A 610     -38.205 133.599   8.752  1.00 26.85    -0.062 C 
HETATM   10  C10 BCR A 610     -38.453 134.846   9.221  1.00 26.33     0.007 C 
HETATM   11  C11 BCR A 610     -39.596 135.663   8.789  1.00 27.36     0.001 C 
HETATM   12  C33 BCR A 610     -35.871 131.086  11.360  1.00 35.13     0.044 C 
HETATM   13  C31 BCR A 610     -35.023 130.054   6.752  1.00 31.88     0.020 C 
HETATM   14  C32 BCR A 610     -33.796 132.141   7.325  1.00 31.60     0.020 C 
HETATM   15  C34 BCR A 610     -39.096 132.907   7.746  1.00 29.30     0.048 C 
HETATM   16  C12 BCR A 610     -39.783 136.875   9.360  1.00 26.07     0.007 C 
HETATM   17  C13 BCR A 610     -40.899 137.808   9.082  1.00 27.88    -0.062 C 
HETATM   18  C14 BCR A 610     -40.829 139.060   9.634  1.00 26.29     0.007 C 
HETATM   19  C15 BCR A 610     -41.813 140.123   9.387  1.00 24.17     0.001 C 
HETATM   20  C16 BCR A 610     -41.674 141.364   9.878  1.00 25.06     0.001 C 
HETATM   21  C17 BCR A 610     -42.680 142.364   9.532  1.00 23.08     0.007 C 
HETATM   22  C18 BCR A 610     -42.710 143.667   9.938  1.00 25.47    -0.062 C 
HETATM   23  C19 BCR A 610     -43.811 144.569   9.519  1.00 24.27     0.007 C 
HETATM   24  C20 BCR A 610     -44.172 145.661  10.172  1.00 22.34     0.001 C 
HETATM   25  C21 BCR A 610     -45.313 146.484   9.666  1.00 26.05     0.007 C 
HETATM   26  C22 BCR A 610     -45.826 147.572  10.362  1.00 27.30    -0.062 C 
HETATM   27  C23 BCR A 610     -46.996 148.303   9.753  1.00 23.16     0.007 C 
HETATM   28  C24 BCR A 610     -47.637 149.262  10.404  1.00 21.54     0.009 C 
HETATM   29  C25 BCR A 610     -48.822 149.884   9.847  1.00 21.54    -0.048 C 
HETATM   30  C26 BCR A 610     -48.751 150.425   8.608  1.00 20.62    -0.077 C 
HETATM   31  C27 BCR A 610     -49.911 151.118   7.907  1.00 20.11     0.034 C 
HETATM   32  C28 BCR A 610     -51.211 150.775   8.603  1.00 24.80     0.005 C 
HETATM   33  C29 BCR A 610     -51.060 150.863  10.129  1.00 24.65     0.014 C 
HETATM   34  C30 BCR A 610     -50.068 149.867  10.700  1.00 22.24    -0.020 C 
HETATM   35  C35 BCR A 610     -42.053 137.261   8.276  1.00 33.62     0.048 C 
HETATM   36  C36 BCR A 610     -41.649 144.230  10.808  1.00 23.31     0.048 C 
HETATM   37  C37 BCR A 610     -45.201 147.990  11.688  1.00 28.25     0.048 C 
HETATM   38  C38 BCR A 610     -47.466 150.587   7.874  1.00 20.57     0.044 C 
HETATM   39  C39 BCR A 610     -50.591 148.417  10.657  1.00 24.02     0.020 C 
HETATM   40  C40 BCR A 610     -49.750 150.302  12.082  1.00 22.78     0.020 C 
ENDROOT
TORSDOF 10
BEGIN_RES PHE A  61
REMARK  2 active torsions:
REMARK  status: ('A' for Active; 'I' for Inactive)
REMARK    1  A    between atoms: CA   and  CB  
REMARK    2  A    between atoms: CB   and  CG  
ROOT
ATOM      1  CA  PHE A  61     -36.237 128.293  12.768  1.00 39.40     0.164 C 
ENDROOT
BRANCH   1   2
ATOM      2  CB  PHE A  61     -36.813 128.951  11.509  1.00 39.41     0.058 C 
BRANCH   2   3
ATOM      3  CG  PHE A  61     -36.590 128.167  10.238  1.00 39.01    -0.020 A 
ATOM      4  CD2 PHE A  61     -35.394 127.504  10.011  1.00 40.32    -0.004 A 
ATOM      5  CE2 PHE A  61     -35.189 126.786   8.839  1.00 40.20    -0.000 A 
ATOM      6  CZ  PHE A  61     -36.178 126.720   7.884  1.00 40.34    -0.000 A 
ATOM      7  CE1 PHE A  61     -37.373 127.372   8.095  1.00 41.51    -0.000 A 
ATOM      8  CD1 PHE A  61     -37.576 128.095   9.264  1.00 39.94    -0.004 A 
ENDBRANCH   2   3
ENDBRANCH   1   2
END_RES PHE A  61
BEGIN_RES VAL A 134
REMARK  1 active torsions:
REMARK  status: ('A' for Active; 'I' for Inactive)
REMARK    3  A    between atoms: CA   and  CB  
ROOT
ATOM      9  CA  VAL A 134     -29.766 132.051   9.815  1.00 40.75     0.159 C 
ENDROOT
BRANCH   9  10
ATOM     10  CB  VAL A 134     -30.864 132.765   9.009  1.00 40.76     0.029 C 
ATOM     11  CG1 VAL A 134     -31.918 133.350   9.937  1.00 41.76     0.002 C 
ATOM     12  CG2 VAL A 134     -30.285 133.840   8.102  1.00 40.56     0.002 C 
ENDBRANCH   9  10
END_RES VAL A 134
BEGIN_RES TYR A 338
REMARK  3 active torsions:
REMARK  status: ('A' for Active; 'I' for Inactive)
REMARK    4  A    between atoms: CA   and  CB  
REMARK    5  A    between atoms: CB   and  CG  
REMARK    6  A    between atoms: CZ   and  OH  
ROOT
ATOM     13  CA  TYR A 338     -41.631 124.950   6.058  1.00 38.23     0.164 C 
ENDROOT
BRANCH  13  14
ATOM     14  CB  TYR A 338     -41.621 126.456   6.339  1.00 39.15     0.058 C 
BRANCH  14  15
ATOM     15  CG  TYR A 338     -40.391 127.202   5.874  1.00 39.03    -0.020 A 
ATOM     16  CD2 TYR A 338     -40.208 128.531   6.215  1.00 40.65    -0.002 A 
ATOM     17  CE2 TYR A 338     -39.100 129.250   5.793  1.00 40.91     0.024 A 
ATOM     18  CZ  TYR A 338     -38.142 128.637   5.008  1.00 42.33     0.089 A 
ATOM     19  CE1 TYR A 338     -38.301 127.308   4.658  1.00 40.63     0.024 A 
ATOM     20  CD1 TYR A 338     -39.422 126.610   5.079  1.00 39.27    -0.002 A 
BRANCH  18  21
ATOM     21  OH  TYR A 338     -37.044 129.335   4.590  1.00 43.36    -0.359 OA
ATOM     22  HH  TYR A 338     -36.209 128.896   4.479  1.00  0.00     0.217 HD
ENDBRANCH  18  21
ENDBRANCH  14  15
ENDBRANCH  13  14
END_RES TYR A 338
ENDMDL
MODEL 3
REMARK VINA RESULT:    -7.698      3.200      4.976
REMARK INTER + INTRA:         -14.622
REMARK INTER:                 -12.128
REMARK INTRA:                  -2.494
REMARK UNBOUND:                -6.924
REMARK  0 active torsions:
REMARK  status: ('A' for Active; 'I' for Inactive)
REMARK       I    between atoms: C6_6  and  C7_7 
REMARK       I    between atoms: C8_8  and  C9_9 
REMARK       I    between atoms: C10_10  and  C11_11 
REMARK       I    between atoms: C12_16  and  C13_17 
REMARK       I    between atoms: C14_18  and  C15_19 
REMARK       I    between atoms: C16_20  and  C17_21 
REMARK       I    between atoms: C18_22  and  C19_23 
REMARK       I    between atoms: C20_24  and  C21_25 
REMARK       I    between atoms: C22_26  and  C23_27 
REMARK       I    between atoms: C24_28  and  C25_29 
ROOT
HETATM    1  C1  BCR A 610     -34.042 126.697   6.729  1.00 29.59    -0.020 C 
HETATM    2  C2  BCR A 610     -33.237 125.850   5.772  1.00 31.72     0.014 C 
HETATM    3  C3  BCR A 610     -32.837 126.670   4.579  1.00 27.94     0.005 C 
HETATM    4  C4  BCR A 610     -31.972 127.844   5.030  1.00 32.43     0.034 C 
HETATM    5  C5  BCR A 610     -32.543 128.595   6.212  1.00 29.29    -0.077 C 
HETATM    6  C6  BCR A 610     -33.456 128.064   7.011  1.00 25.73    -0.048 C 
HETATM    7  C7  BCR A 610     -34.097 128.852   8.122  1.00 25.66     0.009 C 
HETATM    8  C8  BCR A 610     -34.500 130.118   7.896  1.00 28.04     0.007 C 
HETATM    9  C9  BCR A 610     -35.268 130.873   8.927  1.00 26.85    -0.062 C 
HETATM   10  C10 BCR A 610     -35.887 132.033   8.601  1.00 26.33     0.007 C 
HETATM   11  C11 BCR A 610     -36.697 132.815   9.546  1.00 27.36     0.001 C 
HETATM   12  C33 BCR A 610     -31.854 129.865   6.500  1.00 35.13     0.044 C 
HETATM   13  C31 BCR A 610     -34.134 125.919   7.999  1.00 31.88     0.020 C 
HETATM   14  C32 BCR A 610     -35.435 126.909   6.123  1.00 31.60     0.020 C 
HETATM   15  C34 BCR A 610     -35.330 130.270  10.312  1.00 29.30     0.048 C 
HETATM   16  C12 BCR A 610     -37.227 133.989   9.133  1.00 26.07     0.007 C 
HETATM   17  C13 BCR A 610     -38.028 134.924   9.958  1.00 27.88    -0.062 C 
HETATM   18  C14 BCR A 610     -38.621 135.981   9.320  1.00 26.29     0.007 C 
HETATM   19  C15 BCR A 610     -39.508 136.946   9.982  1.00 24.17     0.001 C 
HETATM   20  C16 BCR A 610     -40.139 137.925   9.313  1.00 25.06     0.001 C 
HETATM   21  C17 BCR A 610     -41.041 138.801  10.054  1.00 23.08     0.007 C 
HETATM   22  C18 BCR A 610     -41.760 139.847   9.550  1.00 25.47    -0.062 C 
HETATM   23  C19 BCR A 610     -42.630 140.666  10.430  1.00 24.27     0.007 C 
HETATM   24  C20 BCR A 610     -43.003 141.907  10.166  1.00 22.34     0.001 C 
HETATM   25  C21 BCR A 610     -43.865 142.645  11.139  1.00 26.05     0.007 C 
HETATM   26  C22 BCR A 610     -44.196 143.986  10.989  1.00 27.30    -0.062 C 
HETATM   27  C23 BCR A 610     -45.054 144.619  12.056  1.00 23.16     0.007 C 
HETATM   28  C24 BCR A 610     -45.306 145.919  12.072  1.00 21.54     0.009 C 
HETATM   29  C25 BCR A 610     -46.047 146.526  13.159  1.00 21.54    -0.048 C 
HETATM   30  C26 BCR A 610     -47.266 146.030  13.473  1.00 20.62    -0.077 C 
HETATM   31  C27 BCR A 610     -48.156 146.577  14.581  1.00 20.11     0.034 C 
HETATM   32  C28 BCR A 610     -47.343 147.460  15.504  1.00 24.80     0.005 C 
HETATM   33  C29 BCR A 610     -46.430 148.401  14.703  1.00 24.65     0.014 C 
HETATM   34  C30 BCR A 610     -45.383 147.676  13.880  1.00 22.24    -0.020 C 
HETATM   35  C35 BCR A 610     -38.048 134.664  11.446  1.00 33.62     0.048 C 
HETATM   36  C36 BCR A 610     -41.703 140.202   8.111  1.00 23.31     0.048 C 
HETATM   37  C37 BCR A 610     -43.699 144.761   9.774  1.00 28.25     0.048 C 
HETATM   38  C38 BCR A 610     -47.965 145.023  12.629  1.00 20.57     0.044 C 
HETATM   39  C39 BCR A 610     -44.274 147.048  14.748  1.00 24.02     0.020 C 
HETATM   40  C40 BCR A 610     -44.838 148.649  12.901  1.00 22.78     0.020 C 
ENDROOT
TORSDOF 10
BEGIN_RES PHE A  61
REMARK  2 active torsions:
REMARK  status: ('A' for Active; 'I' for Inactive)
REMARK    1  A    between atoms: CA   and  CB  
REMARK    2  A    between atoms: CB   and  CG  
ROOT
ATOM      1  CA  PHE A  61     -36.237 128.293  12.768  1.00 39.40     0.164 C 
ENDROOT
BRANCH   1   2
ATOM      2  CB  PHE A  61     -36.813 128.951  11.509  1.00 39.41     0.058 C 
BRANCH   2   3
ATOM      3  CG  PHE A  61     -37.066 127.997  10.366  1.00 39.01    -0.020 A 
ATOM      4  CD2 PHE A  61     -36.396 126.786  10.289  1.00 40.32    -0.004 A 
ATOM      5  CE2 PHE A  61     -36.627 125.910   9.235  1.00 40.20    -0.000 A 
ATOM      6  CZ  PHE A  61     -37.532 126.234   8.250  1.00 40.34    -0.000 A 
ATOM      7  CE1 PHE A  61     -38.207 127.433   8.313  1.00 41.51    -0.000 A 
ATOM      8  CD1 PHE A  61     -37.971 128.311   9.363  1.00 39.94    -0.004 A 
ENDBRANCH   2   3
ENDBRANCH   1   2
END_RES PHE A  61
BEGIN_RES VAL A 134
REMARK  1 active torsions:
REMARK  status: ('A' for Active; 'I' for Inactive)
REMARK    3  A    between atoms: CA   and  CB  
ROOT
ATOM      9  CA  VAL A 134     -29.766 132.051   9.815  1.00 40.75     0.159 C 
ENDROOT
BRANCH   9  10
ATOM     10  CB  VAL A 134     -30.864 132.765   9.009  1.00 40.76     0.029 C 
ATOM     11  CG1 VAL A 134     -30.868 132.287   7.564  1.00 41.76     0.002 C 
ATOM     12  CG2 VAL A 134     -32.235 132.581   9.642  1.00 40.56     0.002 C 
ENDBRANCH   9  10
END_RES VAL A 134
BEGIN_RES TYR A 338
REMARK  3 active torsions:
REMARK  status: ('A' for Active; 'I' for Inactive)
REMARK    4  A    between atoms: CA   and  CB  
REMARK    5  A    between atoms: CB   and  CG  
REMARK    6  A    between atoms: CZ   and  OH  
ROOT
ATOM     13  CA  TYR A 338     -41.631 124.950   6.058  1.00 38.23     0.164 C 
ENDROOT
BRANCH  13  14
ATOM     14  CB  TYR A 338     -41.621 126.456   6.339  1.00 39.15     0.058 C 
BRANCH  14  15
ATOM     15  CG  TYR A 338     -40.410 127.209   5.838  1.00 39.03    -0.020 A 
ATOM     16  CD2 TYR A 338     -40.231 128.543   6.161  1.00 40.65    -0.002 A 
ATOM     17  CE2 TYR A 338     -39.141 129.269   5.707  1.00 40.91     0.024 A 
ATOM     18  CZ  TYR A 338     -38.195 128.656   4.906  1.00 42.33     0.089 A 
ATOM     19  CE1 TYR A 338     -38.349 127.322   4.574  1.00 40.63     0.024 A 
ATOM     20  CD1 TYR A 338     -39.453 126.618   5.027  1.00 39.27    -0.002 A 
BRANCH  18  21
ATOM     21  OH  TYR A 338     -37.113 129.361   4.456  1.00 43.36    -0.359 OA
ATOM     22  HH  TYR A 338     -36.402 129.578   5.046  1.00  0.00     0.217 HD
ENDBRANCH  18  21
ENDBRANCH  14  15
ENDBRANCH  13  14
END_RES TYR A 338
ENDMDL
MODEL 4
REMARK VINA RESULT:    -6.455      2.272      4.323
REMARK INTER + INTRA:         -13.379
REMARK INTER:                 -11.147
REMARK INTRA:                  -2.232
REMARK UNBOUND:                -6.924
REMARK  0 active torsions:
REMARK  status: ('A' for Active; 'I' for Inactive)
REMARK       I    between atoms: C6_6  and  C7_7 
REMARK       I    between atoms: C8_8  and  C9_9 
REMARK       I    between atoms: C10_10  and  C11_11 
REMARK       I    between atoms: C12_16  and  C13_17 
REMARK       I    between atoms: C14_18  and  C15_19 
REMARK       I    between atoms: C16_20  and  C17_21 
REMARK       I    between atoms: C18_22  and  C19_23 
REMARK       I    between atoms: C20_24  and  C21_25 
REMARK       I    between atoms: C22_26  and  C23_27 
REMARK       I    between atoms: C24_28  and  C25_29 
ROOT
HETATM    1  C1  BCR A 610     -33.935 127.142   7.101  1.00 29.59    -0.020 C 
HETATM    2  C2  BCR A 610     -32.966 126.335   6.270  1.00 31.72     0.014 C 
HETATM    3  C3  BCR A 610     -32.616 127.089   5.020  1.00 27.94     0.005 C 
HETATM    4  C4  BCR A 610     -31.951 128.412   5.387  1.00 32.43     0.034 C 
HETATM    5  C5  BCR A 610     -32.689 129.180   6.461  1.00 29.29    -0.077 C 
HETATM    6  C6  BCR A 610     -33.563 128.600   7.269  1.00 25.73    -0.048 C 
HETATM    7  C7  BCR A 610     -34.370 129.388   8.266  1.00 25.66     0.009 C 
HETATM    8  C8  BCR A 610     -34.932 130.555   7.896  1.00 28.04     0.007 C 
HETATM    9  C9  BCR A 610     -35.857 131.284   8.811  1.00 26.85    -0.062 C 
HETATM   10  C10 BCR A 610     -36.612 132.307   8.343  1.00 26.33     0.007 C 
HETATM   11  C11 BCR A 610     -37.576 133.049   9.167  1.00 27.36     0.001 C 
HETATM   12  C33 BCR A 610     -32.202 130.558   6.649  1.00 35.13     0.044 C 
HETATM   13  C31 BCR A 610     -33.990 126.481   8.438  1.00 31.88     0.020 C 
HETATM   14  C32 BCR A 610     -35.307 127.093   6.417  1.00 31.60     0.020 C 
HETATM   15  C34 BCR A 610     -35.913 130.811  10.246  1.00 29.30     0.048 C 
HETATM   16  C12 BCR A 610     -38.241 134.090   8.616  1.00 26.07     0.007 C 
HETATM   17  C13 BCR A 610     -39.210 134.972   9.306  1.00 27.88    -0.062 C 
HETATM   18  C14 BCR A 610     -39.908 135.867   8.539  1.00 26.29     0.007 C 
HETATM   19  C15 BCR A 610     -40.958 136.752   9.062  1.00 24.17     0.001 C 
HETATM   20  C16 BCR A 610     -41.679 137.562   8.271  1.00 25.06     0.001 C 
HETATM   21  C17 BCR A 610     -42.736 138.364   8.879  1.00 23.08     0.007 C 
HETATM   22  C18 BCR A 610     -43.564 139.243   8.241  1.00 25.47    -0.062 C 
HETATM   23  C19 BCR A 610     -44.588 140.007   8.995  1.00 24.27     0.007 C 
HETATM   24  C20 BCR A 610     -45.116 141.151   8.591  1.00 22.34     0.001 C 
HETATM   25  C21 BCR A 610     -46.127 141.843   9.446  1.00 26.05     0.007 C 
HETATM   26  C22 BCR A 610     -46.633 143.103   9.147  1.00 27.30    -0.062 C 
HETATM   27  C23 BCR A 610     -47.631 143.702  10.106  1.00 23.16     0.007 C 
HETATM   28  C24 BCR A 610     -48.062 144.947   9.980  1.00 21.54     0.009 C 
HETATM   29  C25 BCR A 610     -48.942 145.540  10.967  1.00 21.54    -0.048 C 
HETATM   30  C26 BCR A 610     -50.096 144.905  11.276  1.00 20.62    -0.077 C 
HETATM   31  C27 BCR A 610     -51.116 145.418  12.283  1.00 20.11     0.034 C 
HETATM   32  C28 BCR A 610     -50.490 146.492  13.147  1.00 24.80     0.005 C 
HETATM   33  C29 BCR A 610     -49.672 147.476  12.296  1.00 24.65     0.014 C 
HETATM   34  C30 BCR A 610     -48.488 146.836  11.596  1.00 22.24    -0.020 C 
HETATM   35  C35 BCR A 610     -39.279 134.853  10.810  1.00 33.62     0.048 C 
HETATM   36  C36 BCR A 610     -43.474 139.466   6.778  1.00 23.31     0.048 C 
HETATM   37  C37 BCR A 610     -46.180 143.824   7.883  1.00 28.25     0.048 C 
HETATM   38  C38 BCR A 610     -50.598 143.732  10.508  1.00 20.57     0.044 C 
HETATM   39  C39 BCR A 610     -47.355 146.460  12.570  1.00 24.02     0.020 C 
HETATM   40  C40 BCR A 610     -48.029 147.782  10.549  1.00 22.78     0.020 C 
ENDROOT
TORSDOF 10
BEGIN_RES PHE A  61
REMARK  2 active torsions:
REMARK  status: ('A' for Active; 'I' for Inactive)
REMARK    1  A    between atoms: CA   and  CB  
REMARK    2  A    between atoms: CB   and  CG  
ROOT
ATOM      1  CA  PHE A  61     -36.237 128.293  12.768  1.00 39.40     0.164 C 
ENDROOT
BRANCH   1   2
ATOM      2  CB  PHE A  61     -36.813 128.951  11.509  1.00 39.41     0.058 C 
BRANCH   2   3
ATOM      3  CG  PHE A  61     -37.080 127.995  10.372  1.00 39.01    -0.020 A 
ATOM      4  CD2 PHE A  61     -37.982 128.315   9.369  1.00 40.32    -0.004 A 
ATOM      5  CE2 PHE A  61     -38.229 127.432   8.325  1.00 40.20    -0.000 A 
ATOM      6  CZ  PHE A  61     -37.575 126.223   8.269  1.00 40.34    -0.000 A 
ATOM      7  CE1 PHE A  61     -36.673 125.891   9.256  1.00 41.51    -0.000 A 
ATOM      8  CD1 PHE A  61     -36.431 126.770  10.304  1.00 39.94    -0.004 A 
ENDBRANCH   2   3
ENDBRANCH   1   2
END_RES PHE A  61
BEGIN_RES VAL A 134
REMARK  1 active torsions:
REMARK  status: ('A' for Active; 'I' for Inactive)
REMARK    3  A    between atoms: CA   and  CB  
ROOT
ATOM      9  CA  VAL A 134     -29.766 132.051   9.815  1.00 40.75     0.159 C 
ENDROOT
BRANCH   9  10
ATOM     10  CB  VAL A 134     -30.864 132.765   9.009  1.00 40.76     0.029 C 
ATOM     11  CG1 VAL A 134     -30.834 132.325   7.552  1.00 41.76     0.002 C 
ATOM     12  CG2 VAL A 134     -32.241 132.539   9.614  1.00 40.56     0.002 C 
ENDBRANCH   9  10
END_RES VAL A 134
BEGIN_RES TYR A 338
REMARK  3 active torsions:
REMARK  status: ('A' for Active; 'I' for Inactive)
REMARK    4  A    between atoms: CA   and  CB  
REMARK    5  A    between atoms: CB   and  CG  
REMARK    6  A    between atoms: CZ   and  OH  
ROOT
ATOM     13  CA  TYR A 338     -41.631 124.950   6.058  1.00 38.23     0.164 C 
ENDROOT
BRANCH  13  14
ATOM     14  CB  TYR A 338     -41.621 126.456   6.339  1.00 39.15     0.058 C 
BRANCH  14  15
ATOM     15  CG  TYR A 338     -40.403 127.206   5.851  1.00 39.03    -0.020 A 
ATOM     16  CD2 TYR A 338     -40.232 128.544   6.165  1.00 40.65    -0.002 A 
ATOM     17  CE2 TYR A 338     -39.135 129.267   5.721  1.00 40.91     0.024 A 
ATOM     18  CZ  TYR A 338     -38.177 128.650   4.940  1.00 42.33     0.089 A 
ATOM     19  CE1 TYR A 338     -38.324 127.312   4.616  1.00 40.63     0.024 A 
ATOM     20  CD1 TYR A 338     -39.434 126.610   5.059  1.00 39.27    -0.002 A 
BRANCH  18  21
ATOM     21  OH  TYR A 338     -37.090 129.352   4.500  1.00 43.36    -0.359 OA
ATOM     22  HH  TYR A 338     -37.171 129.959   3.773  1.00  0.00     0.217 HD
ENDBRANCH  18  21
ENDBRANCH  14  15
ENDBRANCH  13  14
END_RES TYR A 338
ENDMDL
MODEL 5
REMARK VINA RESULT:    -6.363      2.186      4.034
REMARK INTER + INTRA:         -13.287
REMARK INTER:                 -10.819
REMARK INTRA:                  -2.468
REMARK UNBOUND:                -6.924
REMARK  0 active torsions:
REMARK  status: ('A' for Active; 'I' for Inactive)
REMARK       I    between atoms: C6_6  and  C7_7 
REMARK       I    between atoms: C8_8  and  C9_9 
REMARK       I    between atoms: C10_10  and  C11_11 
REMARK       I    between atoms: C12_16  and  C13_17 
REMARK       I    between atoms: C14_18  and  C15_19 
REMARK       I    between atoms: C16_20  and  C17_21 
REMARK       I    between atoms: C18_22  and  C19_23 
REMARK       I    between atoms: C20_24  and  C21_25 
REMARK       I    between atoms: C22_26  and  C23_27 
REMARK       I    between atoms: C24_28  and  C25_29 
ROOT
HETATM    1  C1  BCR A 610     -34.453 127.373   5.598  1.00 29.59    -0.020 C 
HETATM    2  C2  BCR A 610     -33.167 126.702   5.178  1.00 31.72     0.014 C 
HETATM    3  C3  BCR A 610     -32.066 127.719   5.094  1.00 27.94     0.005 C 
HETATM    4  C4  BCR A 610     -31.852 128.358   6.464  1.00 32.43     0.034 C 
HETATM    5  C5  BCR A 610     -33.135 128.798   7.130  1.00 29.29    -0.077 C 
HETATM    6  C6  BCR A 610     -34.318 128.325   6.767  1.00 25.73    -0.048 C 
HETATM    7  C7  BCR A 610     -35.599 128.844   7.363  1.00 25.66     0.009 C 
HETATM    8  C8  BCR A 610     -35.770 130.170   7.526  1.00 28.04     0.007 C 
HETATM    9  C9  BCR A 610     -37.081 130.724   7.974  1.00 26.85    -0.062 C 
HETATM   10  C10 BCR A 610     -37.323 132.055   7.888  1.00 26.33     0.007 C 
HETATM   11  C11 BCR A 610     -38.600 132.674   8.268  1.00 27.36     0.001 C 
HETATM   12  C33 BCR A 610     -32.929 129.631   8.329  1.00 35.13     0.044 C 
HETATM   13  C31 BCR A 610     -35.401 126.277   5.951  1.00 31.88     0.020 C 
HETATM   14  C32 BCR A 610     -34.981 128.182   4.406  1.00 31.60     0.020 C 
HETATM   15  C34 BCR A 610     -38.100 129.736   8.495  1.00 29.30     0.048 C 
HETATM   16  C12 BCR A 610     -38.720 134.020   8.194  1.00 26.07     0.007 C 
HETATM   17  C13 BCR A 610     -39.910 134.813   8.577  1.00 27.88    -0.062 C 
HETATM   18  C14 BCR A 610     -39.904 136.149   8.274  1.00 26.29     0.007 C 
HETATM   19  C15 BCR A 610     -41.038 137.050   8.515  1.00 24.17     0.001 C 
HETATM   20  C16 BCR A 610     -41.032 138.338   8.134  1.00 25.06     0.001 C 
HETATM   21  C17 BCR A 610     -42.229 139.138   8.373  1.00 23.08     0.007 C 
HETATM   22  C18 BCR A 610     -42.406 140.456   8.062  1.00 25.47    -0.062 C 
HETATM   23  C19 BCR A 610     -43.679 141.148   8.381  1.00 24.27     0.007 C 
HETATM   24  C20 BCR A 610     -43.801 142.457   8.531  1.00 22.34     0.001 C 
HETATM   25  C21 BCR A 610     -45.133 143.043   8.873  1.00 26.05     0.007 C 
HETATM   26  C22 BCR A 610     -45.313 144.389   9.164  1.00 27.30    -0.062 C 
HETATM   27  C23 BCR A 610     -46.705 144.848   9.519  1.00 23.16     0.007 C 
HETATM   28  C24 BCR A 610     -46.949 146.079   9.943  1.00 21.54     0.009 C 
HETATM   29  C25 BCR A 610     -48.274 146.474  10.377  1.00 21.54    -0.048 C 
HETATM   30  C26 BCR A 610     -49.317 146.287   9.535  1.00 20.62    -0.077 C 
HETATM   31  C27 BCR A 610     -50.757 146.664   9.855  1.00 20.11     0.034 C 
HETATM   32  C28 BCR A 610     -50.908 146.900  11.343  1.00 24.80     0.005 C 
HETATM   33  C29 BCR A 610     -49.743 147.739  11.889  1.00 24.65     0.014 C 
HETATM   34  C30 BCR A 610     -48.393 147.059  11.764  1.00 22.24    -0.020 C 
HETATM   35  C35 BCR A 610     -40.991 134.084   9.340  1.00 33.62     0.048 C 
HETATM   36  C36 BCR A 610     -41.340 141.242   7.395  1.00 23.31     0.048 C 
HETATM   37  C37 BCR A 610     -44.126 145.344   9.111  1.00 28.25     0.048 C 
HETATM   38  C38 BCR A 610     -49.140 145.880   8.114  1.00 20.57     0.044 C 
HETATM   39  C39 BCR A 610     -48.232 145.876  12.739  1.00 24.02     0.020 C 
HETATM   40  C40 BCR A 610     -47.354 148.097  11.974  1.00 22.78     0.020 C 
ENDROOT
TORSDOF 10
BEGIN_RES PHE A  61
REMARK  2 active torsions:
REMARK  status: ('A' for Active; 'I' for Inactive)
REMARK    1  A    between atoms: CA   and  CB  
REMARK    2  A    between atoms: CB   and  CG  
ROOT
ATOM      1  CA  PHE A  61     -36.237 128.293  12.768  1.00 39.40     0.164 C 
ENDROOT
BRANCH   1   2
ATOM      2  CB  PHE A  61     -36.813 128.951  11.509  1.00 39.41     0.058 C 
BRANCH   2   3
ATOM      3  CG  PHE A  61     -36.388 130.385  11.305  1.00 39.01    -0.020 A 
ATOM      4  CD2 PHE A  61     -35.114 130.693  10.854  1.00 40.32    -0.004 A 
ATOM      5  CE2 PHE A  61     -34.723 132.014  10.670  1.00 40.20    -0.000 A 
ATOM      6  CZ  PHE A  61     -35.603 133.040  10.929  1.00 40.34    -0.000 A 
ATOM      7  CE1 PHE A  61     -36.873 132.751  11.375  1.00 41.51    -0.000 A 
ATOM      8  CD1 PHE A  61     -37.262 131.431  11.566  1.00 39.94    -0.004 A 
ENDBRANCH   2   3
ENDBRANCH   1   2
END_RES PHE A  61
BEGIN_RES VAL A 134
REMARK  1 active torsions:
REMARK  status: ('A' for Active; 'I' for Inactive)
REMARK    3  A    between atoms: CA   and  CB  
ROOT
ATOM      9  CA  VAL A 134     -29.766 132.051   9.815  1.00 40.75     0.159 C 
ENDROOT
BRANCH   9  10
ATOM     10  CB  VAL A 134     -30.864 132.765   9.009  1.00 40.76     0.029 C 
ATOM     11  CG1 VAL A 134     -31.168 132.007   7.725  1.00 41.76     0.002 C 
ATOM     12  CG2 VAL A 134     -32.128 132.961   9.833  1.00 40.56     0.002 C 
ENDBRANCH   9  10
END_RES VAL A 134
BEGIN_RES TYR A 338
REMARK  3 active torsions:
REMARK  status: ('A' for Active; 'I' for Inactive)
REMARK    4  A    between atoms: CA   and  CB  
REMARK    5  A    between atoms: CB   and  CG  
REMARK    6  A    between atoms: CZ   and  OH  
ROOT
ATOM     13  CA  TYR A 338     -41.631 124.950   6.058  1.00 38.23     0.164 C 
ENDROOT
BRANCH  13  14
ATOM     14  CB  TYR A 338     -41.621 126.456   6.339  1.00 39.15     0.058 C 
BRANCH  14  15
ATOM     15  CG  TYR A 338     -40.419 127.212   5.822  1.00 39.03    -0.020 A 
ATOM     16  CD2 TYR A 338     -40.282 128.567   6.072  1.00 40.65    -0.002 A 
ATOM     17  CE2 TYR A 338     -39.201 129.295   5.600  1.00 40.91     0.024 A 
ATOM     18  CZ  TYR A 338     -38.222 128.664   4.855  1.00 42.33     0.089 A 
ATOM     19  CE1 TYR A 338     -38.334 127.310   4.596  1.00 40.63     0.024 A 
ATOM     20  CD1 TYR A 338     -39.430 126.602   5.066  1.00 39.27    -0.002 A 
BRANCH  18  21
ATOM     21  OH  TYR A 338     -37.149 129.371   4.388  1.00 43.36    -0.359 OA
ATOM     22  HH  TYR A 338     -36.378 128.918   4.067  1.00  0.00     0.217 HD
ENDBRANCH  18  21
ENDBRANCH  14  15
ENDBRANCH  13  14
END_RES TYR A 338
ENDMDL
MODEL 6
REMARK VINA RESULT:    -6.262      2.105     16.566
REMARK INTER + INTRA:         -13.186
REMARK INTER:                 -10.834
REMARK INTRA:                  -2.352
REMARK UNBOUND:                -6.924
REMARK  0 active torsions:
REMARK  status: ('A' for Active; 'I' for Inactive)
REMARK       I    between atoms: C6_6  and  C7_7 
REMARK       I    between atoms: C8_8  and  C9_9 
REMARK       I    between atoms: C10_10  and  C11_11 
REMARK       I    between atoms: C12_16  and  C13_17 
REMARK       I    between atoms: C14_18  and  C15_19 
REMARK       I    between atoms: C16_20  and  C17_21 
REMARK       I    between atoms: C18_22  and  C19_23 
REMARK       I    between atoms: C20_24  and  C21_25 
REMARK       I    between atoms: C22_26  and  C23_27 
REMARK       I    between atoms: C24_28  and  C25_29 
ROOT
HETATM    1  C1  BCR A 610     -50.908 146.091   8.886  1.00 29.59    -0.020 C 
HETATM    2  C2  BCR A 610     -51.858 146.991   9.639  1.00 31.72     0.014 C 
HETATM    3  C3  BCR A 610     -51.510 146.991  11.100  1.00 27.94     0.005 C 
HETATM    4  C4  BCR A 610     -50.091 147.520  11.289  1.00 32.43     0.034 C 
HETATM    5  C5  BCR A 610     -49.084 146.895  10.350  1.00 29.29    -0.077 C 
HETATM    6  C6  BCR A 610     -49.447 146.278   9.235  1.00 25.73    -0.048 C 
HETATM    7  C7  BCR A 610     -48.451 145.568   8.358  1.00 25.66     0.009 C 
HETATM    8  C8  BCR A 610     -47.506 144.788   8.917  1.00 28.04     0.007 C 
HETATM    9  C9  BCR A 610     -46.600 143.957   8.073  1.00 26.85    -0.062 C 
HETATM   10  C10 BCR A 610     -45.837 142.991   8.639  1.00 26.33     0.007 C 
HETATM   11  C11 BCR A 610     -44.951 142.103   7.874  1.00 27.36     0.001 C 
HETATM   12  C33 BCR A 610     -47.684 147.209  10.682  1.00 35.13     0.044 C 
HETATM   13  C31 BCR A 610     -51.119 146.380   7.437  1.00 31.88     0.020 C 
HETATM   14  C32 BCR A 610     -51.275 144.636   9.206  1.00 31.60     0.020 C 
HETATM   15  C34 BCR A 610     -46.602 144.237   6.587  1.00 29.30     0.048 C 
HETATM   16  C12 BCR A 610     -44.189 141.207   8.543  1.00 26.07     0.007 C 
HETATM   17  C13 BCR A 610     -43.213 140.270   7.942  1.00 27.88    -0.062 C 
HETATM   18  C14 BCR A 610     -42.659 139.322   8.762  1.00 26.29     0.007 C 
HETATM   19  C15 BCR A 610     -41.739 138.274   8.301  1.00 24.17     0.001 C 
HETATM   20  C16 BCR A 610     -41.276 137.310   9.113  1.00 25.06     0.001 C 
HETATM   21  C17 BCR A 610     -40.408 136.283   8.547  1.00 23.08     0.007 C 
HETATM   22  C18 BCR A 610     -39.840 135.235   9.212  1.00 25.47    -0.062 C 
HETATM   23  C19 BCR A 610     -38.959 134.272   8.506  1.00 24.27     0.007 C 
HETATM   24  C20 BCR A 610     -38.044 133.523   9.098  1.00 22.34     0.001 C 
HETATM   25  C21 BCR A 610     -37.199 132.601   8.280  1.00 26.05     0.007 C 
HETATM   26  C22 BCR A 610     -36.139 131.877   8.812  1.00 27.30    -0.062 C 
HETATM   27  C23 BCR A 610     -35.349 131.000   7.873  1.00 23.16     0.007 C 
HETATM   28  C24 BCR A 610     -34.243 130.382   8.257  1.00 21.54     0.009 C 
HETATM   29  C25 BCR A 610     -33.440 129.627   7.316  1.00 21.54    -0.048 C 
HETATM   30  C26 BCR A 610     -34.033 128.652   6.589  1.00 20.62    -0.077 C 
HETATM   31  C27 BCR A 610     -33.310 127.776   5.574  1.00 20.11     0.034 C 
HETATM   32  C28 BCR A 610     -31.974 128.396   5.221  1.00 24.80     0.005 C 
HETATM   33  C29 BCR A 610     -31.247 128.893   6.480  1.00 24.65     0.014 C 
HETATM   34  C30 BCR A 610     -31.981 130.004   7.207  1.00 22.24    -0.020 C 
HETATM   35  C35 BCR A 610     -42.859 140.500   6.492  1.00 33.62     0.048 C 
HETATM   36  C36 BCR A 610     -40.081 135.017  10.660  1.00 23.31     0.048 C 
HETATM   37  C37 BCR A 610     -35.819 131.979  10.298  1.00 28.25     0.048 C 
HETATM   38  C38 BCR A 610     -35.422 128.186   6.852  1.00 20.57     0.044 C 
HETATM   39  C39 BCR A 610     -31.944 131.341   6.441  1.00 24.02     0.020 C 
HETATM   40  C40 BCR A 610     -31.379 130.120   8.558  1.00 22.78     0.020 C 
ENDROOT
TORSDOF 10
BEGIN_RES PHE A  61
REMARK  2 active torsions:
REMARK  status: ('A' for Active; 'I' for Inactive)
REMARK    1  A    between atoms: CA   and  CB  
REMARK    2  A    between atoms: CB   and  CG  
ROOT
ATOM      1  CA  PHE A  61     -36.237 128.293  12.768  1.00 39.40     0.164 C 
ENDROOT
BRANCH   1   2
ATOM      2  CB  PHE A  61     -36.813 128.951  11.509  1.00 39.41     0.058 C 
BRANCH   2   3
ATOM      3  CG  PHE A  61     -36.887 128.040  10.307  1.00 39.01    -0.020 A 
ATOM      4  CD2 PHE A  61     -37.964 128.096   9.437  1.00 40.32    -0.004 A 
ATOM      5  CE2 PHE A  61     -38.032 127.255   8.333  1.00 40.20    -0.000 A 
ATOM      6  CZ  PHE A  61     -37.023 126.353   8.085  1.00 40.34    -0.000 A 
ATOM      7  CE1 PHE A  61     -35.944 126.286   8.939  1.00 41.51    -0.000 A 
ATOM      8  CD1 PHE A  61     -35.879 127.122  10.046  1.00 39.94    -0.004 A 
ENDBRANCH   2   3
ENDBRANCH   1   2
END_RES PHE A  61
BEGIN_RES VAL A 134
REMARK  1 active torsions:
REMARK  status: ('A' for Active; 'I' for Inactive)
REMARK    3  A    between atoms: CA   and  CB  
ROOT
ATOM      9  CA  VAL A 134     -29.766 132.051   9.815  1.00 40.75     0.159 C 
ENDROOT
BRANCH   9  10
ATOM     10  CB  VAL A 134     -30.864 132.765   9.009  1.00 40.76     0.029 C 
ATOM     11  CG1 VAL A 134     -32.107 132.975   9.861  1.00 41.76     0.002 C 
ATOM     12  CG2 VAL A 134     -30.372 134.086   8.437  1.00 40.56     0.002 C 
ENDBRANCH   9  10
END_RES VAL A 134
BEGIN_RES TYR A 338
REMARK  3 active torsions:
REMARK  status: ('A' for Active; 'I' for Inactive)
REMARK    4  A    between atoms: CA   and  CB  
REMARK    5  A    between atoms: CB   and  CG  
REMARK    6  A    between atoms: CZ   and  OH  
ROOT
ATOM     13  CA  TYR A 338     -41.631 124.950   6.058  1.00 38.23     0.164 C 
ENDROOT
BRANCH  13  14
ATOM     14  CB  TYR A 338     -41.621 126.456   6.339  1.00 39.15     0.058 C 
BRANCH  14  15
ATOM     15  CG  TYR A 338     -40.402 127.206   5.852  1.00 39.03    -0.020 A 
ATOM     16  CD2 TYR A 338     -40.229 128.542   6.170  1.00 40.65    -0.002 A 
ATOM     17  CE2 TYR A 338     -39.132 129.265   5.728  1.00 40.91     0.024 A 
ATOM     18  CZ  TYR A 338     -38.174 128.649   4.944  1.00 42.33     0.089 A 
ATOM     19  CE1 TYR A 338     -38.323 127.313   4.617  1.00 40.63     0.024 A 
ATOM     20  CD1 TYR A 338     -39.434 126.611   5.058  1.00 39.27    -0.002 A 
BRANCH  18  21
ATOM     21  OH  TYR A 338     -37.086 129.351   4.506  1.00 43.36    -0.359 OA
ATOM     22  HH  TYR A 338     -36.279 128.899   4.288  1.00  0.00     0.217 HD
ENDBRANCH  18  21
ENDBRANCH  14  15
ENDBRANCH  13  14
END_RES TYR A 338
ENDMDL
