MODEL 1
REMARK VINA RESULT:    -6.335      0.000      0.000
REMARK INTER + INTRA:         -10.882
REMARK INTER:                  -6.335
REMARK INTRA:                  -4.548
REMARK UNBOUND:                -4.548
REMARK  0 active torsions:
REMARK  status: ('A' for Active; 'I' for Inactive)
REMARK       I    between atoms: C6_6  and  C7_7 
REMARK       I    between atoms: C8_8  and  C9_9 
REMARK       I    between atoms: C10_10  and  C11_11 
REMARK       I    between atoms: C12_16  and  C13_17 
REMARK       I    between atoms: C14_18  and  C15_19 
REMARK       I    between atoms: C16_20  and  C17_21 
REMARK       I    between atoms: C18_22  and  C19_23 
REMARK       I    between atoms: C20_24  and  C21_25 
REMARK       I    between atoms: C22_26  and  C23_27 
REMARK       I    between atoms: C24_28  and  C25_29 
ROOT
HETATM    1  C1  BCR K 103     -50.260 144.981   8.566  1.00 31.33    -0.020 C 
HETATM    2  C2  BCR K 103     -51.665 145.453   8.938  1.00 30.10     0.014 C 
HETATM    3  C3  BCR K 103     -51.825 145.674  10.437  1.00 28.21     0.005 C 
HETATM    4  C4  BCR K 103     -50.835 146.703  10.931  1.00 35.14     0.034 C 
HETATM    5  C5  BCR K 103     -49.429 146.341  10.518  1.00 40.40    -0.077 C 
HETATM    6  C6  BCR K 103     -49.170 145.562   9.447  1.00 35.44    -0.048 C 
HETATM    7  C7  BCR K 103     -47.806 145.180   9.004  1.00 31.58     0.009 C 
HETATM    8  C8  BCR K 103     -46.938 144.472   9.733  1.00 28.28     0.007 C 
HETATM    9  C9  BCR K 103     -45.645 144.106   9.134  1.00 28.29    -0.062 C 
HETATM   10  C10 BCR K 103     -45.014 143.003   9.592  1.00 35.18     0.007 C 
HETATM   11  C11 BCR K 103     -43.758 142.471   9.047  1.00 34.91     0.001 C 
HETATM   12  C33 BCR K 103     -48.337 146.911  11.375  1.00 42.08     0.044 C 
HETATM   13  C31 BCR K 103     -49.964 145.388   7.129  1.00 32.49     0.020 C 
HETATM   14  C32 BCR K 103     -50.166 143.458   8.672  1.00 30.89     0.020 C 
HETATM   15  C34 BCR K 103     -45.097 144.939   8.020  1.00 32.35     0.048 C 
HETATM   16  C12 BCR K 103     -43.365 141.267   9.480  1.00 43.00     0.007 C 
HETATM   17  C13 BCR K 103     -42.180 140.527   8.988  1.00 27.42    -0.062 C 
HETATM   18  C14 BCR K 103     -41.897 139.317   9.518  1.00 27.03     0.007 C 
HETATM   19  C15 BCR K 103     -40.788 138.466   9.058  1.00 26.89     0.001 C 
HETATM   20  C16 BCR K 103     -40.479 137.304   9.655  1.00 26.54     0.001 C 
HETATM   21  C17 BCR K 103     -39.387 136.466   9.128  1.00 26.43     0.007 C 
HETATM   22  C18 BCR K 103     -39.010 135.275   9.642  1.00 31.95    -0.062 C 
HETATM   23  C19 BCR K 103     -37.907 134.542   8.965  1.00 31.47     0.007 C 
HETATM   24  C20 BCR K 103     -37.614 133.252   9.175  1.00 26.23     0.001 C 
HETATM   25  C21 BCR K 103     -36.518 132.608   8.432  1.00 25.64     0.007 C 
HETATM   26  C22 BCR K 103     -36.389 131.252   8.358  1.00 26.67    -0.062 C 
HETATM   27  C23 BCR K 103     -35.382 130.700   7.640  1.00 34.76     0.007 C 
HETATM   28  C24 BCR K 103     -35.168 129.376   7.559  1.00 34.12     0.009 C 
HETATM   29  C25 BCR K 103     -34.067 128.761   6.754  1.00 32.06    -0.048 C 
HETATM   30  C26 BCR K 103     -32.772 128.903   7.115  1.00 27.37    -0.077 C 
HETATM   31  C27 BCR K 103     -31.618 128.293   6.347  1.00 31.26     0.034 C 
HETATM   32  C28 BCR K 103     -32.024 127.785   4.968  1.00 25.08     0.005 C 
HETATM   33  C29 BCR K 103     -33.357 127.056   5.015  1.00 31.88     0.014 C 
HETATM   34  C30 BCR K 103     -34.477 127.947   5.530  1.00 32.84    -0.020 C 
HETATM   35  C35 BCR K 103     -41.374 141.098   7.856  1.00 27.76     0.048 C 
HETATM   36  C36 BCR K 103     -39.677 134.704  10.871  1.00 25.82     0.048 C 
HETATM   37  C37 BCR K 103     -37.366 130.357   9.059  1.00 29.75     0.048 C 
HETATM   38  C38 BCR K 103     -32.374 129.682   8.333  1.00 27.96     0.044 C 
HETATM   39  C39 BCR K 103     -35.624 127.033   5.928  1.00 28.93     0.020 C 
HETATM   40  C40 BCR K 103     -34.976 128.841   4.399  1.00 24.62     0.020 C 
ENDROOT
TORSDOF 10
BEGIN_RES PHE A  61
REMARK  2 active torsions:
REMARK  status: ('A' for Active; 'I' for Inactive)
REMARK    1  A    between atoms: CA   and  CB  
REMARK    2  A    between atoms: CB   and  CG  
ROOT
ATOM      1  CA  PHE A  61     -36.237 128.293  12.768  1.00 39.40     0.164 C 
ENDROOT
BRANCH   1   2
ATOM      2  CB  PHE A  61     -36.813 128.951  11.509  1.00 39.41     0.058 C 
BRANCH   2   3
ATOM      3  CG  PHE A  61     -36.909 128.034  10.313  1.00 39.01    -0.020 A 
ATOM      4  CD2 PHE A  61     -38.029 128.042   9.497  1.00 40.32    -0.004 A 
ATOM      5  CE2 PHE A  61     -38.117 127.195   8.400  1.00 40.20    -0.000 A 
ATOM      6  CZ  PHE A  61     -37.085 126.334   8.103  1.00 40.34    -0.000 A 
ATOM      7  CE1 PHE A  61     -35.964 126.315   8.903  1.00 41.51    -0.000 A 
ATOM      8  CD1 PHE A  61     -35.878 127.156  10.005  1.00 39.94    -0.004 A 
ENDBRANCH   2   3
ENDBRANCH   1   2
END_RES PHE A  61
BEGIN_RES VAL A 134
REMARK  1 active torsions:
REMARK  status: ('A' for Active; 'I' for Inactive)
REMARK    3  A    between atoms: CA   and  CB  
ROOT
ATOM      9  CA  VAL A 134     -29.766 132.051   9.815  1.00 40.75     0.159 C 
ENDROOT
BRANCH   9  10
ATOM     10  CB  VAL A 134     -30.864 132.765   9.009  1.00 40.76     0.029 C 
ATOM     11  CG1 VAL A 134     -30.953 132.197   7.600  1.00 41.76     0.002 C 
ATOM     12  CG2 VAL A 134     -32.213 132.689   9.708  1.00 40.56     0.002 C 
ENDBRANCH   9  10
END_RES VAL A 134
BEGIN_RES TYR A 338
REMARK  3 active torsions:
REMARK  status: ('A' for Active; 'I' for Inactive)
REMARK    4  A    between atoms: CA   and  CB  
REMARK    5  A    between atoms: CB   and  CG  
REMARK    6  A    between atoms: CZ   and  OH  
ROOT
ATOM     13  CA  TYR A 338     -41.631 124.950   6.058  1.00 38.23     0.164 C 
ENDROOT
BRANCH  13  14
ATOM     14  CB  TYR A 338     -41.621 126.456   6.339  1.00 39.15     0.058 C 
BRANCH  14  15
ATOM     15  CG  TYR A 338     -40.425 127.214   5.811  1.00 39.03    -0.020 A 
ATOM     16  CD2 TYR A 338     -40.228 128.541   6.155  1.00 40.65    -0.002 A 
ATOM     17  CE2 TYR A 338     -39.151 129.271   5.677  1.00 40.91     0.024 A 
ATOM     18  CZ  TYR A 338     -38.238 128.672   4.829  1.00 42.33     0.089 A 
ATOM     19  CE1 TYR A 338     -38.411 127.345   4.474  1.00 40.63     0.024 A 
ATOM     20  CD1 TYR A 338     -39.502 126.636   4.953  1.00 39.27    -0.002 A 
BRANCH  18  21
ATOM     21  OH  TYR A 338     -37.170 129.381   4.355  1.00 43.36    -0.359 OA
ATOM     22  HH  TYR A 338     -36.545 128.972   3.767  1.00  0.00     0.217 HD
ENDBRANCH  18  21
ENDBRANCH  14  15
ENDBRANCH  13  14
END_RES TYR A 338
ENDMDL
MODEL 2
REMARK VINA RESULT:    -5.235      0.516     16.123
REMARK INTER + INTRA:          -9.782
REMARK INTER:                  -6.148
REMARK INTRA:                  -3.634
REMARK UNBOUND:                -4.548
REMARK  0 active torsions:
REMARK  status: ('A' for Active; 'I' for Inactive)
REMARK       I    between atoms: C6_6  and  C7_7 
REMARK       I    between atoms: C8_8  and  C9_9 
REMARK       I    between atoms: C10_10  and  C11_11 
REMARK       I    between atoms: C12_16  and  C13_17 
REMARK       I    between atoms: C14_18  and  C15_19 
REMARK       I    between atoms: C16_20  and  C17_21 
REMARK       I    between atoms: C18_22  and  C19_23 
REMARK       I    between atoms: C20_24  and  C21_25 
REMARK       I    between atoms: C22_26  and  C23_27 
REMARK       I    between atoms: C24_28  and  C25_29 
ROOT
HETATM    1  C1  BCR K 103     -34.493 128.020   5.989  1.00 31.33    -0.020 C 
HETATM    2  C2  BCR K 103     -33.583 127.182   5.092  1.00 30.10     0.014 C 
HETATM    3  C3  BCR K 103     -32.241 127.856   4.834  1.00 28.21     0.005 C 
HETATM    4  C4  BCR K 103     -31.516 128.111   6.135  1.00 35.14     0.034 C 
HETATM    5  C5  BCR K 103     -32.395 128.862   7.105  1.00 40.40    -0.077 C 
HETATM    6  C6  BCR K 103     -33.742 128.820   7.038  1.00 35.44    -0.048 C 
HETATM    7  C7  BCR K 103     -34.648 129.541   7.968  1.00 31.58     0.009 C 
HETATM    8  C8  BCR K 103     -34.693 130.869   8.111  1.00 28.28     0.007 C 
HETATM    9  C9  BCR K 103     -35.692 131.448   9.021  1.00 28.29    -0.062 C 
HETATM   10  C10 BCR K 103     -36.116 132.710   8.791  1.00 35.18     0.007 C 
HETATM   11  C11 BCR K 103     -37.158 133.398   9.566  1.00 34.91     0.001 C 
HETATM   12  C33 BCR K 103     -31.671 129.655   8.154  1.00 42.08     0.044 C 
HETATM   13  C31 BCR K 103     -35.463 127.097   6.713  1.00 32.49     0.020 C 
HETATM   14  C32 BCR K 103     -35.296 129.014   5.149  1.00 30.89     0.020 C 
HETATM   15  C34 BCR K 103     -36.230 130.613  10.137  1.00 32.35     0.048 C 
HETATM   16  C12 BCR K 103     -37.599 134.570   9.092  1.00 43.00     0.007 C 
HETATM   17  C13 BCR K 103     -38.700 135.368   9.680  1.00 27.42    -0.062 C 
HETATM   18  C14 BCR K 103     -39.040 136.539   9.099  1.00 27.03     0.007 C 
HETATM   19  C15 BCR K 103     -40.160 137.378   9.554  1.00 26.89     0.001 C 
HETATM   20  C16 BCR K 103     -40.428 138.576   9.011  1.00 26.54     0.001 C 
HETATM   21  C17 BCR K 103     -41.589 139.358   9.473  1.00 26.43     0.007 C 
HETATM   22  C18 BCR K 103     -41.954 140.562   8.982  1.00 31.95    -0.062 C 
HETATM   23  C19 BCR K 103     -43.177 141.199   9.539  1.00 31.47     0.007 C 
HETATM   24  C20 BCR K 103     -43.817 142.233   8.975  1.00 26.23     0.001 C 
HETATM   25  C21 BCR K 103     -45.039 142.777   9.592  1.00 25.64     0.007 C 
HETATM   26  C22 BCR K 103     -45.898 143.587   8.910  1.00 26.67    -0.062 C 
HETATM   27  C23 BCR K 103     -47.025 144.042   9.506  1.00 34.76     0.007 C 
HETATM   28  C24 BCR K 103     -47.893 144.878   8.910  1.00 34.12     0.009 C 
HETATM   29  C25 BCR K 103     -49.148 145.371   9.559  1.00 32.06    -0.048 C 
HETATM   30  C26 BCR K 103     -49.106 146.230  10.602  1.00 27.37    -0.077 C 
HETATM   31  C27 BCR K 103     -50.343 146.771  11.289  1.00 31.26     0.034 C 
HETATM   32  C28 BCR K 103     -51.612 146.017  10.909  1.00 25.08     0.005 C 
HETATM   33  C29 BCR K 103     -51.658 145.718   9.420  1.00 31.88     0.014 C 
HETATM   34  C30 BCR K 103     -50.469 144.883   8.970  1.00 32.84    -0.020 C 
HETATM   35  C35 BCR K 103     -39.465 134.817  10.848  1.00 27.76     0.048 C 
HETATM   36  C36 BCR K 103     -41.148 141.248   7.904  1.00 25.82     0.048 C 
HETATM   37  C37 BCR K 103     -45.612 143.972   7.489  1.00 29.75     0.048 C 
HETATM   38  C38 BCR K 103     -47.808 146.727  11.163  1.00 27.96     0.044 C 
HETATM   39  C39 BCR K 103     -50.389 145.004   7.457  1.00 28.93     0.020 C 
HETATM   40  C40 BCR K 103     -50.725 143.416   9.298  1.00 24.62     0.020 C 
ENDROOT
TORSDOF 10
BEGIN_RES PHE A  61
REMARK  2 active torsions:
REMARK  status: ('A' for Active; 'I' for Inactive)
REMARK    1  A    between atoms: CA   and  CB  
REMARK    2  A    between atoms: CB   and  CG  
ROOT
ATOM      1  CA  PHE A  61     -36.237 128.293  12.768  1.00 39.40     0.164 C 
ENDROOT
BRANCH   1   2
ATOM      2  CB  PHE A  61     -36.813 128.951  11.509  1.00 39.41     0.058 C 
BRANCH   2   3
ATOM      3  CG  PHE A  61     -36.989 128.013  10.339  1.00 39.01    -0.020 A 
ATOM      4  CD2 PHE A  61     -36.111 126.960  10.133  1.00 40.32    -0.004 A 
ATOM      5  CE2 PHE A  61     -36.271 126.099   9.054  1.00 40.20    -0.000 A 
ATOM      6  CZ  PHE A  61     -37.313 126.279   8.173  1.00 40.34    -0.000 A 
ATOM      7  CE1 PHE A  61     -38.196 127.319   8.365  1.00 41.51    -0.000 A 
ATOM      8  CD1 PHE A  61     -38.031 128.183   9.439  1.00 39.94    -0.004 A 
ENDBRANCH   2   3
ENDBRANCH   1   2
END_RES PHE A  61
BEGIN_RES VAL A 134
REMARK  1 active torsions:
REMARK  status: ('A' for Active; 'I' for Inactive)
REMARK    3  A    between atoms: CA   and  CB  
ROOT
ATOM      9  CA  VAL A 134     -29.766 132.051   9.815  1.00 40.75     0.159 C 
ENDROOT
BRANCH   9  10
ATOM     10  CB  VAL A 134     -30.864 132.765   9.009  1.00 40.76     0.029 C 
ATOM     11  CG1 VAL A 134     -30.939 132.211   7.594  1.00 41.76     0.002 C 
ATOM     12  CG2 VAL A 134     -32.217 132.672   9.698  1.00 40.56     0.002 C 
ENDBRANCH   9  10
END_RES VAL A 134
BEGIN_RES TYR A 338
REMARK  3 active torsions:
REMARK  status: ('A' for Active; 'I' for Inactive)
REMARK    4  A    between atoms: CA   and  CB  
REMARK    5  A    between atoms: CB   and  CG  
REMARK    6  A    between atoms: CZ   and  OH  
ROOT
ATOM     13  CA  TYR A 338     -41.631 124.950   6.058  1.00 38.23     0.164 C 
ENDROOT
BRANCH  13  14
ATOM     14  CB  TYR A 338     -41.621 126.456   6.339  1.00 39.15     0.058 C 
BRANCH  14  15
ATOM     15  CG  TYR A 338     -40.428 127.215   5.806  1.00 39.03    -0.020 A 
ATOM     16  CD2 TYR A 338     -40.260 128.557   6.104  1.00 40.65    -0.002 A 
ATOM     17  CE2 TYR A 338     -39.187 129.287   5.619  1.00 40.91     0.024 A 
ATOM     18  CZ  TYR A 338     -38.247 128.674   4.812  1.00 42.33     0.089 A 
ATOM     19  CE1 TYR A 338     -38.390 127.332   4.504  1.00 40.63     0.024 A 
ATOM     20  CD1 TYR A 338     -39.478 126.622   4.988  1.00 39.27    -0.002 A 
BRANCH  18  21
ATOM     21  OH  TYR A 338     -37.182 129.383   4.332  1.00 43.36    -0.359 OA
ATOM     22  HH  TYR A 338     -36.465 128.938   3.895  1.00  0.00     0.217 HD
ENDBRANCH  18  21
ENDBRANCH  14  15
ENDBRANCH  13  14
END_RES TYR A 338
ENDMDL
MODEL 3
REMARK VINA RESULT:    -5.143      1.114      1.822
REMARK INTER + INTRA:          -9.691
REMARK INTER:                  -7.188
REMARK INTRA:                  -2.503
REMARK UNBOUND:                -4.548
REMARK  0 active torsions:
REMARK  status: ('A' for Active; 'I' for Inactive)
REMARK       I    between atoms: C6_6  and  C7_7 
REMARK       I    between atoms: C8_8  and  C9_9 
REMARK       I    between atoms: C10_10  and  C11_11 
REMARK       I    between atoms: C12_16  and  C13_17 
REMARK       I    between atoms: C14_18  and  C15_19 
REMARK       I    between atoms: C16_20  and  C17_21 
REMARK       I    between atoms: C18_22  and  C19_23 
REMARK       I    between atoms: C20_24  and  C21_25 
REMARK       I    between atoms: C22_26  and  C23_27 
REMARK       I    between atoms: C24_28  and  C25_29 
ROOT
HETATM    1  C1  BCR K 103     -50.221 144.680   8.399  1.00 31.33    -0.020 C 
HETATM    2  C2  BCR K 103     -51.593 145.201   8.823  1.00 30.10     0.014 C 
HETATM    3  C3  BCR K 103     -51.681 145.450  10.324  1.00 28.21     0.005 C 
HETATM    4  C4  BCR K 103     -50.640 146.455  10.758  1.00 35.14     0.034 C 
HETATM    5  C5  BCR K 103     -49.265 146.043  10.290  1.00 40.40    -0.077 C 
HETATM    6  C6  BCR K 103     -49.077 145.240   9.223  1.00 35.44    -0.048 C 
HETATM    7  C7  BCR K 103     -47.745 144.809   8.727  1.00 31.58     0.009 C 
HETATM    8  C8  BCR K 103     -46.869 144.086   9.429  1.00 28.28     0.007 C 
HETATM    9  C9  BCR K 103     -45.615 143.671   8.782  1.00 28.29    -0.062 C 
HETATM   10  C10 BCR K 103     -44.998 142.556   9.230  1.00 35.18     0.007 C 
HETATM   11  C11 BCR K 103     -43.784 141.976   8.641  1.00 34.91     0.001 C 
HETATM   12  C33 BCR K 103     -48.119 146.593  11.089  1.00 42.08     0.044 C 
HETATM   13  C31 BCR K 103     -49.976 145.055   6.944  1.00 32.49     0.020 C 
HETATM   14  C32 BCR K 103     -50.169 143.157   8.526  1.00 30.89     0.020 C 
HETATM   15  C34 BCR K 103     -45.091 144.468   7.631  1.00 32.35     0.048 C 
HETATM   16  C12 BCR K 103     -43.409 140.767   9.077  1.00 43.00     0.007 C 
HETATM   17  C13 BCR K 103     -42.270 139.983   8.546  1.00 27.42    -0.062 C 
HETATM   18  C14 BCR K 103     -42.001 138.773   9.084  1.00 27.03     0.007 C 
HETATM   19  C15 BCR K 103     -40.940 137.881   8.591  1.00 26.89     0.001 C 
HETATM   20  C16 BCR K 103     -40.641 136.719   9.194  1.00 26.54     0.001 C 
HETATM   21  C17 BCR K 103     -39.599 135.840   8.634  1.00 26.43     0.007 C 
HETATM   22  C18 BCR K 103     -39.236 134.646   9.152  1.00 31.95    -0.062 C 
HETATM   23  C19 BCR K 103     -38.187 133.868   8.439  1.00 31.47     0.007 C 
HETATM   24  C20 BCR K 103     -37.925 132.572   8.659  1.00 26.23     0.001 C 
HETATM   25  C21 BCR K 103     -36.882 131.883   7.880  1.00 25.64     0.007 C 
HETATM   26  C22 BCR K 103     -36.798 130.523   7.823  1.00 26.67    -0.062 C 
HETATM   27  C23 BCR K 103     -35.841 129.929   7.071  1.00 34.76     0.007 C 
HETATM   28  C24 BCR K 103     -35.671 128.598   7.004  1.00 34.12     0.009 C 
HETATM   29  C25 BCR K 103     -34.626 127.936   6.163  1.00 32.06    -0.048 C 
HETATM   30  C26 BCR K 103     -33.312 128.043   6.465  1.00 27.37    -0.077 C 
HETATM   31  C27 BCR K 103     -32.212 127.386   5.658  1.00 31.26     0.034 C 
HETATM   32  C28 BCR K 103     -32.694 126.869   4.307  1.00 25.08     0.005 C 
HETATM   33  C29 BCR K 103     -34.045 126.183   4.423  1.00 31.88     0.014 C 
HETATM   34  C30 BCR K 103     -35.113 127.117   4.971  1.00 32.84    -0.020 C 
HETATM   35  C35 BCR K 103     -41.498 140.511   7.371  1.00 27.76     0.048 C 
HETATM   36  C36 BCR K 103     -39.866 134.114  10.417  1.00 25.82     0.048 C 
HETATM   37  C37 BCR K 103     -37.770 129.670   8.581  1.00 29.75     0.048 C 
HETATM   38  C38 BCR K 103     -32.838 128.829   7.651  1.00 27.96     0.044 C 
HETATM   39  C39 BCR K 103     -36.270 126.245   5.434  1.00 28.93     0.020 C 
HETATM   40  C40 BCR K 103     -35.633 128.008   3.848  1.00 24.62     0.020 C 
ENDROOT
TORSDOF 10
BEGIN_RES PHE A  61
REMARK  2 active torsions:
REMARK  status: ('A' for Active; 'I' for Inactive)
REMARK    1  A    between atoms: CA   and  CB  
REMARK    2  A    between atoms: CB   and  CG  
ROOT
ATOM      1  CA  PHE A  61     -36.237 128.293  12.768  1.00 39.40     0.164 C 
ENDROOT
BRANCH   1   2
ATOM      2  CB  PHE A  61     -36.813 128.951  11.509  1.00 39.41     0.058 C 
BRANCH   2   3
ATOM      3  CG  PHE A  61     -36.118 130.227  11.098  1.00 39.01    -0.020 A 
ATOM      4  CD2 PHE A  61     -36.684 131.464  11.367  1.00 40.32    -0.004 A 
ATOM      5  CE2 PHE A  61     -36.045 132.637  10.986  1.00 40.20    -0.000 A 
ATOM      6  CZ  PHE A  61     -34.833 132.588  10.336  1.00 40.34    -0.000 A 
ATOM      7  CE1 PHE A  61     -34.257 131.367  10.063  1.00 41.51    -0.000 A 
ATOM      8  CD1 PHE A  61     -34.898 130.193  10.438  1.00 39.94    -0.004 A 
ENDBRANCH   2   3
ENDBRANCH   1   2
END_RES PHE A  61
BEGIN_RES VAL A 134
REMARK  1 active torsions:
REMARK  status: ('A' for Active; 'I' for Inactive)
REMARK    3  A    between atoms: CA   and  CB  
ROOT
ATOM      9  CA  VAL A 134     -29.766 132.051   9.815  1.00 40.75     0.159 C 
ENDROOT
BRANCH   9  10
ATOM     10  CB  VAL A 134     -30.864 132.765   9.009  1.00 40.76     0.029 C 
ATOM     11  CG1 VAL A 134     -31.472 131.825   7.978  1.00 41.76     0.002 C 
ATOM     12  CG2 VAL A 134     -31.940 133.342   9.916  1.00 40.56     0.002 C 
ENDBRANCH   9  10
END_RES VAL A 134
BEGIN_RES TYR A 338
REMARK  3 active torsions:
REMARK  status: ('A' for Active; 'I' for Inactive)
REMARK    4  A    between atoms: CA   and  CB  
REMARK    5  A    between atoms: CB   and  CG  
REMARK    6  A    between atoms: CZ   and  OH  
ROOT
ATOM     13  CA  TYR A 338     -41.631 124.950   6.058  1.00 38.23     0.164 C 
ENDROOT
BRANCH  13  14
ATOM     14  CB  TYR A 338     -41.621 126.456   6.339  1.00 39.15     0.058 C 
BRANCH  14  15
ATOM     15  CG  TYR A 338     -40.464 127.227   5.745  1.00 39.03    -0.020 A 
ATOM     16  CD2 TYR A 338     -40.213 128.529   6.141  1.00 40.65    -0.002 A 
ATOM     17  CE2 TYR A 338     -39.171 129.271   5.606  1.00 40.91     0.024 A 
ATOM     18  CZ  TYR A 338     -38.350 128.708   4.647  1.00 42.33     0.089 A 
ATOM     19  CE1 TYR A 338     -38.578 127.405   4.239  1.00 40.63     0.024 A 
ATOM     20  CD1 TYR A 338     -39.633 126.685   4.777  1.00 39.27    -0.002 A 
BRANCH  18  21
ATOM     21  OH  TYR A 338     -37.316 129.428   4.116  1.00 43.36    -0.359 OA
ATOM     22  HH  TYR A 338     -36.507 129.537   4.602  1.00  0.00     0.217 HD
ENDBRANCH  18  21
ENDBRANCH  14  15
ENDBRANCH  13  14
END_RES TYR A 338
ENDMDL
MODEL 4
REMARK VINA RESULT:    -4.366      1.703      2.004
REMARK INTER + INTRA:          -8.914
REMARK INTER:                  -7.229
REMARK INTRA:                  -1.685
REMARK UNBOUND:                -4.548
REMARK  0 active torsions:
REMARK  status: ('A' for Active; 'I' for Inactive)
REMARK       I    between atoms: C6_6  and  C7_7 
REMARK       I    between atoms: C8_8  and  C9_9 
REMARK       I    between atoms: C10_10  and  C11_11 
REMARK       I    between atoms: C12_16  and  C13_17 
REMARK       I    between atoms: C14_18  and  C15_19 
REMARK       I    between atoms: C16_20  and  C17_21 
REMARK       I    between atoms: C18_22  and  C19_23 
REMARK       I    between atoms: C20_24  and  C21_25 
REMARK       I    between atoms: C22_26  and  C23_27 
REMARK       I    between atoms: C24_28  and  C25_29 
ROOT
HETATM    1  C1  BCR K 103     -50.474 142.896  12.376  1.00 31.33    -0.020 C 
HETATM    2  C2  BCR K 103     -51.557 143.438  13.308  1.00 30.10     0.014 C 
HETATM    3  C3  BCR K 103     -50.986 144.328  14.405  1.00 28.21     0.005 C 
HETATM    4  C4  BCR K 103     -50.248 145.503  13.806  1.00 35.14     0.034 C 
HETATM    5  C5  BCR K 103     -49.219 145.039  12.805  1.00 40.40    -0.077 C 
HETATM    6  C6  BCR K 103     -49.322 143.859  12.158  1.00 35.44    -0.048 C 
HETATM    7  C7  BCR K 103     -48.335 143.362  11.165  1.00 31.58     0.009 C 
HETATM    8  C8  BCR K 103     -47.051 143.108  11.431  1.00 28.28     0.007 C 
HETATM    9  C9  BCR K 103     -46.206 142.550  10.363  1.00 28.29    -0.062 C 
HETATM   10  C10 BCR K 103     -45.131 141.812  10.714  1.00 35.18     0.007 C 
HETATM   11  C11 BCR K 103     -44.237 141.131   9.768  1.00 34.91     0.001 C 
HETATM   12  C33 BCR K 103     -48.074 145.981  12.571  1.00 42.08     0.044 C 
HETATM   13  C31 BCR K 103     -51.093 142.595  11.018  1.00 32.49     0.020 C 
HETATM   14  C32 BCR K 103     -49.884 141.604  12.942  1.00 30.89     0.020 C 
HETATM   15  C34 BCR K 103     -46.586 142.784   8.937  1.00 32.35     0.048 C 
HETATM   16  C12 BCR K 103     -43.336 140.283  10.279  1.00 43.00     0.007 C 
HETATM   17  C13 BCR K 103     -42.411 139.441   9.486  1.00 27.42    -0.062 C 
HETATM   18  C14 BCR K 103     -41.546 138.630  10.134  1.00 27.03     0.007 C 
HETATM   19  C15 BCR K 103     -40.632 137.702   9.450  1.00 26.89     0.001 C 
HETATM   20  C16 BCR K 103     -39.727 136.965  10.114  1.00 26.54     0.001 C 
HETATM   21  C17 BCR K 103     -38.865 136.017   9.387  1.00 26.43     0.007 C 
HETATM   22  C18 BCR K 103     -37.938 135.218   9.960  1.00 31.95    -0.062 C 
HETATM   23  C19 BCR K 103     -37.176 134.293   9.081  1.00 31.47     0.007 C 
HETATM   24  C20 BCR K 103     -36.442 133.261   9.521  1.00 26.23     0.001 C 
HETATM   25  C21 BCR K 103     -35.746 132.383   8.566  1.00 25.64     0.007 C 
HETATM   26  C22 BCR K 103     -35.270 131.156   8.921  1.00 26.67    -0.062 C 
HETATM   27  C23 BCR K 103     -34.661 130.368   8.004  1.00 34.76     0.007 C 
HETATM   28  C24 BCR K 103     -34.129 129.168   8.294  1.00 34.12     0.009 C 
HETATM   29  C25 BCR K 103     -33.469 128.287   7.281  1.00 32.06    -0.048 C 
HETATM   30  C26 BCR K 103     -32.285 128.626   6.723  1.00 27.37    -0.077 C 
HETATM   31  C27 BCR K 103     -31.565 127.768   5.703  1.00 31.26     0.034 C 
HETATM   32  C28 BCR K 103     -32.443 126.661   5.132  1.00 25.08     0.005 C 
HETATM   33  C29 BCR K 103     -33.271 125.992   6.216  1.00 31.88     0.014 C 
HETATM   34  C30 BCR K 103     -34.178 126.981   6.932  1.00 32.84    -0.020 C 
HETATM   35  C35 BCR K 103     -42.513 139.445   7.988  1.00 27.76     0.048 C 
HETATM   36  C36 BCR K 103     -37.675 135.264  11.447  1.00 25.82     0.048 C 
HETATM   37  C37 BCR K 103     -35.427 130.658  10.327  1.00 29.75     0.048 C 
HETATM   38  C38 BCR K 103     -31.578 129.897   7.086  1.00 27.96     0.044 C 
HETATM   39  C39 BCR K 103     -34.622 126.320   8.227  1.00 28.93     0.020 C 
HETATM   40  C40 BCR K 103     -35.428 127.224   6.092  1.00 24.62     0.020 C 
ENDROOT
TORSDOF 10
BEGIN_RES PHE A  61
REMARK  2 active torsions:
REMARK  status: ('A' for Active; 'I' for Inactive)
REMARK    1  A    between atoms: CA   and  CB  
REMARK    2  A    between atoms: CB   and  CG  
ROOT
ATOM      1  CA  PHE A  61     -36.237 128.293  12.768  1.00 39.40     0.164 C 
ENDROOT
BRANCH   1   2
ATOM      2  CB  PHE A  61     -36.813 128.951  11.509  1.00 39.41     0.058 C 
BRANCH   2   3
ATOM      3  CG  PHE A  61     -37.108 127.990  10.382  1.00 39.01    -0.020 A 
ATOM      4  CD2 PHE A  61     -37.977 128.337   9.360  1.00 40.32    -0.004 A 
ATOM      5  CE2 PHE A  61     -38.250 127.451   8.325  1.00 40.20    -0.000 A 
ATOM      6  CZ  PHE A  61     -37.654 126.211   8.299  1.00 40.34    -0.000 A 
ATOM      7  CE1 PHE A  61     -36.786 125.852   9.306  1.00 41.51    -0.000 A 
ATOM      8  CD1 PHE A  61     -36.518 126.735  10.344  1.00 39.94    -0.004 A 
ENDBRANCH   2   3
ENDBRANCH   1   2
END_RES PHE A  61
BEGIN_RES VAL A 134
REMARK  1 active torsions:
REMARK  status: ('A' for Active; 'I' for Inactive)
REMARK    3  A    between atoms: CA   and  CB  
ROOT
ATOM      9  CA  VAL A 134     -29.766 132.051   9.815  1.00 40.75     0.159 C 
ENDROOT
BRANCH   9  10
ATOM     10  CB  VAL A 134     -30.864 132.765   9.009  1.00 40.76     0.029 C 
ATOM     11  CG1 VAL A 134     -30.875 132.280   7.567  1.00 41.76     0.002 C 
ATOM     12  CG2 VAL A 134     -32.233 132.590   9.648  1.00 40.56     0.002 C 
ENDBRANCH   9  10
END_RES VAL A 134
BEGIN_RES TYR A 338
REMARK  3 active torsions:
REMARK  status: ('A' for Active; 'I' for Inactive)
REMARK    4  A    between atoms: CA   and  CB  
REMARK    5  A    between atoms: CB   and  CG  
REMARK    6  A    between atoms: CZ   and  OH  
ROOT
ATOM     13  CA  TYR A 338     -41.631 124.950   6.058  1.00 38.23     0.164 C 
ENDROOT
BRANCH  13  14
ATOM     14  CB  TYR A 338     -41.621 126.456   6.339  1.00 39.15     0.058 C 
BRANCH  14  15
ATOM     15  CG  TYR A 338     -40.414 127.210   5.831  1.00 39.03    -0.020 A 
ATOM     16  CD2 TYR A 338     -40.247 128.551   6.134  1.00 40.65    -0.002 A 
ATOM     17  CE2 TYR A 338     -39.160 129.277   5.672  1.00 40.91     0.024 A 
ATOM     18  CZ  TYR A 338     -38.207 128.660   4.884  1.00 42.33     0.089 A 
ATOM     19  CE1 TYR A 338     -38.349 127.320   4.572  1.00 40.63     0.024 A 
ATOM     20  CD1 TYR A 338     -39.450 126.614   5.033  1.00 39.27    -0.002 A 
BRANCH  18  21
ATOM     21  OH  TYR A 338     -37.129 129.365   4.427  1.00 43.36    -0.359 OA
ATOM     22  HH  TYR A 338     -36.410 129.576   5.011  1.00  0.00     0.217 HD
ENDBRANCH  18  21
ENDBRANCH  14  15
ENDBRANCH  13  14
END_RES TYR A 338
ENDMDL
