MODEL 1
REMARK VINA RESULT:    -9.475      0.000      0.000
REMARK INTER + INTRA:         -15.899
REMARK INTER:                  -9.475
REMARK INTRA:                  -6.424
REMARK UNBOUND:                -6.424
REMARK  0 active torsions:
REMARK  status: ('A' for Active; 'I' for Inactive)
REMARK       I    between atoms: C6_6  and  C7_7 
REMARK       I    between atoms: C8_8  and  C9_9 
REMARK       I    between atoms: C10_10  and  C11_11 
REMARK       I    between atoms: C12_16  and  C13_17 
REMARK       I    between atoms: C14_18  and  C15_19 
REMARK       I    between atoms: C16_20  and  C17_21 
REMARK       I    between atoms: C18_22  and  C19_23 
REMARK       I    between atoms: C20_24  and  C21_25 
REMARK       I    between atoms: C22_26  and  C23_27 
REMARK       I    between atoms: C24_28  and  C25_29 
ROOT
HETATM    1  C1  BCR B 618     -34.973 130.679   8.136  1.00 40.46    -0.020 C 
HETATM    2  C2  BCR B 618     -33.738 129.959   8.684  1.00 38.19     0.014 C 
HETATM    3  C3  BCR B 618     -33.300 130.578   9.994  1.00 37.07     0.005 C 
HETATM    4  C4  BCR B 618     -34.397 130.468  11.017  1.00 35.92     0.034 C 
HETATM    5  C5  BCR B 618     -35.644 131.062  10.496  1.00 36.16    -0.077 C 
HETATM    6  C6  BCR B 618     -35.933 131.174   9.190  1.00 29.04    -0.048 C 
HETATM    7  C7  BCR B 618     -37.206 131.734   8.738  1.00 28.06     0.009 C 
HETATM    8  C8  BCR B 618     -37.561 132.991   9.019  1.00 32.09     0.007 C 
HETATM    9  C9  BCR B 618     -38.765 133.620   8.513  1.00 31.23    -0.062 C 
HETATM   10  C10 BCR B 618     -39.116 134.829   8.996  1.00 30.89     0.007 C 
HETATM   11  C11 BCR B 618     -40.134 135.691   8.428  1.00 28.43     0.001 C 
HETATM   12  C33 BCR B 618     -36.559 131.525  11.555  1.00 38.15     0.044 C 
HETATM   13  C31 BCR B 618     -35.675 129.749   7.164  1.00 41.07     0.020 C 
HETATM   14  C32 BCR B 618     -34.422 131.821   7.312  1.00 40.74     0.020 C 
HETATM   15  C34 BCR B 618     -39.333 133.050   7.269  1.00 31.69     0.048 C 
HETATM   16  C12 BCR B 618     -40.265 136.967   8.834  1.00 29.36     0.007 C 
HETATM   17  C13 BCR B 618     -41.372 137.847   8.465  1.00 25.32    -0.062 C 
HETATM   18  C14 BCR B 618     -41.411 139.115   8.914  1.00 31.04     0.007 C 
HETATM   19  C15 BCR B 618     -42.576 139.966   8.844  1.00 23.63     0.001 C 
HETATM   20  C16 BCR B 618     -42.497 141.306   9.005  1.00 31.26     0.001 C 
HETATM   21  C17 BCR B 618     -43.700 142.106   8.806  1.00 34.11     0.007 C 
HETATM   22  C18 BCR B 618     -44.048 143.272   9.391  1.00 31.18    -0.062 C 
HETATM   23  C19 BCR B 618     -45.245 143.980   8.966  1.00 30.29     0.007 C 
HETATM   24  C20 BCR B 618     -45.756 144.990   9.693  1.00 41.94     0.001 C 
HETATM   25  C21 BCR B 618     -46.534 146.037   9.058  1.00 35.48     0.007 C 
HETATM   26  C22 BCR B 618     -47.370 146.884   9.666  1.00 28.25    -0.062 C 
HETATM   27  C23 BCR B 618     -48.320 147.636   8.850  1.00 31.42     0.007 C 
HETATM   28  C24 BCR B 618     -49.245 148.489   9.341  1.00 38.15     0.009 C 
HETATM   29  C25 BCR B 618     -50.232 149.167   8.487  1.00 34.46    -0.048 C 
HETATM   30  C26 BCR B 618     -51.366 148.546   8.165  1.00 40.95    -0.077 C 
HETATM   31  C27 BCR B 618     -52.408 149.082   7.260  1.00 42.20     0.034 C 
HETATM   32  C28 BCR B 618     -52.438 150.581   7.189  1.00 33.45     0.005 C 
HETATM   33  C29 BCR B 618     -51.087 151.245   7.259  1.00 35.30     0.014 C 
HETATM   34  C30 BCR B 618     -49.926 150.533   7.965  1.00 37.08    -0.020 C 
HETATM   35  C35 BCR B 618     -42.297 137.433   7.396  1.00 27.05     0.048 C 
HETATM   36  C36 BCR B 618     -43.160 143.995  10.306  1.00 33.84     0.048 C 
HETATM   37  C37 BCR B 618     -46.982 147.456  10.969  1.00 39.76     0.048 C 
HETATM   38  C38 BCR B 618     -51.669 147.162   8.631  1.00 35.08     0.044 C 
HETATM   39  C39 BCR B 618     -49.312 151.350   9.075  1.00 43.92     0.020 C 
HETATM   40  C40 BCR B 618     -48.855 150.546   6.883  1.00 41.09     0.020 C 
ENDROOT
TORSDOF 10
BEGIN_RES PHE A  61
REMARK  2 active torsions:
REMARK  status: ('A' for Active; 'I' for Inactive)
REMARK    1  A    between atoms: CA   and  CB  
REMARK    2  A    between atoms: CB   and  CG  
ROOT
ATOM      1  CA  PHE A  61     -36.237 128.293  12.768  1.00 39.40     0.164 C 
ENDROOT
BRANCH   1   2
ATOM      2  CB  PHE A  61     -36.813 128.951  11.509  1.00 39.41     0.058 C 
BRANCH   2   3
ATOM      3  CG  PHE A  61     -36.740 128.094  10.268  1.00 39.01    -0.020 A 
ATOM      4  CD2 PHE A  61     -37.808 128.026   9.387  1.00 40.32    -0.004 A 
ATOM      5  CE2 PHE A  61     -37.741 127.234   8.247  1.00 40.20    -0.000 A 
ATOM      6  CZ  PHE A  61     -36.605 126.506   7.974  1.00 40.34    -0.000 A 
ATOM      7  CE1 PHE A  61     -35.535 126.564   8.839  1.00 41.51    -0.000 A 
ATOM      8  CD1 PHE A  61     -35.604 127.350   9.982  1.00 39.94    -0.004 A 
ENDBRANCH   2   3
ENDBRANCH   1   2
END_RES PHE A  61
BEGIN_RES VAL A 134
REMARK  1 active torsions:
REMARK  status: ('A' for Active; 'I' for Inactive)
REMARK    3  A    between atoms: CA   and  CB  
ROOT
ATOM      9  CA  VAL A 134     -29.766 132.051   9.815  1.00 40.75     0.159 C 
ENDROOT
BRANCH   9  10
ATOM     10  CB  VAL A 134     -30.864 132.765   9.009  1.00 40.76     0.029 C 
ATOM     11  CG1 VAL A 134     -31.201 131.983   7.748  1.00 41.76     0.002 C 
ATOM     12  CG2 VAL A 134     -32.111 133.003   9.847  1.00 40.56     0.002 C 
ENDBRANCH   9  10
END_RES VAL A 134
BEGIN_RES TYR A 338
REMARK  3 active torsions:
REMARK  status: ('A' for Active; 'I' for Inactive)
REMARK    4  A    between atoms: CA   and  CB  
REMARK    5  A    between atoms: CB   and  CG  
REMARK    6  A    between atoms: CZ   and  OH  
ROOT
ATOM     13  CA  TYR A 338     -41.631 124.950   6.058  1.00 38.23     0.164 C 
ENDROOT
BRANCH  13  14
ATOM     14  CB  TYR A 338     -41.621 126.456   6.339  1.00 39.15     0.058 C 
BRANCH  14  15
ATOM     15  CG  TYR A 338     -40.405 127.207   5.847  1.00 39.03    -0.020 A 
ATOM     16  CD2 TYR A 338     -40.228 128.542   6.169  1.00 40.65    -0.002 A 
ATOM     17  CE2 TYR A 338     -39.134 129.266   5.722  1.00 40.91     0.024 A 
ATOM     18  CZ  TYR A 338     -38.183 128.652   4.929  1.00 42.33     0.089 A 
ATOM     19  CE1 TYR A 338     -38.335 127.317   4.597  1.00 40.63     0.024 A 
ATOM     20  CD1 TYR A 338     -39.444 126.614   5.044  1.00 39.27    -0.002 A 
BRANCH  18  21
ATOM     21  OH  TYR A 338     -37.097 129.355   4.486  1.00 43.36    -0.359 OA
ATOM     22  HH  TYR A 338     -36.447 128.937   3.933  1.00  0.00     0.217 HD
ENDBRANCH  18  21
ENDBRANCH  14  15
ENDBRANCH  13  14
END_RES TYR A 338
ENDMDL
MODEL 2
REMARK VINA RESULT:    -9.092      0.622     16.407
REMARK INTER + INTRA:         -15.516
REMARK INTER:                  -8.823
REMARK INTRA:                  -6.693
REMARK UNBOUND:                -6.424
REMARK  0 active torsions:
REMARK  status: ('A' for Active; 'I' for Inactive)
REMARK       I    between atoms: C6_6  and  C7_7 
REMARK       I    between atoms: C8_8  and  C9_9 
REMARK       I    between atoms: C10_10  and  C11_11 
REMARK       I    between atoms: C12_16  and  C13_17 
REMARK       I    between atoms: C14_18  and  C15_19 
REMARK       I    between atoms: C16_20  and  C17_21 
REMARK       I    between atoms: C18_22  and  C19_23 
REMARK       I    between atoms: C20_24  and  C21_25 
REMARK       I    between atoms: C22_26  and  C23_27 
REMARK       I    between atoms: C24_28  and  C25_29 
ROOT
HETATM    1  C1  BCR B 618     -50.051 150.587   7.778  1.00 40.46    -0.020 C 
HETATM    2  C2  BCR B 618     -51.212 151.350   7.133  1.00 38.19     0.014 C 
HETATM    3  C3  BCR B 618     -52.022 150.431   6.245  1.00 37.07     0.005 C 
HETATM    4  C4  BCR B 618     -52.598 149.298   7.051  1.00 35.92     0.034 C 
HETATM    5  C5  BCR B 618     -51.524 148.589   7.775  1.00 36.16    -0.077 C 
HETATM    6  C6  BCR B 618     -50.354 149.149   8.117  1.00 29.04    -0.048 C 
HETATM    7  C7  BCR B 618     -49.346 148.404   8.873  1.00 28.06     0.009 C 
HETATM    8  C8  BCR B 618     -48.780 147.296   8.387  1.00 32.09     0.007 C 
HETATM    9  C9  BCR B 618     -47.711 146.579   9.054  1.00 31.23    -0.062 C 
HETATM   10  C10 BCR B 618     -47.332 145.381   8.566  1.00 30.89     0.007 C 
HETATM   11  C11 BCR B 618     -46.135 144.662   8.957  1.00 28.43     0.001 C 
HETATM   12  C33 BCR B 618     -51.861 147.190   8.096  1.00 38.15     0.044 C 
HETATM   13  C31 BCR B 618     -49.608 151.350   9.013  1.00 41.07     0.020 C 
HETATM   14  C32 BCR B 618     -48.918 150.692   6.781  1.00 40.74     0.020 C 
HETATM   15  C34 BCR B 618     -46.890 147.360  10.009  1.00 31.69     0.048 C 
HETATM   16  C12 BCR B 618     -45.718 143.587   8.264  1.00 29.36     0.007 C 
HETATM   17  C13 BCR B 618     -44.645 142.689   8.689  1.00 25.32    -0.062 C 
HETATM   18  C14 BCR B 618     -44.290 141.642   7.921  1.00 31.04     0.007 C 
HETATM   19  C15 BCR B 618     -43.453 140.554   8.369  1.00 23.63     0.001 C 
HETATM   20  C16 BCR B 618     -42.863 139.699   7.503  1.00 31.26     0.001 C 
HETATM   21  C17 BCR B 618     -41.942 138.698   8.029  1.00 34.11     0.007 C 
HETATM   22  C18 BCR B 618     -41.669 137.465   7.550  1.00 31.18    -0.062 C 
HETATM   23  C19 BCR B 618     -40.621 136.657   8.155  1.00 30.29     0.007 C 
HETATM   24  C20 BCR B 618     -40.502 135.346   7.879  1.00 41.94     0.001 C 
HETATM   25  C21 BCR B 618     -39.215 134.684   7.978  1.00 35.48     0.007 C 
HETATM   26  C22 BCR B 618     -39.004 133.368   8.072  1.00 28.25    -0.062 C 
HETATM   27  C23 BCR B 618     -37.690 132.899   8.506  1.00 31.42     0.007 C 
HETATM   28  C24 BCR B 618     -37.361 131.601   8.685  1.00 38.15     0.009 C 
HETATM   29  C25 BCR B 618     -36.047 131.180   9.196  1.00 34.46    -0.048 C 
HETATM   30  C26 BCR B 618     -35.831 131.137  10.510  1.00 40.95    -0.077 C 
HETATM   31  C27 BCR B 618     -34.542 130.801  11.155  1.00 42.20     0.034 C 
HETATM   32  C28 BCR B 618     -33.651 129.933  10.316  1.00 33.45     0.005 C 
HETATM   33  C29 BCR B 618     -33.702 130.217   8.836  1.00 35.30     0.014 C 
HETATM   34  C30 BCR B 618     -34.964 130.840   8.226  1.00 37.08    -0.020 C 
HETATM   35  C35 BCR B 618     -43.780 143.082   9.815  1.00 27.05     0.048 C 
HETATM   36  C36 BCR B 618     -42.230 136.961   6.294  1.00 33.84     0.048 C 
HETATM   37  C37 BCR B 618     -39.822 132.454   7.254  1.00 39.76     0.048 C 
HETATM   38  C38 BCR B 618     -36.881 131.524  11.497  1.00 35.08     0.044 C 
HETATM   39  C39 BCR B 618     -35.555 130.016   7.108  1.00 43.92     0.020 C 
HETATM   40  C40 BCR B 618     -34.388 132.051   7.505  1.00 41.09     0.020 C 
ENDROOT
TORSDOF 10
BEGIN_RES PHE A  61
REMARK  2 active torsions:
REMARK  status: ('A' for Active; 'I' for Inactive)
REMARK    1  A    between atoms: CA   and  CB  
REMARK    2  A    between atoms: CB   and  CG  
ROOT
ATOM      1  CA  PHE A  61     -36.237 128.293  12.768  1.00 39.40     0.164 C 
ENDROOT
BRANCH   1   2
ATOM      2  CB  PHE A  61     -36.813 128.951  11.509  1.00 39.41     0.058 C 
BRANCH   2   3
ATOM      3  CG  PHE A  61     -36.698 128.113  10.258  1.00 39.01    -0.020 A 
ATOM      4  CD2 PHE A  61     -37.746 128.035   9.355  1.00 40.32    -0.004 A 
ATOM      5  CE2 PHE A  61     -37.639 127.261   8.206  1.00 40.20    -0.000 A 
ATOM      6  CZ  PHE A  61     -36.484 126.559   7.946  1.00 40.34    -0.000 A 
ATOM      7  CE1 PHE A  61     -35.433 126.628   8.833  1.00 41.51    -0.000 A 
ATOM      8  CD1 PHE A  61     -35.541 127.396   9.985  1.00 39.94    -0.004 A 
ENDBRANCH   2   3
ENDBRANCH   1   2
END_RES PHE A  61
BEGIN_RES VAL A 134
REMARK  1 active torsions:
REMARK  status: ('A' for Active; 'I' for Inactive)
REMARK    3  A    between atoms: CA   and  CB  
ROOT
ATOM      9  CA  VAL A 134     -29.766 132.051   9.815  1.00 40.75     0.159 C 
ENDROOT
BRANCH   9  10
ATOM     10  CB  VAL A 134     -30.864 132.765   9.009  1.00 40.76     0.029 C 
ATOM     11  CG1 VAL A 134     -31.230 131.962   7.770  1.00 41.76     0.002 C 
ATOM     12  CG2 VAL A 134     -32.095 133.039   9.859  1.00 40.56     0.002 C 
ENDBRANCH   9  10
END_RES VAL A 134
BEGIN_RES TYR A 338
REMARK  3 active torsions:
REMARK  status: ('A' for Active; 'I' for Inactive)
REMARK    4  A    between atoms: CA   and  CB  
REMARK    5  A    between atoms: CB   and  CG  
REMARK    6  A    between atoms: CZ   and  OH  
ROOT
ATOM     13  CA  TYR A 338     -41.631 124.950   6.058  1.00 38.23     0.164 C 
ENDROOT
BRANCH  13  14
ATOM     14  CB  TYR A 338     -41.621 126.456   6.339  1.00 39.15     0.058 C 
BRANCH  14  15
ATOM     15  CG  TYR A 338     -40.402 127.206   5.854  1.00 39.03    -0.020 A 
ATOM     16  CD2 TYR A 338     -39.431 126.558   5.108  1.00 40.65    -0.002 A 
ATOM     17  CE2 TYR A 338     -38.293 127.211   4.661  1.00 40.91     0.024 A 
ATOM     18  CZ  TYR A 338     -38.105 128.547   4.960  1.00 42.33     0.089 A 
ATOM     19  CE1 TYR A 338     -39.063 129.217   5.700  1.00 40.63     0.024 A 
ATOM     20  CD1 TYR A 338     -40.188 128.543   6.150  1.00 39.27    -0.002 A 
BRANCH  18  21
ATOM     21  OH  TYR A 338     -36.989 129.201   4.520  1.00 43.36    -0.359 OA
ATOM     22  HH  TYR A 338     -36.123 128.883   4.750  1.00  0.00     0.217 HD
ENDBRANCH  18  21
ENDBRANCH  14  15
ENDBRANCH  13  14
END_RES TYR A 338
ENDMDL
MODEL 3
REMARK VINA RESULT:    -6.994      2.854      5.011
REMARK INTER + INTRA:         -13.418
REMARK INTER:                 -11.136
REMARK INTRA:                  -2.282
REMARK UNBOUND:                -6.424
REMARK  0 active torsions:
REMARK  status: ('A' for Active; 'I' for Inactive)
REMARK       I    between atoms: C6_6  and  C7_7 
REMARK       I    between atoms: C8_8  and  C9_9 
REMARK       I    between atoms: C10_10  and  C11_11 
REMARK       I    between atoms: C12_16  and  C13_17 
REMARK       I    between atoms: C14_18  and  C15_19 
REMARK       I    between atoms: C16_20  and  C17_21 
REMARK       I    between atoms: C18_22  and  C19_23 
REMARK       I    between atoms: C20_24  and  C21_25 
REMARK       I    between atoms: C22_26  and  C23_27 
REMARK       I    between atoms: C24_28  and  C25_29 
ROOT
HETATM    1  C1  BCR B 618     -33.938 127.008   6.969  1.00 40.46    -0.020 C 
HETATM    2  C2  BCR B 618     -33.170 126.194   5.923  1.00 38.19     0.014 C 
HETATM    3  C3  BCR B 618     -32.792 127.067   4.745  1.00 37.07     0.005 C 
HETATM    4  C4  BCR B 618     -31.910 128.199   5.196  1.00 35.92     0.034 C 
HETATM    5  C5  BCR B 618     -32.566 128.959   6.279  1.00 36.16    -0.077 C 
HETATM    6  C6  BCR B 618     -33.494 128.445   7.099  1.00 29.04    -0.048 C 
HETATM    7  C7  BCR B 618     -34.076 129.238   8.182  1.00 28.06     0.009 C 
HETATM    8  C8  BCR B 618     -34.774 130.352   7.940  1.00 32.09     0.007 C 
HETATM    9  C9  BCR B 618     -35.449 131.117   8.969  1.00 31.23    -0.062 C 
HETATM   10  C10 BCR B 618     -35.976 132.315   8.644  1.00 30.89     0.007 C 
HETATM   11  C11 BCR B 618     -36.884 133.080   9.476  1.00 28.43     0.001 C 
HETATM   12  C33 BCR B 618     -32.099 130.354   6.379  1.00 38.15     0.044 C 
HETATM   13  C31 BCR B 618     -33.835 126.290   8.301  1.00 41.07     0.020 C 
HETATM   14  C32 BCR B 618     -35.387 126.916   6.545  1.00 40.74     0.020 C 
HETATM   15  C34 BCR B 618     -35.807 130.386  10.207  1.00 31.69     0.048 C 
HETATM   16  C12 BCR B 618     -37.534 134.151   8.985  1.00 29.36     0.007 C 
HETATM   17  C13 BCR B 618     -38.312 135.092   9.790  1.00 25.32    -0.062 C 
HETATM   18  C14 BCR B 618     -38.938 136.131   9.206  1.00 31.04     0.007 C 
HETATM   19  C15 BCR B 618     -39.488 137.256   9.926  1.00 23.63     0.001 C 
HETATM   20  C16 BCR B 618     -40.372 138.107   9.359  1.00 31.26     0.001 C 
HETATM   21  C17 BCR B 618     -40.968 139.150  10.187  1.00 34.11     0.007 C 
HETATM   22  C18 BCR B 618     -41.394 140.378   9.825  1.00 31.18    -0.062 C 
HETATM   23  C19 BCR B 618     -42.075 141.233  10.784  1.00 30.29     0.007 C 
HETATM   24  C20 BCR B 618     -42.275 142.541  10.539  1.00 41.94     0.001 C 
HETATM   25  C21 BCR B 618     -43.388 143.244  11.146  1.00 35.48     0.007 C 
HETATM   26  C22 BCR B 618     -43.516 144.568  11.274  1.00 28.25    -0.062 C 
HETATM   27  C23 BCR B 618     -44.516 145.088  12.203  1.00 31.42     0.007 C 
HETATM   28  C24 BCR B 618     -44.716 146.400  12.459  1.00 38.15     0.009 C 
HETATM   29  C25 BCR B 618     -45.685 146.874  13.458  1.00 34.46    -0.048 C 
HETATM   30  C26 BCR B 618     -45.327 146.955  14.739  1.00 40.95    -0.077 C 
HETATM   31  C27 BCR B 618     -46.219 147.347  15.854  1.00 42.20     0.034 C 
HETATM   32  C28 BCR B 618     -47.364 148.222  15.437  1.00 33.45     0.005 C 
HETATM   33  C29 BCR B 618     -47.945 147.902  14.084  1.00 35.30     0.014 C 
HETATM   34  C30 BCR B 618     -47.069 147.225  13.022  1.00 37.08    -0.020 C 
HETATM   35  C35 BCR B 618     -38.630 134.753  11.188  1.00 27.05     0.048 C 
HETATM   36  C36 BCR B 618     -41.404 140.834   8.432  1.00 33.84     0.048 C 
HETATM   37  C37 BCR B 618     -43.101 145.436  10.157  1.00 39.76     0.048 C 
HETATM   38  C38 BCR B 618     -43.967 146.560  15.207  1.00 35.08     0.044 C 
HETATM   39  C39 BCR B 618     -46.988 148.003  11.731  1.00 43.92     0.020 C 
HETATM   40  C40 BCR B 618     -47.916 146.016  12.652  1.00 41.09     0.020 C 
ENDROOT
TORSDOF 10
BEGIN_RES PHE A  61
REMARK  2 active torsions:
REMARK  status: ('A' for Active; 'I' for Inactive)
REMARK    1  A    between atoms: CA   and  CB  
REMARK    2  A    between atoms: CB   and  CG  
ROOT
ATOM      1  CA  PHE A  61     -36.237 128.293  12.768  1.00 39.40     0.164 C 
ENDROOT
BRANCH   1   2
ATOM      2  CB  PHE A  61     -36.813 128.951  11.509  1.00 39.41     0.058 C 
BRANCH   2   3
ATOM      3  CG  PHE A  61     -37.095 127.992  10.377  1.00 39.01    -0.020 A 
ATOM      4  CD2 PHE A  61     -36.404 126.795  10.269  1.00 40.32    -0.004 A 
ATOM      5  CE2 PHE A  61     -36.663 125.916   9.226  1.00 40.20    -0.000 A 
ATOM      6  CZ  PHE A  61     -37.617 126.220   8.282  1.00 40.34    -0.000 A 
ATOM      7  CE1 PHE A  61     -38.314 127.404   8.376  1.00 41.51    -0.000 A 
ATOM      8  CD1 PHE A  61     -38.051 128.287   9.416  1.00 39.94    -0.004 A 
ENDBRANCH   2   3
ENDBRANCH   1   2
END_RES PHE A  61
BEGIN_RES VAL A 134
REMARK  1 active torsions:
REMARK  status: ('A' for Active; 'I' for Inactive)
REMARK    3  A    between atoms: CA   and  CB  
ROOT
ATOM      9  CA  VAL A 134     -29.766 132.051   9.815  1.00 40.75     0.159 C 
ENDROOT
BRANCH   9  10
ATOM     10  CB  VAL A 134     -30.864 132.765   9.009  1.00 40.76     0.029 C 
ATOM     11  CG1 VAL A 134     -30.852 132.305   7.559  1.00 41.76     0.002 C 
ATOM     12  CG2 VAL A 134     -32.238 132.562   9.629  1.00 40.56     0.002 C 
ENDBRANCH   9  10
END_RES VAL A 134
BEGIN_RES TYR A 338
REMARK  3 active torsions:
REMARK  status: ('A' for Active; 'I' for Inactive)
REMARK    4  A    between atoms: CA   and  CB  
REMARK    5  A    between atoms: CB   and  CG  
REMARK    6  A    between atoms: CZ   and  OH  
ROOT
ATOM     13  CA  TYR A 338     -41.631 124.950   6.058  1.00 38.23     0.164 C 
ENDROOT
BRANCH  13  14
ATOM     14  CB  TYR A 338     -41.621 126.456   6.339  1.00 39.15     0.058 C 
BRANCH  14  15
ATOM     15  CG  TYR A 338     -40.399 127.205   5.860  1.00 39.03    -0.020 A 
ATOM     16  CD2 TYR A 338     -40.236 128.547   6.160  1.00 40.65    -0.002 A 
ATOM     17  CE2 TYR A 338     -39.136 129.268   5.723  1.00 40.91     0.024 A 
ATOM     18  CZ  TYR A 338     -38.164 128.645   4.965  1.00 42.33     0.089 A 
ATOM     19  CE1 TYR A 338     -38.301 127.303   4.656  1.00 40.63     0.024 A 
ATOM     20  CD1 TYR A 338     -39.415 126.602   5.091  1.00 39.27    -0.002 A 
BRANCH  18  21
ATOM     21  OH  TYR A 338     -37.072 129.345   4.533  1.00 43.36    -0.359 OA
ATOM     22  HH  TYR A 338     -36.197 129.078   4.791  1.00  0.00     0.217 HD
ENDBRANCH  18  21
ENDBRANCH  14  15
ENDBRANCH  13  14
END_RES TYR A 338
ENDMDL
MODEL 4
REMARK VINA RESULT:    -6.705      1.775     16.528
REMARK INTER + INTRA:         -13.129
REMARK INTER:                 -12.543
REMARK INTRA:                  -0.586
REMARK UNBOUND:                -6.424
REMARK  0 active torsions:
REMARK  status: ('A' for Active; 'I' for Inactive)
REMARK       I    between atoms: C6_6  and  C7_7 
REMARK       I    between atoms: C8_8  and  C9_9 
REMARK       I    between atoms: C10_10  and  C11_11 
REMARK       I    between atoms: C12_16  and  C13_17 
REMARK       I    between atoms: C14_18  and  C15_19 
REMARK       I    between atoms: C16_20  and  C17_21 
REMARK       I    between atoms: C18_22  and  C19_23 
REMARK       I    between atoms: C20_24  and  C21_25 
REMARK       I    between atoms: C22_26  and  C23_27 
REMARK       I    between atoms: C24_28  and  C25_29 
ROOT
HETATM    1  C1  BCR B 618     -50.560 146.411   8.136  1.00 40.46    -0.020 C 
HETATM    2  C2  BCR B 618     -51.684 147.146   8.871  1.00 38.19     0.014 C 
HETATM    3  C3  BCR B 618     -51.664 146.807  10.346  1.00 37.07     0.005 C 
HETATM    4  C4  BCR B 618     -50.354 147.220  10.960  1.00 35.92     0.034 C 
HETATM    5  C5  BCR B 618     -49.229 146.614  10.221  1.00 36.16    -0.077 C 
HETATM    6  C6  BCR B 618     -49.294 146.233   8.937  1.00 29.04    -0.048 C 
HETATM    7  C7  BCR B 618     -48.129 145.678   8.248  1.00 28.06     0.009 C 
HETATM    8  C8  BCR B 618     -47.549 144.543   8.651  1.00 32.09     0.007 C 
HETATM    9  C9  BCR B 618     -46.456 143.904   7.947  1.00 31.23    -0.062 C 
HETATM   10  C10 BCR B 618     -45.830 142.861   8.531  1.00 30.89     0.007 C 
HETATM   11  C11 BCR B 618     -44.901 141.968   7.868  1.00 28.43     0.001 C 
HETATM   12  C33 BCR B 618     -48.008 146.466  11.035  1.00 38.15     0.044 C 
HETATM   13  C31 BCR B 618     -50.278 147.146   6.839  1.00 41.07     0.020 C 
HETATM   14  C32 BCR B 618     -51.158 145.077   7.749  1.00 40.74     0.020 C 
HETATM   15  C34 BCR B 618     -46.327 144.218   6.505  1.00 31.69     0.048 C 
HETATM   16  C12 BCR B 618     -44.497 140.828   8.458  1.00 29.36     0.007 C 
HETATM   17  C13 BCR B 618     -43.426 139.968   7.959  1.00 25.32    -0.062 C 
HETATM   18  C14 BCR B 618     -43.099 138.839   8.614  1.00 31.04     0.007 C 
HETATM   19  C15 BCR B 618     -41.896 138.078   8.372  1.00 23.63     0.001 C 
HETATM   20  C16 BCR B 618     -41.751 136.806   8.807  1.00 31.26     0.001 C 
HETATM   21  C17 BCR B 618     -40.553 136.069   8.423  1.00 34.11     0.007 C 
HETATM   22  C18 BCR B 618     -39.908 135.092   9.095  1.00 31.18    -0.062 C 
HETATM   23  C19 BCR B 618     -38.789 134.392   8.483  1.00 30.29     0.007 C 
HETATM   24  C20 BCR B 618     -37.971 133.609   9.210  1.00 41.94     0.001 C 
HETATM   25  C21 BCR B 618     -37.264 132.504   8.591  1.00 35.48     0.007 C 
HETATM   26  C22 BCR B 618     -36.191 131.876   9.079  1.00 28.25    -0.062 C 
HETATM   27  C23 BCR B 618     -35.408 131.029   8.183  1.00 31.42     0.007 C 
HETATM   28  C24 BCR B 618     -34.279 130.376   8.537  1.00 38.15     0.009 C 
HETATM   29  C25 BCR B 618     -33.482 129.594   7.580  1.00 34.46    -0.048 C 
HETATM   30  C26 BCR B 618     -32.570 130.205   6.825  1.00 40.95    -0.077 C 
HETATM   31  C27 BCR B 618     -31.751 129.555   5.776  1.00 42.20     0.034 C 
HETATM   32  C28 BCR B 618     -31.545 128.085   5.992  1.00 33.45     0.005 C 
HETATM   33  C29 BCR B 618     -32.727 127.360   6.583  1.00 35.30     0.014 C 
HETATM   34  C30 BCR B 618     -33.735 128.128   7.446  1.00 37.08    -0.020 C 
HETATM   35  C35 BCR B 618     -42.889 140.196   6.606  1.00 27.05     0.048 C 
HETATM   36  C36 BCR B 618     -40.412 134.531  10.352  1.00 33.84     0.048 C 
HETATM   37  C37 BCR B 618     -36.131 131.585  10.524  1.00 39.76     0.048 C 
HETATM   38  C38 BCR B 618     -32.337 131.677   6.902  1.00 35.08     0.044 C 
HETATM   39  C39 BCR B 618     -33.912 127.540   8.825  1.00 43.92     0.020 C 
HETATM   40  C40 BCR B 618     -35.048 127.798   6.751  1.00 41.09     0.020 C 
ENDROOT
TORSDOF 10
BEGIN_RES PHE A  61
REMARK  2 active torsions:
REMARK  status: ('A' for Active; 'I' for Inactive)
REMARK    1  A    between atoms: CA   and  CB  
REMARK    2  A    between atoms: CB   and  CG  
ROOT
ATOM      1  CA  PHE A  61     -36.237 128.293  12.768  1.00 39.40     0.164 C 
ENDROOT
BRANCH   1   2
ATOM      2  CB  PHE A  61     -36.813 128.951  11.509  1.00 39.41     0.058 C 
BRANCH   2   3
ATOM      3  CG  PHE A  61     -37.015 128.007  10.348  1.00 39.01    -0.020 A 
ATOM      4  CD2 PHE A  61     -36.289 126.830  10.253  1.00 40.32    -0.004 A 
ATOM      5  CE2 PHE A  61     -36.474 125.964   9.183  1.00 40.20    -0.000 A 
ATOM      6  CZ  PHE A  61     -37.389 126.262   8.199  1.00 40.34    -0.000 A 
ATOM      7  CE1 PHE A  61     -38.121 127.426   8.280  1.00 41.51    -0.000 A 
ATOM      8  CD1 PHE A  61     -37.932 128.295   9.347  1.00 39.94    -0.004 A 
ENDBRANCH   2   3
ENDBRANCH   1   2
END_RES PHE A  61
BEGIN_RES VAL A 134
REMARK  1 active torsions:
REMARK  status: ('A' for Active; 'I' for Inactive)
REMARK    3  A    between atoms: CA   and  CB  
ROOT
ATOM      9  CA  VAL A 134     -29.766 132.051   9.815  1.00 40.75     0.159 C 
ENDROOT
BRANCH   9  10
ATOM     10  CB  VAL A 134     -30.864 132.765   9.009  1.00 40.76     0.029 C 
ATOM     11  CG1 VAL A 134     -32.119 132.945   9.851  1.00 41.76     0.002 C 
ATOM     12  CG2 VAL A 134     -30.382 134.101   8.465  1.00 40.56     0.002 C 
ENDBRANCH   9  10
END_RES VAL A 134
BEGIN_RES TYR A 338
REMARK  3 active torsions:
REMARK  status: ('A' for Active; 'I' for Inactive)
REMARK    4  A    between atoms: CA   and  CB  
REMARK    5  A    between atoms: CB   and  CG  
REMARK    6  A    between atoms: CZ   and  OH  
ROOT
ATOM     13  CA  TYR A 338     -41.631 124.950   6.058  1.00 38.23     0.164 C 
ENDROOT
BRANCH  13  14
ATOM     14  CB  TYR A 338     -41.621 126.456   6.339  1.00 39.15     0.058 C 
BRANCH  14  15
ATOM     15  CG  TYR A 338     -40.401 127.205   5.856  1.00 39.03    -0.020 A 
ATOM     16  CD2 TYR A 338     -40.231 128.544   6.167  1.00 40.65    -0.002 A 
ATOM     17  CE2 TYR A 338     -39.133 129.266   5.728  1.00 40.91     0.024 A 
ATOM     18  CZ  TYR A 338     -38.169 128.647   4.954  1.00 42.33     0.089 A 
ATOM     19  CE1 TYR A 338     -38.314 127.309   4.634  1.00 40.63     0.024 A 
ATOM     20  CD1 TYR A 338     -39.426 126.607   5.072  1.00 39.27    -0.002 A 
BRANCH  18  21
ATOM     21  OH  TYR A 338     -37.079 129.348   4.519  1.00 43.36    -0.359 OA
ATOM     22  HH  TYR A 338     -37.157 130.269   4.299  1.00  0.00     0.217 HD
ENDBRANCH  18  21
ENDBRANCH  14  15
ENDBRANCH  13  14
END_RES TYR A 338
ENDMDL
MODEL 5
REMARK VINA RESULT:    -6.704      1.830      4.063
REMARK INTER + INTRA:         -13.129
REMARK INTER:                 -10.623
REMARK INTRA:                  -2.506
REMARK UNBOUND:                -6.424
REMARK  0 active torsions:
REMARK  status: ('A' for Active; 'I' for Inactive)
REMARK       I    between atoms: C6_6  and  C7_7 
REMARK       I    between atoms: C8_8  and  C9_9 
REMARK       I    between atoms: C10_10  and  C11_11 
REMARK       I    between atoms: C12_16  and  C13_17 
REMARK       I    between atoms: C14_18  and  C15_19 
REMARK       I    between atoms: C16_20  and  C17_21 
REMARK       I    between atoms: C18_22  and  C19_23 
REMARK       I    between atoms: C20_24  and  C21_25 
REMARK       I    between atoms: C22_26  and  C23_27 
REMARK       I    between atoms: C24_28  and  C25_29 
ROOT
HETATM    1  C1  BCR B 618     -34.636 127.010   6.041  1.00 40.46    -0.020 C 
HETATM    2  C2  BCR B 618     -33.361 126.366   5.490  1.00 38.19     0.014 C 
HETATM    3  C3  BCR B 618     -32.300 127.416   5.243  1.00 37.07     0.005 C 
HETATM    4  C4  BCR B 618     -31.952 128.120   6.526  1.00 35.92     0.034 C 
HETATM    5  C5  BCR B 618     -33.168 128.675   7.151  1.00 36.16    -0.077 C 
HETATM    6  C6  BCR B 618     -34.403 128.193   6.947  1.00 29.04    -0.048 C 
HETATM    7  C7  BCR B 618     -35.565 128.762   7.631  1.00 28.06     0.009 C 
HETATM    8  C8  BCR B 618     -35.932 130.035   7.453  1.00 32.09     0.007 C 
HETATM    9  C9  BCR B 618     -37.127 130.616   8.030  1.00 31.23    -0.062 C 
HETATM   10  C10 BCR B 618     -37.312 131.948   7.932  1.00 30.89     0.007 C 
HETATM   11  C11 BCR B 618     -38.549 132.643   8.231  1.00 28.43     0.001 C 
HETATM   12  C33 BCR B 618     -32.898 129.824   8.036  1.00 38.15     0.044 C 
HETATM   13  C31 BCR B 618     -35.443 125.938   6.751  1.00 41.07     0.020 C 
HETATM   14  C32 BCR B 618     -35.432 127.402   4.816  1.00 40.74     0.020 C 
HETATM   15  C34 BCR B 618     -38.214 129.673   8.385  1.00 31.69     0.048 C 
HETATM   16  C12 BCR B 618     -38.714 133.935   7.894  1.00 29.36     0.007 C 
HETATM   17  C13 BCR B 618     -39.838 134.768   8.320  1.00 25.32    -0.062 C 
HETATM   18  C14 BCR B 618     -39.923 136.051   7.922  1.00 31.04     0.007 C 
HETATM   19  C15 BCR B 618     -40.821 137.023   8.501  1.00 23.63     0.001 C 
HETATM   20  C16 BCR B 618     -41.108 138.191   7.884  1.00 31.26     0.001 C 
HETATM   21  C17 BCR B 618     -42.112 139.066   8.478  1.00 34.11     0.007 C 
HETATM   22  C18 BCR B 618     -42.197 140.413   8.428  1.00 31.18    -0.062 C 
HETATM   23  C19 BCR B 618     -43.351 141.098   8.989  1.00 30.29     0.007 C 
HETATM   24  C20 BCR B 618     -43.346 142.429   9.189  1.00 41.94     0.001 C 
HETATM   25  C21 BCR B 618     -44.585 143.181   9.182  1.00 35.48     0.007 C 
HETATM   26  C22 BCR B 618     -44.776 144.402   9.691  1.00 28.25    -0.062 C 
HETATM   27  C23 BCR B 618     -46.145 144.865   9.906  1.00 31.42     0.007 C 
HETATM   28  C24 BCR B 618     -46.474 146.056  10.453  1.00 38.15     0.009 C 
HETATM   29  C25 BCR B 618     -47.866 146.448  10.719  1.00 34.46    -0.048 C 
HETATM   30  C26 BCR B 618     -48.454 146.069  11.853  1.00 40.95    -0.077 C 
HETATM   31  C27 BCR B 618     -49.865 146.333  12.216  1.00 42.20     0.034 C 
HETATM   32  C28 BCR B 618     -50.447 147.545  11.550  1.00 33.45     0.005 C 
HETATM   33  C29 BCR B 618     -49.974 147.778  10.137  1.00 35.30     0.014 C 
HETATM   34  C30 BCR B 618     -48.609 147.239   9.694  1.00 37.08    -0.020 C 
HETATM   35  C35 BCR B 618     -41.004 134.133   8.958  1.00 27.05     0.048 C 
HETATM   36  C36 BCR B 618     -41.279 141.235   7.635  1.00 33.84     0.048 C 
HETATM   37  C37 BCR B 618     -43.728 145.423   9.506  1.00 39.76     0.048 C 
HETATM   38  C38 BCR B 618     -47.749 145.234  12.869  1.00 35.08     0.044 C 
HETATM   39  C39 BCR B 618     -47.694 148.308   9.149  1.00 43.92     0.020 C 
HETATM   40  C40 BCR B 618     -48.985 146.433   8.458  1.00 41.09     0.020 C 
ENDROOT
TORSDOF 10
BEGIN_RES PHE A  61
REMARK  2 active torsions:
REMARK  status: ('A' for Active; 'I' for Inactive)
REMARK    1  A    between atoms: CA   and  CB  
REMARK    2  A    between atoms: CB   and  CG  
ROOT
ATOM      1  CA  PHE A  61     -36.237 128.293  12.768  1.00 39.40     0.164 C 
ENDROOT
BRANCH   1   2
ATOM      2  CB  PHE A  61     -36.813 128.951  11.509  1.00 39.41     0.058 C 
BRANCH   2   3
ATOM      3  CG  PHE A  61     -36.339 130.365  11.271  1.00 39.01    -0.020 A 
ATOM      4  CD2 PHE A  61     -35.066 130.617  10.786  1.00 40.32    -0.004 A 
ATOM      5  CE2 PHE A  61     -34.630 131.918  10.571  1.00 40.20    -0.000 A 
ATOM      6  CZ  PHE A  61     -35.463 132.981  10.835  1.00 40.34    -0.000 A 
ATOM      7  CE1 PHE A  61     -36.732 132.748  11.316  1.00 41.51    -0.000 A 
ATOM      8  CD1 PHE A  61     -37.166 131.447  11.537  1.00 39.94    -0.004 A 
ENDBRANCH   2   3
ENDBRANCH   1   2
END_RES PHE A  61
BEGIN_RES VAL A 134
REMARK  1 active torsions:
REMARK  status: ('A' for Active; 'I' for Inactive)
REMARK    3  A    between atoms: CA   and  CB  
ROOT
ATOM      9  CA  VAL A 134     -29.766 132.051   9.815  1.00 40.75     0.159 C 
ENDROOT
BRANCH   9  10
ATOM     10  CB  VAL A 134     -30.864 132.765   9.009  1.00 40.76     0.029 C 
ATOM     11  CG1 VAL A 134     -31.162 132.011   7.721  1.00 41.76     0.002 C 
ATOM     12  CG2 VAL A 134     -32.130 132.954   9.830  1.00 40.56     0.002 C 
ENDBRANCH   9  10
END_RES VAL A 134
BEGIN_RES TYR A 338
REMARK  3 active torsions:
REMARK  status: ('A' for Active; 'I' for Inactive)
REMARK    4  A    between atoms: CA   and  CB  
REMARK    5  A    between atoms: CB   and  CG  
REMARK    6  A    between atoms: CZ   and  OH  
ROOT
ATOM     13  CA  TYR A 338     -41.631 124.950   6.058  1.00 38.23     0.164 C 
ENDROOT
BRANCH  13  14
ATOM     14  CB  TYR A 338     -41.621 126.456   6.339  1.00 39.15     0.058 C 
BRANCH  14  15
ATOM     15  CG  TYR A 338     -40.421 127.213   5.818  1.00 39.03    -0.020 A 
ATOM     16  CD2 TYR A 338     -40.313 128.579   6.017  1.00 40.65    -0.002 A 
ATOM     17  CE2 TYR A 338     -39.234 129.307   5.539  1.00 40.91     0.024 A 
ATOM     18  CZ  TYR A 338     -38.229 128.665   4.841  1.00 42.33     0.089 A 
ATOM     19  CE1 TYR A 338     -38.312 127.300   4.633  1.00 40.63     0.024 A 
ATOM     20  CD1 TYR A 338     -39.405 126.592   5.107  1.00 39.27    -0.002 A 
BRANCH  18  21
ATOM     21  OH  TYR A 338     -37.159 129.373   4.369  1.00 43.36    -0.359 OA
ATOM     22  HH  TYR A 338     -36.513 128.953   3.812  1.00  0.00     0.217 HD
ENDBRANCH  18  21
ENDBRANCH  14  15
ENDBRANCH  13  14
END_RES TYR A 338
ENDMDL
MODEL 6
REMARK VINA RESULT:    -6.627      2.466     16.591
REMARK INTER + INTRA:         -13.052
REMARK INTER:                 -10.761
REMARK INTRA:                  -2.291
REMARK UNBOUND:                -6.424
REMARK  0 active torsions:
REMARK  status: ('A' for Active; 'I' for Inactive)
REMARK       I    between atoms: C6_6  and  C7_7 
REMARK       I    between atoms: C8_8  and  C9_9 
REMARK       I    between atoms: C10_10  and  C11_11 
REMARK       I    between atoms: C12_16  and  C13_17 
REMARK       I    between atoms: C14_18  and  C15_19 
REMARK       I    between atoms: C16_20  and  C17_21 
REMARK       I    between atoms: C18_22  and  C19_23 
REMARK       I    between atoms: C20_24  and  C21_25 
REMARK       I    between atoms: C22_26  and  C23_27 
REMARK       I    between atoms: C24_28  and  C25_29 
ROOT
HETATM    1  C1  BCR B 618     -46.104 148.838  10.919  1.00 40.46    -0.020 C 
HETATM    2  C2  BCR B 618     -47.382 149.588  11.304  1.00 38.19     0.014 C 
HETATM    3  C3  BCR B 618     -48.407 148.630  11.872  1.00 37.07     0.005 C 
HETATM    4  C4  BCR B 618     -47.869 147.959  13.106  1.00 35.92     0.034 C 
HETATM    5  C5  BCR B 618     -46.580 147.302  12.810  1.00 36.16    -0.077 C 
HETATM    6  C6  BCR B 618     -45.757 147.679  11.820  1.00 29.04    -0.048 C 
HETATM    7  C7  BCR B 618     -44.472 147.014  11.604  1.00 28.06     0.009 C 
HETATM    8  C8  BCR B 618     -44.395 145.715  11.300  1.00 32.09     0.007 C 
HETATM    9  C9  BCR B 618     -43.155 145.035  10.984  1.00 31.23    -0.062 C 
HETATM   10  C10 BCR B 618     -43.165 143.692  10.862  1.00 30.89     0.007 C 
HETATM   11  C11 BCR B 618     -42.085 142.895  10.315  1.00 28.43     0.001 C 
HETATM   12  C33 BCR B 618     -46.273 146.181  13.717  1.00 38.15     0.044 C 
HETATM   13  C31 BCR B 618     -44.963 149.838  10.865  1.00 41.07     0.020 C 
HETATM   14  C32 BCR B 618     -46.337 148.380   9.496  1.00 40.74     0.020 C 
HETATM   15  C34 BCR B 618     -42.046 145.883  10.485  1.00 31.69     0.048 C 
HETATM   16  C12 BCR B 618     -42.264 141.594  10.025  1.00 29.36     0.007 C 
HETATM   17  C13 BCR B 618     -41.194 140.669   9.655  1.00 25.32    -0.062 C 
HETATM   18  C14 BCR B 618     -41.473 139.384   9.371  1.00 31.04     0.007 C 
HETATM   19  C15 BCR B 618     -40.480 138.339   9.272  1.00 23.63     0.001 C 
HETATM   20  C16 BCR B 618     -40.745 137.151   8.684  1.00 31.26     0.001 C 
HETATM   21  C17 BCR B 618     -39.657 136.194   8.522  1.00 34.11     0.007 C 
HETATM   22  C18 BCR B 618     -39.711 134.845   8.503  1.00 31.18    -0.062 C 
HETATM   23  C19 BCR B 618     -38.520 134.065   8.207  1.00 30.29     0.007 C 
HETATM   24  C20 BCR B 618     -38.476 132.740   8.434  1.00 41.94     0.001 C 
HETATM   25  C21 BCR B 618     -37.599 131.885   7.658  1.00 35.48     0.007 C 
HETATM   26  C22 BCR B 618     -37.198 130.653   7.984  1.00 28.25    -0.062 C 
HETATM   27  C23 BCR B 618     -36.059 130.076   7.274  1.00 31.42     0.007 C 
HETATM   28  C24 BCR B 618     -35.528 128.862   7.537  1.00 38.15     0.009 C 
HETATM   29  C25 BCR B 618     -34.333 128.353   6.846  1.00 34.46    -0.048 C 
HETATM   30  C26 BCR B 618     -33.122 128.682   7.293  1.00 40.95    -0.077 C 
HETATM   31  C27 BCR B 618     -31.841 128.300   6.655  1.00 42.20     0.034 C 
HETATM   32  C28 BCR B 618     -31.920 127.043   5.840  1.00 33.45     0.005 C 
HETATM   33  C29 BCR B 618     -33.219 126.850   5.099  1.00 35.30     0.014 C 
HETATM   34  C30 BCR B 618     -34.501 127.503   5.630  1.00 37.08    -0.020 C 
HETATM   35  C35 BCR B 618     -39.858 141.203   9.335  1.00 27.05     0.048 C 
HETATM   36  C36 BCR B 618     -40.974 134.103   8.554  1.00 33.84     0.048 C 
HETATM   37  C37 BCR B 618     -38.171 129.724   8.589  1.00 39.76     0.048 C 
HETATM   38  C38 BCR B 618     -32.929 129.573   8.474  1.00 35.08     0.044 C 
HETATM   39  C39 BCR B 618     -35.614 126.515   5.880  1.00 43.92     0.020 C 
HETATM   40  C40 BCR B 618     -34.981 128.274   4.409  1.00 41.09     0.020 C 
ENDROOT
TORSDOF 10
BEGIN_RES PHE A  61
REMARK  2 active torsions:
REMARK  status: ('A' for Active; 'I' for Inactive)
REMARK    1  A    between atoms: CA   and  CB  
REMARK    2  A    between atoms: CB   and  CG  
ROOT
ATOM      1  CA  PHE A  61     -36.237 128.293  12.768  1.00 39.40     0.164 C 
ENDROOT
BRANCH   1   2
ATOM      2  CB  PHE A  61     -36.813 128.951  11.509  1.00 39.41     0.058 C 
BRANCH   2   3
ATOM      3  CG  PHE A  61     -36.349 130.369  11.278  1.00 39.01    -0.020 A 
ATOM      4  CD2 PHE A  61     -37.170 131.445  11.579  1.00 40.32    -0.004 A 
ATOM      5  CE2 PHE A  61     -36.742 132.749  11.363  1.00 40.20    -0.000 A 
ATOM      6  CZ  PHE A  61     -35.490 132.992  10.848  1.00 40.34    -0.000 A 
ATOM      7  CE1 PHE A  61     -34.661 131.935  10.546  1.00 41.51    -0.000 A 
ATOM      8  CD1 PHE A  61     -35.090 130.630  10.755  1.00 39.94    -0.004 A 
ENDBRANCH   2   3
ENDBRANCH   1   2
END_RES PHE A  61
BEGIN_RES VAL A 134
REMARK  1 active torsions:
REMARK  status: ('A' for Active; 'I' for Inactive)
REMARK    3  A    between atoms: CA   and  CB  
ROOT
ATOM      9  CA  VAL A 134     -29.766 132.051   9.815  1.00 40.75     0.159 C 
ENDROOT
BRANCH   9  10
ATOM     10  CB  VAL A 134     -30.864 132.765   9.009  1.00 40.76     0.029 C 
ATOM     11  CG1 VAL A 134     -31.182 131.997   7.735  1.00 41.76     0.002 C 
ATOM     12  CG2 VAL A 134     -32.121 132.978   9.839  1.00 40.56     0.002 C 
ENDBRANCH   9  10
END_RES VAL A 134
BEGIN_RES TYR A 338
REMARK  3 active torsions:
REMARK  status: ('A' for Active; 'I' for Inactive)
REMARK    4  A    between atoms: CA   and  CB  
REMARK    5  A    between atoms: CB   and  CG  
REMARK    6  A    between atoms: CZ   and  OH  
ROOT
ATOM     13  CA  TYR A 338     -41.631 124.950   6.058  1.00 38.23     0.164 C 
ENDROOT
BRANCH  13  14
ATOM     14  CB  TYR A 338     -41.621 126.456   6.339  1.00 39.15     0.058 C 
BRANCH  14  15
ATOM     15  CG  TYR A 338     -40.433 127.217   5.796  1.00 39.03    -0.020 A 
ATOM     16  CD2 TYR A 338     -40.284 128.567   6.065  1.00 40.65    -0.002 A 
ATOM     17  CE2 TYR A 338     -39.215 129.299   5.570  1.00 40.91     0.024 A 
ATOM     18  CZ  TYR A 338     -38.263 128.678   4.784  1.00 42.33     0.089 A 
ATOM     19  CE1 TYR A 338     -38.388 127.329   4.505  1.00 40.63     0.024 A 
ATOM     20  CD1 TYR A 338     -39.471 126.617   4.998  1.00 39.27    -0.002 A 
BRANCH  18  21
ATOM     21  OH  TYR A 338     -37.203 129.390   4.294  1.00 43.36    -0.359 OA
ATOM     22  HH  TYR A 338     -37.292 129.897   3.496  1.00  0.00     0.217 HD
ENDBRANCH  18  21
ENDBRANCH  14  15
ENDBRANCH  13  14
END_RES TYR A 338
ENDMDL
