MODEL 1
REMARK VINA RESULT:    -7.689      0.000      0.000
REMARK INTER + INTRA:         -14.667
REMARK INTER:                  -7.689
REMARK INTRA:                  -6.978
REMARK UNBOUND:                -6.978
REMARK  0 active torsions:
REMARK  status: ('A' for Active; 'I' for Inactive)
REMARK       I    between atoms: C6_6  and  C7_7 
REMARK       I    between atoms: C8_8  and  C9_9 
REMARK       I    between atoms: C10_10  and  C11_11 
REMARK       I    between atoms: C12_16  and  C13_17 
REMARK       I    between atoms: C14_18  and  C15_19 
REMARK       I    between atoms: C16_20  and  C17_21 
REMARK       I    between atoms: C18_22  and  C19_23 
REMARK       I    between atoms: C20_24  and  C21_25 
REMARK       I    between atoms: C22_26  and  C23_27 
REMARK       I    between atoms: C24_28  and  C25_29 
ROOT
HETATM    1  C1  BCR A 409     -34.985 131.097   8.207  1.00 15.04    -0.020 C 
HETATM    2  C2  BCR A 409     -33.795 130.273   8.670  1.00 15.03     0.014 C 
HETATM    3  C3  BCR A 409     -33.403 130.617  10.074  1.00 15.05     0.005 C 
HETATM    4  C4  BCR A 409     -34.542 130.312  11.003  1.00 15.05     0.034 C 
HETATM    5  C5  BCR A 409     -35.806 130.915  10.523  1.00 15.05    -0.077 C 
HETATM    6  C6  BCR A 409     -36.034 131.303   9.260  1.00 15.04    -0.048 C 
HETATM    7  C7  BCR A 409     -37.320 131.892   8.843  1.00 15.04     0.009 C 
HETATM    8  C8  BCR A 409     -37.634 133.189   8.987  1.00 15.04     0.007 C 
HETATM    9  C9  BCR A 409     -38.924 133.779   8.664  1.00 15.05    -0.062 C 
HETATM   10  C10 BCR A 409     -39.205 135.014   9.096  1.00 15.04     0.007 C 
HETATM   11  C11 BCR A 409     -40.450 135.715   8.874  1.00 15.04     0.001 C 
HETATM   12  C33 BCR A 409     -36.807 131.059  11.594  1.00 15.05     0.044 C 
HETATM   13  C31 BCR A 409     -35.544 130.347   7.018  1.00 15.03     0.020 C 
HETATM   14  C32 BCR A 409     -34.444 132.419   7.699  1.00 15.04     0.020 C 
HETATM   15  C34 BCR A 409     -39.742 133.139   7.619  1.00 15.07     0.048 C 
HETATM   16  C12 BCR A 409     -40.507 137.028   9.116  1.00 15.03     0.007 C 
HETATM   17  C13 BCR A 409     -41.631 137.891   8.832  1.00 15.02    -0.062 C 
HETATM   18  C14 BCR A 409     -41.526 139.200   9.101  1.00 15.00     0.007 C 
HETATM   19  C15 BCR A 409     -42.598 140.141   8.915  1.00 14.99     0.001 C 
HETATM   20  C16 BCR A 409     -42.521 141.354   9.470  1.00 14.98     0.001 C 
HETATM   21  C17 BCR A 409     -43.563 142.301   9.192  1.00 14.98     0.007 C 
HETATM   22  C18 BCR A 409     -43.561 143.607   9.482  1.00 14.98    -0.062 C 
HETATM   23  C19 BCR A 409     -44.676 144.400   9.014  1.00 14.98     0.007 C 
HETATM   24  C20 BCR A 409     -45.012 145.559   9.578  1.00 15.00     0.001 C 
HETATM   25  C21 BCR A 409     -45.973 146.422   8.933  1.00 14.99     0.007 C 
HETATM   26  C22 BCR A 409     -46.709 147.336   9.571  1.00 14.99    -0.062 C 
HETATM   27  C23 BCR A 409     -47.885 147.890   8.924  1.00 14.97     0.007 C 
HETATM   28  C24 BCR A 409     -48.438 149.036   9.338  1.00 14.93     0.009 C 
HETATM   29  C25 BCR A 409     -49.550 149.755   8.731  1.00 14.90    -0.048 C 
HETATM   30  C26 BCR A 409     -49.389 150.566   7.681  1.00 14.90    -0.077 C 
HETATM   31  C27 BCR A 409     -50.439 151.347   7.010  1.00 14.89     0.034 C 
HETATM   32  C28 BCR A 409     -51.814 150.827   7.334  1.00 14.90     0.005 C 
HETATM   33  C29 BCR A 409     -51.929 150.564   8.810  1.00 14.91     0.014 C 
HETATM   34  C30 BCR A 409     -50.899 149.591   9.365  1.00 14.90    -0.020 C 
HETATM   35  C35 BCR A 409     -42.812 137.374   8.119  1.00 15.02     0.048 C 
HETATM   36  C36 BCR A 409     -42.584 144.237  10.392  1.00 14.95     0.048 C 
HETATM   37  C37 BCR A 409     -46.221 147.968  10.810  1.00 15.00     0.048 C 
HETATM   38  C38 BCR A 409     -48.093 150.805   7.021  1.00 14.89     0.044 C 
HETATM   39  C39 BCR A 409     -51.407 148.166   9.253  1.00 14.93     0.020 C 
HETATM   40  C40 BCR A 409     -50.841 149.897  10.850  1.00 14.91     0.020 C 
ENDROOT
TORSDOF 10
BEGIN_RES PHE A  61
REMARK  2 active torsions:
REMARK  status: ('A' for Active; 'I' for Inactive)
REMARK    1  A    between atoms: CA   and  CB  
REMARK    2  A    between atoms: CB   and  CG  
ROOT
ATOM      1  CA  PHE A  61     -36.237 128.293  12.768  1.00 39.40     0.164 C 
ENDROOT
BRANCH   1   2
ATOM      2  CB  PHE A  61     -36.813 128.951  11.509  1.00 39.41     0.058 C 
BRANCH   2   3
ATOM      3  CG  PHE A  61     -36.660 128.131  10.251  1.00 39.01    -0.020 A 
ATOM      4  CD2 PHE A  61     -37.684 128.060   9.319  1.00 40.32    -0.004 A 
ATOM      5  CE2 PHE A  61     -37.543 127.302   8.163  1.00 40.20    -0.000 A 
ATOM      6  CZ  PHE A  61     -36.378 126.610   7.924  1.00 40.34    -0.000 A 
ATOM      7  CE1 PHE A  61     -35.350 126.672   8.839  1.00 41.51    -0.000 A 
ATOM      8  CD1 PHE A  61     -35.493 127.424   9.998  1.00 39.94    -0.004 A 
ENDBRANCH   2   3
ENDBRANCH   1   2
END_RES PHE A  61
BEGIN_RES VAL A 134
REMARK  1 active torsions:
REMARK  status: ('A' for Active; 'I' for Inactive)
REMARK    3  A    between atoms: CA   and  CB  
ROOT
ATOM      9  CA  VAL A 134     -29.766 132.051   9.815  1.00 40.75     0.159 C 
ENDROOT
BRANCH   9  10
ATOM     10  CB  VAL A 134     -30.864 132.765   9.009  1.00 40.76     0.029 C 
ATOM     11  CG1 VAL A 134     -31.227 131.964   7.767  1.00 41.76     0.002 C 
ATOM     12  CG2 VAL A 134     -32.097 133.035   9.857  1.00 40.56     0.002 C 
ENDBRANCH   9  10
END_RES VAL A 134
BEGIN_RES TYR A 338
REMARK  3 active torsions:
REMARK  status: ('A' for Active; 'I' for Inactive)
REMARK    4  A    between atoms: CA   and  CB  
REMARK    5  A    between atoms: CB   and  CG  
REMARK    6  A    between atoms: CZ   and  OH  
ROOT
ATOM     13  CA  TYR A 338     -41.631 124.950   6.058  1.00 38.23     0.164 C 
ENDROOT
BRANCH  13  14
ATOM     14  CB  TYR A 338     -41.621 126.456   6.339  1.00 39.15     0.058 C 
BRANCH  14  15
ATOM     15  CG  TYR A 338     -40.394 127.203   5.870  1.00 39.03    -0.020 A 
ATOM     16  CD2 TYR A 338     -40.208 128.531   6.213  1.00 40.65    -0.002 A 
ATOM     17  CE2 TYR A 338     -39.102 129.251   5.787  1.00 40.91     0.024 A 
ATOM     18  CZ  TYR A 338     -38.149 128.640   4.995  1.00 42.33     0.089 A 
ATOM     19  CE1 TYR A 338     -38.309 127.311   4.643  1.00 40.63     0.024 A 
ATOM     20  CD1 TYR A 338     -39.429 126.613   5.068  1.00 39.27    -0.002 A 
BRANCH  18  21
ATOM     21  OH  TYR A 338     -37.052 129.339   4.574  1.00 43.36    -0.359 OA
ATOM     22  HH  TYR A 338     -36.299 128.882   4.218  1.00  0.00     0.217 HD
ENDBRANCH  18  21
ENDBRANCH  14  15
ENDBRANCH  13  14
END_RES TYR A 338
ENDMDL
MODEL 2
REMARK VINA RESULT:    -7.570      3.260      5.090
REMARK INTER + INTRA:         -14.548
REMARK INTER:                 -12.120
REMARK INTRA:                  -2.428
REMARK UNBOUND:                -6.978
REMARK  0 active torsions:
REMARK  status: ('A' for Active; 'I' for Inactive)
REMARK       I    between atoms: C6_6  and  C7_7 
REMARK       I    between atoms: C8_8  and  C9_9 
REMARK       I    between atoms: C10_10  and  C11_11 
REMARK       I    between atoms: C12_16  and  C13_17 
REMARK       I    between atoms: C14_18  and  C15_19 
REMARK       I    between atoms: C16_20  and  C17_21 
REMARK       I    between atoms: C18_22  and  C19_23 
REMARK       I    between atoms: C20_24  and  C21_25 
REMARK       I    between atoms: C22_26  and  C23_27 
REMARK       I    between atoms: C24_28  and  C25_29 
ROOT
HETATM    1  C1  BCR A 409     -34.066 126.857   6.725  1.00 15.04    -0.020 C 
HETATM    2  C2  BCR A 409     -33.293 125.980   5.753  1.00 15.03     0.014 C 
HETATM    3  C3  BCR A 409     -32.731 126.782   4.620  1.00 15.05     0.005 C 
HETATM    4  C4  BCR A 409     -31.770 127.803   5.155  1.00 15.05     0.034 C 
HETATM    5  C5  BCR A 409     -32.372 128.585   6.258  1.00 15.05    -0.077 C 
HETATM    6  C6  BCR A 409     -33.433 128.193   6.981  1.00 15.04    -0.048 C 
HETATM    7  C7  BCR A 409     -33.982 129.016   8.073  1.00 15.04     0.009 C 
HETATM    8  C8  BCR A 409     -34.851 130.023   7.890  1.00 15.04     0.007 C 
HETATM    9  C9  BCR A 409     -35.342 130.905   8.937  1.00 15.05    -0.062 C 
HETATM   10  C10 BCR A 409     -35.988 132.028   8.598  1.00 15.04     0.007 C 
HETATM   11  C11 BCR A 409     -36.508 133.007   9.526  1.00 15.04     0.001 C 
HETATM   12  C33 BCR A 409     -31.687 129.869   6.483  1.00 15.05     0.044 C 
HETATM   13  C31 BCR A 409     -34.160 126.045   7.997  1.00 15.03     0.020 C 
HETATM   14  C32 BCR A 409     -35.470 127.007   6.174  1.00 15.04     0.020 C 
HETATM   15  C34 BCR A 409     -35.399 130.388  10.316  1.00 15.07     0.048 C 
HETATM   16  C12 BCR A 409     -37.361 133.934   9.080  1.00 15.03     0.007 C 
HETATM   17  C13 BCR A 409     -38.059 134.901   9.896  1.00 15.02    -0.062 C 
HETATM   18  C14 BCR A 409     -38.913 135.750   9.306  1.00 15.00     0.007 C 
HETATM   19  C15 BCR A 409     -39.617 136.789  10.007  1.00 14.99     0.001 C 
HETATM   20  C16 BCR A 409     -40.214 137.768   9.321  1.00 14.98     0.001 C 
HETATM   21  C17 BCR A 409     -40.984 138.739  10.042  1.00 14.98     0.007 C 
HETATM   22  C18 BCR A 409     -41.809 139.658   9.527  1.00 14.98    -0.062 C 
HETATM   23  C19 BCR A 409     -42.570 140.470  10.449  1.00 14.98     0.007 C 
HETATM   24  C20 BCR A 409     -43.068 141.658  10.108  1.00 15.00     0.001 C 
HETATM   25  C21 BCR A 409     -44.013 142.320  10.976  1.00 14.99     0.007 C 
HETATM   26  C22 BCR A 409     -44.224 143.638  10.991  1.00 14.99    -0.062 C 
HETATM   27  C23 BCR A 409     -44.905 144.244  12.121  1.00 14.97     0.007 C 
HETATM   28  C24 BCR A 409     -45.458 145.459  12.037  1.00 14.93     0.009 C 
HETATM   29  C25 BCR A 409     -46.249 146.146  13.049  1.00 14.90    -0.048 C 
HETATM   30  C26 BCR A 409     -47.551 145.900  13.227  1.00 14.90    -0.077 C 
HETATM   31  C27 BCR A 409     -48.438 146.550  14.205  1.00 14.89     0.034 C 
HETATM   32  C28 BCR A 409     -47.660 147.226  15.301  1.00 14.90     0.005 C 
HETATM   33  C29 BCR A 409     -46.520 148.011  14.713  1.00 14.91     0.014 C 
HETATM   34  C30 BCR A 409     -45.555 147.194  13.866  1.00 14.90    -0.020 C 
HETATM   35  C35 BCR A 409     -37.956 134.856  11.365  1.00 15.02     0.048 C 
HETATM   36  C36 BCR A 409     -41.850 139.999   8.091  1.00 14.95     0.048 C 
HETATM   37  C37 BCR A 409     -43.999 144.453   9.784  1.00 15.00     0.048 C 
HETATM   38  C38 BCR A 409     -48.313 144.910  12.446  1.00 14.89     0.044 C 
HETATM   39  C39 BCR A 409     -44.462 146.601  14.736  1.00 14.93     0.020 C 
HETATM   40  C40 BCR A 409     -44.870 148.212  12.974  1.00 14.91     0.020 C 
ENDROOT
TORSDOF 10
BEGIN_RES PHE A  61
REMARK  2 active torsions:
REMARK  status: ('A' for Active; 'I' for Inactive)
REMARK    1  A    between atoms: CA   and  CB  
REMARK    2  A    between atoms: CB   and  CG  
ROOT
ATOM      1  CA  PHE A  61     -36.237 128.293  12.768  1.00 39.40     0.164 C 
ENDROOT
BRANCH   1   2
ATOM      2  CB  PHE A  61     -36.813 128.951  11.509  1.00 39.41     0.058 C 
BRANCH   2   3
ATOM      3  CG  PHE A  61     -37.071 127.996  10.368  1.00 39.01    -0.020 A 
ATOM      4  CD2 PHE A  61     -36.391 126.792  10.280  1.00 40.32    -0.004 A 
ATOM      5  CE2 PHE A  61     -36.627 125.915   9.229  1.00 40.20    -0.000 A 
ATOM      6  CZ  PHE A  61     -37.548 126.231   8.256  1.00 40.34    -0.000 A 
ATOM      7  CE1 PHE A  61     -38.234 127.423   8.330  1.00 41.51    -0.000 A 
ATOM      8  CD1 PHE A  61     -37.993 128.303   9.378  1.00 39.94    -0.004 A 
ENDBRANCH   2   3
ENDBRANCH   1   2
END_RES PHE A  61
BEGIN_RES VAL A 134
REMARK  1 active torsions:
REMARK  status: ('A' for Active; 'I' for Inactive)
REMARK    3  A    between atoms: CA   and  CB  
ROOT
ATOM      9  CA  VAL A 134     -29.766 132.051   9.815  1.00 40.75     0.159 C 
ENDROOT
BRANCH   9  10
ATOM     10  CB  VAL A 134     -30.864 132.765   9.009  1.00 40.76     0.029 C 
ATOM     11  CG1 VAL A 134     -30.855 132.301   7.560  1.00 41.76     0.002 C 
ATOM     12  CG2 VAL A 134     -32.237 132.565   9.632  1.00 40.56     0.002 C 
ENDBRANCH   9  10
END_RES VAL A 134
BEGIN_RES TYR A 338
REMARK  3 active torsions:
REMARK  status: ('A' for Active; 'I' for Inactive)
REMARK    4  A    between atoms: CA   and  CB  
REMARK    5  A    between atoms: CB   and  CG  
REMARK    6  A    between atoms: CZ   and  OH  
ROOT
ATOM     13  CA  TYR A 338     -41.631 124.950   6.058  1.00 38.23     0.164 C 
ENDROOT
BRANCH  13  14
ATOM     14  CB  TYR A 338     -41.621 126.456   6.339  1.00 39.15     0.058 C 
BRANCH  14  15
ATOM     15  CG  TYR A 338     -40.410 127.209   5.838  1.00 39.03    -0.020 A 
ATOM     16  CD2 TYR A 338     -40.232 128.544   6.160  1.00 40.65    -0.002 A 
ATOM     17  CE2 TYR A 338     -39.142 129.269   5.705  1.00 40.91     0.024 A 
ATOM     18  CZ  TYR A 338     -38.196 128.657   4.905  1.00 42.33     0.089 A 
ATOM     19  CE1 TYR A 338     -38.349 127.322   4.574  1.00 40.63     0.024 A 
ATOM     20  CD1 TYR A 338     -39.453 126.617   5.028  1.00 39.27    -0.002 A 
BRANCH  18  21
ATOM     21  OH  TYR A 338     -37.114 129.361   4.454  1.00 43.36    -0.359 OA
ATOM     22  HH  TYR A 338     -36.233 129.090   4.687  1.00  0.00     0.217 HD
ENDBRANCH  18  21
ENDBRANCH  14  15
ENDBRANCH  13  14
END_RES TYR A 338
ENDMDL
MODEL 3
REMARK VINA RESULT:    -6.531      2.534      4.574
REMARK INTER + INTRA:         -13.509
REMARK INTER:                 -11.361
REMARK INTRA:                  -2.148
REMARK UNBOUND:                -6.978
REMARK  0 active torsions:
REMARK  status: ('A' for Active; 'I' for Inactive)
REMARK       I    between atoms: C6_6  and  C7_7 
REMARK       I    between atoms: C8_8  and  C9_9 
REMARK       I    between atoms: C10_10  and  C11_11 
REMARK       I    between atoms: C12_16  and  C13_17 
REMARK       I    between atoms: C14_18  and  C15_19 
REMARK       I    between atoms: C16_20  and  C17_21 
REMARK       I    between atoms: C18_22  and  C19_23 
REMARK       I    between atoms: C20_24  and  C21_25 
REMARK       I    between atoms: C22_26  and  C23_27 
REMARK       I    between atoms: C24_28  and  C25_29 
ROOT
HETATM    1  C1  BCR A 409     -33.969 127.060   6.987  1.00 15.04    -0.020 C 
HETATM    2  C2  BCR A 409     -33.071 126.203   6.108  1.00 15.03     0.014 C 
HETATM    3  C3  BCR A 409     -32.587 126.965   4.914  1.00 15.05     0.005 C 
HETATM    4  C4  BCR A 409     -31.772 128.142   5.365  1.00 15.05     0.034 C 
HETATM    5  C5  BCR A 409     -32.492 128.938   6.385  1.00 15.05    -0.077 C 
HETATM    6  C6  BCR A 409     -33.512 128.481   7.128  1.00 15.04    -0.048 C 
HETATM    7  C7  BCR A 409     -34.184 129.324   8.134  1.00 15.04     0.009 C 
HETATM    8  C8  BCR A 409     -35.166 130.194   7.850  1.00 15.04     0.007 C 
HETATM    9  C9  BCR A 409     -35.787 131.097   8.806  1.00 15.05    -0.062 C 
HETATM   10  C10 BCR A 409     -36.558 132.095   8.358  1.00 15.04     0.007 C 
HETATM   11  C11 BCR A 409     -37.216 133.080   9.186  1.00 15.04     0.001 C 
HETATM   12  C33 BCR A 409     -31.975 130.312   6.500  1.00 15.05     0.044 C 
HETATM   13  C31 BCR A 409     -33.992 126.358   8.327  1.00 15.03     0.020 C 
HETATM   14  C32 BCR A 409     -35.368 126.983   6.408  1.00 15.04     0.020 C 
HETATM   15  C34 BCR A 409     -35.811 130.702  10.226  1.00 15.07     0.048 C 
HETATM   16  C12 BCR A 409     -38.166 133.850   8.648  1.00 15.03     0.007 C 
HETATM   17  C13 BCR A 409     -38.998 134.791   9.363  1.00 15.02    -0.062 C 
HETATM   18  C14 BCR A 409     -39.935 135.471   8.688  1.00 15.00     0.007 C 
HETATM   19  C15 BCR A 409     -40.779 136.472   9.283  1.00 14.99     0.001 C 
HETATM   20  C16 BCR A 409     -41.475 137.303   8.504  1.00 14.98     0.001 C 
HETATM   21  C17 BCR A 409     -42.376 138.231   9.124  1.00 14.98     0.007 C 
HETATM   22  C18 BCR A 409     -43.296 138.990   8.517  1.00 14.98    -0.062 C 
HETATM   23  C19 BCR A 409     -44.173 139.780   9.352  1.00 14.98     0.007 C 
HETATM   24  C20 BCR A 409     -44.805 140.861   8.899  1.00 15.00     0.001 C 
HETATM   25  C21 BCR A 409     -45.845 141.474   9.692  1.00 14.99     0.007 C 
HETATM   26  C22 BCR A 409     -46.217 142.752   9.583  1.00 14.99    -0.062 C 
HETATM   27  C23 BCR A 409     -46.993 143.366  10.646  1.00 14.97     0.007 C 
HETATM   28  C24 BCR A 409     -47.691 144.489  10.445  1.00 14.93     0.009 C 
HETATM   29  C25 BCR A 409     -48.584 145.160  11.380  1.00 14.90    -0.048 C 
HETATM   30  C26 BCR A 409     -49.849 144.769  11.564  1.00 14.90    -0.077 C 
HETATM   31  C27 BCR A 409     -50.832 145.388  12.468  1.00 14.89     0.034 C 
HETATM   32  C28 BCR A 409     -50.169 146.250  13.507  1.00 14.90     0.005 C 
HETATM   33  C29 BCR A 409     -49.122 147.116  12.864  1.00 14.91     0.014 C 
HETATM   34  C30 BCR A 409     -48.043 146.355  12.107  1.00 14.90    -0.020 C 
HETATM   35  C35 BCR A 409     -38.924 134.890  10.831  1.00 15.02     0.048 C 
HETATM   36  C36 BCR A 409     -43.345 139.194   7.056  1.00 14.95     0.048 C 
HETATM   37  C37 BCR A 409     -46.066 143.477   8.310  1.00 15.00     0.048 C 
HETATM   38  C38 BCR A 409     -50.464 143.627  10.867  1.00 14.89     0.044 C 
HETATM   39  C39 BCR A 409     -46.906 145.983  13.040  1.00 14.93     0.020 C 
HETATM   40  C40 BCR A 409     -47.469 147.367  11.134  1.00 14.91     0.020 C 
ENDROOT
TORSDOF 10
BEGIN_RES PHE A  61
REMARK  2 active torsions:
REMARK  status: ('A' for Active; 'I' for Inactive)
REMARK    1  A    between atoms: CA   and  CB  
REMARK    2  A    between atoms: CB   and  CG  
ROOT
ATOM      1  CA  PHE A  61     -36.237 128.293  12.768  1.00 39.40     0.164 C 
ENDROOT
BRANCH   1   2
ATOM      2  CB  PHE A  61     -36.813 128.951  11.509  1.00 39.41     0.058 C 
BRANCH   2   3
ATOM      3  CG  PHE A  61     -37.083 127.994  10.373  1.00 39.01    -0.020 A 
ATOM      4  CD2 PHE A  61     -38.023 128.293   9.399  1.00 40.32    -0.004 A 
ATOM      5  CE2 PHE A  61     -38.273 127.410   8.356  1.00 40.20    -0.000 A 
ATOM      6  CZ  PHE A  61     -37.583 126.221   8.272  1.00 40.34    -0.000 A 
ATOM      7  CE1 PHE A  61     -36.645 125.911   9.231  1.00 41.51    -0.000 A 
ATOM      8  CD1 PHE A  61     -36.399 126.790  10.278  1.00 39.94    -0.004 A 
ENDBRANCH   2   3
ENDBRANCH   1   2
END_RES PHE A  61
BEGIN_RES VAL A 134
REMARK  1 active torsions:
REMARK  status: ('A' for Active; 'I' for Inactive)
REMARK    3  A    between atoms: CA   and  CB  
ROOT
ATOM      9  CA  VAL A 134     -29.766 132.051   9.815  1.00 40.75     0.159 C 
ENDROOT
BRANCH   9  10
ATOM     10  CB  VAL A 134     -30.864 132.765   9.009  1.00 40.76     0.029 C 
ATOM     11  CG1 VAL A 134     -30.756 132.421   7.531  1.00 41.76     0.002 C 
ATOM     12  CG2 VAL A 134     -32.252 132.439   9.540  1.00 40.56     0.002 C 
ENDBRANCH   9  10
END_RES VAL A 134
BEGIN_RES TYR A 338
REMARK  3 active torsions:
REMARK  status: ('A' for Active; 'I' for Inactive)
REMARK    4  A    between atoms: CA   and  CB  
REMARK    5  A    between atoms: CB   and  CG  
REMARK    6  A    between atoms: CZ   and  OH  
ROOT
ATOM     13  CA  TYR A 338     -41.631 124.950   6.058  1.00 38.23     0.164 C 
ENDROOT
BRANCH  13  14
ATOM     14  CB  TYR A 338     -41.621 126.456   6.339  1.00 39.15     0.058 C 
BRANCH  14  15
ATOM     15  CG  TYR A 338     -40.399 127.205   5.859  1.00 39.03    -0.020 A 
ATOM     16  CD2 TYR A 338     -40.220 128.538   6.187  1.00 40.65    -0.002 A 
ATOM     17  CE2 TYR A 338     -39.120 129.260   5.751  1.00 40.91     0.024 A 
ATOM     18  CZ  TYR A 338     -38.165 128.646   4.963  1.00 42.33     0.089 A 
ATOM     19  CE1 TYR A 338     -38.319 127.313   4.625  1.00 40.63     0.024 A 
ATOM     20  CD1 TYR A 338     -39.433 126.612   5.061  1.00 39.27    -0.002 A 
BRANCH  18  21
ATOM     21  OH  TYR A 338     -37.074 129.346   4.531  1.00 43.36    -0.359 OA
ATOM     22  HH  TYR A 338     -36.210 129.151   4.876  1.00  0.00     0.217 HD
ENDBRANCH  18  21
ENDBRANCH  14  15
ENDBRANCH  13  14
END_RES TYR A 338
ENDMDL
MODEL 4
REMARK VINA RESULT:    -6.480      2.010     16.411
REMARK INTER + INTRA:         -13.458
REMARK INTER:                 -11.286
REMARK INTRA:                  -2.172
REMARK UNBOUND:                -6.978
REMARK  0 active torsions:
REMARK  status: ('A' for Active; 'I' for Inactive)
REMARK       I    between atoms: C6_6  and  C7_7 
REMARK       I    between atoms: C8_8  and  C9_9 
REMARK       I    between atoms: C10_10  and  C11_11 
REMARK       I    between atoms: C12_16  and  C13_17 
REMARK       I    between atoms: C14_18  and  C15_19 
REMARK       I    between atoms: C16_20  and  C17_21 
REMARK       I    between atoms: C18_22  and  C19_23 
REMARK       I    between atoms: C20_24  and  C21_25 
REMARK       I    between atoms: C22_26  and  C23_27 
REMARK       I    between atoms: C24_28  and  C25_29 
ROOT
HETATM    1  C1  BCR A 409     -50.587 146.004   8.978  1.00 15.04    -0.020 C 
HETATM    2  C2  BCR A 409     -51.613 146.846   9.719  1.00 15.03     0.014 C 
HETATM    3  C3  BCR A 409     -51.292 146.943  11.178  1.00 15.05     0.005 C 
HETATM    4  C4  BCR A 409     -49.959 147.612  11.354  1.00 15.05     0.034 C 
HETATM    5  C5  BCR A 409     -48.922 146.981  10.509  1.00 15.05    -0.077 C 
HETATM    6  C6  BCR A 409     -49.173 146.224   9.430  1.00 15.04    -0.048 C 
HETATM    7  C7  BCR A 409     -48.093 145.627   8.625  1.00 15.04     0.009 C 
HETATM    8  C8  BCR A 409     -47.480 144.471   8.928  1.00 15.04     0.007 C 
HETATM    9  C9  BCR A 409     -46.356 143.904   8.200  1.00 15.05    -0.062 C 
HETATM   10  C10 BCR A 409     -45.664 142.897   8.747  1.00 15.04     0.007 C 
HETATM   11  C11 BCR A 409     -44.513 142.254   8.153  1.00 15.04     0.001 C 
HETATM   12  C33 BCR A 409     -47.556 147.261  10.984  1.00 15.05     0.044 C 
HETATM   13  C31 BCR A 409     -50.757 146.370   7.520  1.00 15.03     0.020 C 
HETATM   14  C32 BCR A 409     -50.998 144.553   9.135  1.00 15.04     0.020 C 
HETATM   15  C34 BCR A 409     -46.213 144.230   6.770  1.00 15.07     0.048 C 
HETATM   16  C12 BCR A 409     -44.083 141.096   8.663  1.00 15.03     0.007 C 
HETATM   17  C13 BCR A 409     -43.030 140.271   8.116  1.00 15.02    -0.062 C 
HETATM   18  C14 BCR A 409     -42.731 139.114   8.723  1.00 15.00     0.007 C 
HETATM   19  C15 BCR A 409     -41.667 138.243   8.302  1.00 14.99     0.001 C 
HETATM   20  C16 BCR A 409     -41.242 137.272   9.115  1.00 14.98     0.001 C 
HETATM   21  C17 BCR A 409     -40.242 136.363   8.632  1.00 14.98     0.007 C 
HETATM   22  C18 BCR A 409     -39.844 135.223   9.208  1.00 14.98    -0.062 C 
HETATM   23  C19 BCR A 409     -38.893 134.404   8.491  1.00 14.98     0.007 C 
HETATM   24  C20 BCR A 409     -38.113 133.516   9.104  1.00 15.00     0.001 C 
HETATM   25  C21 BCR A 409     -37.356 132.563   8.326  1.00 14.99     0.007 C 
HETATM   26  C22 BCR A 409     -36.245 131.959   8.754  1.00 14.99    -0.062 C 
HETATM   27  C23 BCR A 409     -35.365 131.313   7.796  1.00 14.97     0.007 C 
HETATM   28  C24 BCR A 409     -34.461 130.403   8.177  1.00 14.93     0.009 C 
HETATM   29  C25 BCR A 409     -33.586 129.610   7.324  1.00 14.90    -0.048 C 
HETATM   30  C26 BCR A 409     -34.001 128.495   6.716  1.00 14.90    -0.077 C 
HETATM   31  C27 BCR A 409     -33.194 127.617   5.853  1.00 14.89     0.034 C 
HETATM   32  C28 BCR A 409     -31.957 128.312   5.353  1.00 14.90     0.005 C 
HETATM   33  C29 BCR A 409     -31.286 129.043   6.483  1.00 14.91     0.014 C 
HETATM   34  C30 BCR A 409     -32.164 130.066   7.189  1.00 14.90    -0.020 C 
HETATM   35  C35 BCR A 409     -42.401 140.615   6.829  1.00 15.02     0.048 C 
HETATM   36  C36 BCR A 409     -40.187 134.851  10.595  1.00 14.95     0.048 C 
HETATM   37  C37 BCR A 409     -36.016 131.725  10.191  1.00 15.00     0.048 C 
HETATM   38  C38 BCR A 409     -35.371 127.963   6.824  1.00 14.89     0.044 C 
HETATM   39  C39 BCR A 409     -32.065 131.413   6.496  1.00 14.93     0.020 C 
HETATM   40  C40 BCR A 409     -31.521 130.251   8.550  1.00 14.91     0.020 C 
ENDROOT
TORSDOF 10
BEGIN_RES PHE A  61
REMARK  2 active torsions:
REMARK  status: ('A' for Active; 'I' for Inactive)
REMARK    1  A    between atoms: CA   and  CB  
REMARK    2  A    between atoms: CB   and  CG  
ROOT
ATOM      1  CA  PHE A  61     -36.237 128.293  12.768  1.00 39.40     0.164 C 
ENDROOT
BRANCH   1   2
ATOM      2  CB  PHE A  61     -36.813 128.951  11.509  1.00 39.41     0.058 C 
BRANCH   2   3
ATOM      3  CG  PHE A  61     -36.903 128.035  10.312  1.00 39.01    -0.020 A 
ATOM      4  CD2 PHE A  61     -37.964 128.126   9.424  1.00 40.32    -0.004 A 
ATOM      5  CE2 PHE A  61     -38.047 127.281   8.325  1.00 40.20    -0.000 A 
ATOM      6  CZ  PHE A  61     -37.070 126.339   8.099  1.00 40.34    -0.000 A 
ATOM      7  CE1 PHE A  61     -36.008 126.237   8.970  1.00 41.51    -0.000 A 
ATOM      8  CD1 PHE A  61     -35.928 127.077  10.073  1.00 39.94    -0.004 A 
ENDBRANCH   2   3
ENDBRANCH   1   2
END_RES PHE A  61
BEGIN_RES VAL A 134
REMARK  1 active torsions:
REMARK  status: ('A' for Active; 'I' for Inactive)
REMARK    3  A    between atoms: CA   and  CB  
ROOT
ATOM      9  CA  VAL A 134     -29.766 132.051   9.815  1.00 40.75     0.159 C 
ENDROOT
BRANCH   9  10
ATOM     10  CB  VAL A 134     -30.864 132.765   9.009  1.00 40.76     0.029 C 
ATOM     11  CG1 VAL A 134     -32.107 132.975   9.861  1.00 41.76     0.002 C 
ATOM     12  CG2 VAL A 134     -30.372 134.085   8.437  1.00 40.56     0.002 C 
ENDBRANCH   9  10
END_RES VAL A 134
BEGIN_RES TYR A 338
REMARK  3 active torsions:
REMARK  status: ('A' for Active; 'I' for Inactive)
REMARK    4  A    between atoms: CA   and  CB  
REMARK    5  A    between atoms: CB   and  CG  
REMARK    6  A    between atoms: CZ   and  OH  
ROOT
ATOM     13  CA  TYR A 338     -41.631 124.950   6.058  1.00 38.23     0.164 C 
ENDROOT
BRANCH  13  14
ATOM     14  CB  TYR A 338     -41.621 126.456   6.339  1.00 39.15     0.058 C 
BRANCH  14  15
ATOM     15  CG  TYR A 338     -40.399 127.205   5.860  1.00 39.03    -0.020 A 
ATOM     16  CD2 TYR A 338     -40.228 128.542   6.174  1.00 40.65    -0.002 A 
ATOM     17  CE2 TYR A 338     -39.127 129.264   5.739  1.00 40.91     0.024 A 
ATOM     18  CZ  TYR A 338     -38.164 128.645   4.965  1.00 42.33     0.089 A 
ATOM     19  CE1 TYR A 338     -38.309 127.307   4.641  1.00 40.63     0.024 A 
ATOM     20  CD1 TYR A 338     -39.424 126.607   5.076  1.00 39.27    -0.002 A 
BRANCH  18  21
ATOM     21  OH  TYR A 338     -37.072 129.345   4.534  1.00 43.36    -0.359 OA
ATOM     22  HH  TYR A 338     -36.476 129.740   5.160  1.00  0.00     0.217 HD
ENDBRANCH  18  21
ENDBRANCH  14  15
ENDBRANCH  13  14
END_RES TYR A 338
ENDMDL
MODEL 5
REMARK VINA RESULT:    -6.200      2.305      4.150
REMARK INTER + INTRA:         -13.178
REMARK INTER:                 -10.552
REMARK INTRA:                  -2.625
REMARK UNBOUND:                -6.978
REMARK  0 active torsions:
REMARK  status: ('A' for Active; 'I' for Inactive)
REMARK       I    between atoms: C6_6  and  C7_7 
REMARK       I    between atoms: C8_8  and  C9_9 
REMARK       I    between atoms: C10_10  and  C11_11 
REMARK       I    between atoms: C12_16  and  C13_17 
REMARK       I    between atoms: C14_18  and  C15_19 
REMARK       I    between atoms: C16_20  and  C17_21 
REMARK       I    between atoms: C18_22  and  C19_23 
REMARK       I    between atoms: C20_24  and  C21_25 
REMARK       I    between atoms: C22_26  and  C23_27 
REMARK       I    between atoms: C24_28  and  C25_29 
ROOT
HETATM    1  C1  BCR A 409     -34.395 127.420   5.650  1.00 15.04    -0.020 C 
HETATM    2  C2  BCR A 409     -33.106 126.767   5.176  1.00 15.03     0.014 C 
HETATM    3  C3  BCR A 409     -31.980 127.752   5.126  1.00 15.05     0.005 C 
HETATM    4  C4  BCR A 409     -31.723 128.292   6.503  1.00 15.05     0.034 C 
HETATM    5  C5  BCR A 409     -32.971 128.776   7.135  1.00 15.05    -0.077 C 
HETATM    6  C6  BCR A 409     -34.206 128.414   6.757  1.00 15.04    -0.048 C 
HETATM    7  C7  BCR A 409     -35.412 128.927   7.433  1.00 15.04     0.009 C 
HETATM    8  C8  BCR A 409     -35.988 130.106   7.148  1.00 15.04     0.007 C 
HETATM    9  C9  BCR A 409     -37.125 130.675   7.856  1.00 15.05    -0.062 C 
HETATM   10  C10 BCR A 409     -37.440 131.961   7.661  1.00 15.04     0.007 C 
HETATM   11  C11 BCR A 409     -38.522 132.665   8.312  1.00 15.04     0.001 C 
HETATM   12  C33 BCR A 409     -32.719 129.721   8.236  1.00 15.05     0.044 C 
HETATM   13  C31 BCR A 409     -35.277 126.273   6.090  1.00 15.03     0.020 C 
HETATM   14  C32 BCR A 409     -35.046 128.058   4.439  1.00 15.04     0.020 C 
HETATM   15  C34 BCR A 409     -38.074 129.754   8.507  1.00 15.07     0.048 C 
HETATM   16  C12 BCR A 409     -38.901 133.854   7.835  1.00 15.03     0.007 C 
HETATM   17  C13 BCR A 409     -40.035 134.625   8.292  1.00 15.02    -0.062 C 
HETATM   18  C14 BCR A 409     -40.310 135.791   7.691  1.00 15.00     0.007 C 
HETATM   19  C15 BCR A 409     -41.375 136.668   8.099  1.00 14.99     0.001 C 
HETATM   20  C16 BCR A 409     -41.407 137.927   7.654  1.00 14.98     0.001 C 
HETATM   21  C17 BCR A 409     -42.529 138.749   8.005  1.00 14.98     0.007 C 
HETATM   22  C18 BCR A 409     -42.839 139.948   7.498  1.00 14.98    -0.062 C 
HETATM   23  C19 BCR A 409     -44.080 140.556   7.922  1.00 14.98     0.007 C 
HETATM   24  C20 BCR A 409     -44.292 141.869   7.849  1.00 15.00     0.001 C 
HETATM   25  C21 BCR A 409     -45.619 142.398   8.058  1.00 14.99     0.007 C 
HETATM   26  C22 BCR A 409     -45.875 143.647   8.453  1.00 14.99    -0.062 C 
HETATM   27  C23 BCR A 409     -47.187 143.978   8.981  1.00 14.97     0.007 C 
HETATM   28  C24 BCR A 409     -47.617 145.243   9.048  1.00 14.93     0.009 C 
HETATM   29  C25 BCR A 409     -48.933 145.713   9.461  1.00 14.90    -0.048 C 
HETATM   30  C26 BCR A 409     -49.981 145.722   8.631  1.00 14.90    -0.077 C 
HETATM   31  C27 BCR A 409     -51.340 146.191   8.944  1.00 14.89     0.034 C 
HETATM   32  C28 BCR A 409     -51.575 146.267  10.428  1.00 14.90     0.005 C 
HETATM   33  C29 BCR A 409     -50.402 146.925  11.101  1.00 14.91     0.014 C 
HETATM   34  C30 BCR A 409     -49.064 146.243  10.858  1.00 14.90    -0.020 C 
HETATM   35  C35 BCR A 409     -40.964 134.071   9.293  1.00 15.02     0.048 C 
HETATM   36  C36 BCR A 409     -41.909 140.748   6.678  1.00 14.95     0.048 C 
HETATM   37  C37 BCR A 409     -44.943 144.745   8.141  1.00 15.00     0.048 C 
HETATM   38  C38 BCR A 409     -49.927 145.248   7.237  1.00 14.89     0.044 C 
HETATM   39  C39 BCR A 409     -48.826 145.163  11.897  1.00 14.93     0.020 C 
HETATM   40  C40 BCR A 409     -48.029 147.318  11.129  1.00 14.91     0.020 C 
ENDROOT
TORSDOF 10
BEGIN_RES PHE A  61
REMARK  2 active torsions:
REMARK  status: ('A' for Active; 'I' for Inactive)
REMARK    1  A    between atoms: CA   and  CB  
REMARK    2  A    between atoms: CB   and  CG  
ROOT
ATOM      1  CA  PHE A  61     -36.237 128.293  12.768  1.00 39.40     0.164 C 
ENDROOT
BRANCH   1   2
ATOM      2  CB  PHE A  61     -36.813 128.951  11.509  1.00 39.41     0.058 C 
BRANCH   2   3
ATOM      3  CG  PHE A  61     -36.286 130.339  11.234  1.00 39.01    -0.020 A 
ATOM      4  CD2 PHE A  61     -37.052 131.460  11.513  1.00 40.32    -0.004 A 
ATOM      5  CE2 PHE A  61     -36.568 132.736  11.256  1.00 40.20    -0.000 A 
ATOM      6  CZ  PHE A  61     -35.311 132.906  10.721  1.00 40.34    -0.000 A 
ATOM      7  CE1 PHE A  61     -34.536 131.803  10.440  1.00 41.51    -0.000 A 
ATOM      8  CD1 PHE A  61     -35.023 130.526  10.690  1.00 39.94    -0.004 A 
ENDBRANCH   2   3
ENDBRANCH   1   2
END_RES PHE A  61
BEGIN_RES VAL A 134
REMARK  1 active torsions:
REMARK  status: ('A' for Active; 'I' for Inactive)
REMARK    3  A    between atoms: CA   and  CB  
ROOT
ATOM      9  CA  VAL A 134     -29.766 132.051   9.815  1.00 40.75     0.159 C 
ENDROOT
BRANCH   9  10
ATOM     10  CB  VAL A 134     -30.864 132.765   9.009  1.00 40.76     0.029 C 
ATOM     11  CG1 VAL A 134     -31.180 131.998   7.733  1.00 41.76     0.002 C 
ATOM     12  CG2 VAL A 134     -32.122 132.976   9.838  1.00 40.56     0.002 C 
ENDBRANCH   9  10
END_RES VAL A 134
BEGIN_RES TYR A 338
REMARK  3 active torsions:
REMARK  status: ('A' for Active; 'I' for Inactive)
REMARK    4  A    between atoms: CA   and  CB  
REMARK    5  A    between atoms: CB   and  CG  
REMARK    6  A    between atoms: CZ   and  OH  
ROOT
ATOM     13  CA  TYR A 338     -41.631 124.950   6.058  1.00 38.23     0.164 C 
ENDROOT
BRANCH  13  14
ATOM     14  CB  TYR A 338     -41.621 126.456   6.339  1.00 39.15     0.058 C 
BRANCH  14  15
ATOM     15  CG  TYR A 338     -40.425 127.214   5.810  1.00 39.03    -0.020 A 
ATOM     16  CD2 TYR A 338     -40.295 128.572   6.048  1.00 40.65    -0.002 A 
ATOM     17  CE2 TYR A 338     -39.220 129.302   5.565  1.00 40.91     0.024 A 
ATOM     18  CZ  TYR A 338     -38.241 128.670   4.821  1.00 42.33     0.089 A 
ATOM     19  CE1 TYR A 338     -38.346 127.313   4.574  1.00 40.63     0.024 A 
ATOM     20  CD1 TYR A 338     -39.436 126.604   5.055  1.00 39.27    -0.002 A 
BRANCH  18  21
ATOM     21  OH  TYR A 338     -37.174 129.379   4.343  1.00 43.36    -0.359 OA
ATOM     22  HH  TYR A 338     -37.311 130.157   3.816  1.00  0.00     0.217 HD
ENDBRANCH  18  21
ENDBRANCH  14  15
ENDBRANCH  13  14
END_RES TYR A 338
ENDMDL
