MODEL 1
REMARK VINA RESULT:    -9.407      0.000      0.000
REMARK INTER + INTRA:         -15.374
REMARK INTER:                  -9.407
REMARK INTRA:                  -5.967
REMARK UNBOUND:                -5.967
REMARK  0 active torsions:
REMARK  status: ('A' for Active; 'I' for Inactive)
REMARK       I    between atoms: C6_6  and  C7_7 
REMARK       I    between atoms: C8_8  and  C9_9 
REMARK       I    between atoms: C10_10  and  C11_11 
REMARK       I    between atoms: C12_16  and  C13_17 
REMARK       I    between atoms: C14_18  and  C15_19 
REMARK       I    between atoms: C16_20  and  C17_21 
REMARK       I    between atoms: C18_22  and  C19_23 
REMARK       I    between atoms: C20_24  and  C21_25 
REMARK       I    between atoms: C22_26  and  C23_27 
REMARK       I    between atoms: C24_28  and  C25_29 
ROOT
HETATM    1  C1  BCR B 618     -50.313 149.920  11.212  1.00 32.08    -0.020 C 
HETATM    2  C2  BCR B 618     -51.600 150.636  10.817  1.00 32.02     0.014 C 
HETATM    3  C3  BCR B 618     -52.564 149.763  10.035  1.00 30.00     0.005 C 
HETATM    4  C4  BCR B 618     -51.878 148.917   8.976  1.00 29.70     0.034 C 
HETATM    5  C5  BCR B 618     -50.429 149.302   8.893  1.00 32.08    -0.077 C 
HETATM    6  C6  BCR B 618     -49.706 149.280  10.003  1.00 29.52    -0.048 C 
HETATM    7  C7  BCR B 618     -48.370 148.669  10.105  1.00 26.64     0.009 C 
HETATM    8  C8  BCR B 618     -47.996 147.585   9.443  1.00 26.25     0.007 C 
HETATM    9  C9  BCR B 618     -46.624 147.079   9.637  1.00 28.38    -0.062 C 
HETATM   10  C10 BCR B 618     -46.343 145.803   9.376  1.00 28.10     0.007 C 
HETATM   11  C11 BCR B 618     -45.031 145.201   9.552  1.00 22.97     0.001 C 
HETATM   12  C33 BCR B 618     -49.867 149.755   7.585  1.00 36.33     0.044 C 
HETATM   13  C31 BCR B 618     -50.555 148.845  12.260  1.00 29.12     0.020 C 
HETATM   14  C32 BCR B 618     -49.344 150.952  11.742  1.00 31.50     0.020 C 
HETATM   15  C34 BCR B 618     -45.549 147.997  10.110  1.00 24.68     0.048 C 
HETATM   16  C12 BCR B 618     -44.923 143.958   9.113  1.00 27.25     0.007 C 
HETATM   17  C13 BCR B 618     -43.718 143.128   9.203  1.00 24.75    -0.062 C 
HETATM   18  C14 BCR B 618     -43.737 141.901   8.683  1.00 20.67     0.007 C 
HETATM   19  C15 BCR B 618     -42.585 141.028   8.791  1.00 20.47     0.001 C 
HETATM   20  C16 BCR B 618     -42.713 139.749   8.482  1.00 22.70     0.001 C 
HETATM   21  C17 BCR B 618     -41.587 138.855   8.637  1.00 22.25     0.007 C 
HETATM   22  C18 BCR B 618     -41.613 137.587   8.224  1.00 26.36    -0.062 C 
HETATM   23  C19 BCR B 618     -40.436 136.740   8.466  1.00 25.59     0.007 C 
HETATM   24  C20 BCR B 618     -40.319 135.497   8.025  1.00 24.27     0.001 C 
HETATM   25  C21 BCR B 618     -39.102 134.798   8.389  1.00 23.38     0.007 C 
HETATM   26  C22 BCR B 618     -38.818 133.534   8.066  1.00 27.07    -0.062 C 
HETATM   27  C23 BCR B 618     -37.544 132.965   8.548  1.00 25.86     0.007 C 
HETATM   28  C24 BCR B 618     -37.289 131.660   8.616  1.00 25.72     0.009 C 
HETATM   29  C25 BCR B 618     -36.010 131.129   9.149  1.00 30.28    -0.048 C 
HETATM   30  C26 BCR B 618     -35.837 131.070  10.470  1.00 31.25    -0.077 C 
HETATM   31  C27 BCR B 618     -34.757 130.214  11.059  1.00 29.22     0.034 C 
HETATM   32  C28 BCR B 618     -33.496 130.496  10.284  1.00 25.82     0.005 C 
HETATM   33  C29 BCR B 618     -33.712 130.000   8.876  1.00 26.07     0.014 C 
HETATM   34  C30 BCR B 618     -34.936 130.625   8.209  1.00 28.46    -0.020 C 
HETATM   35  C35 BCR B 618     -42.498 143.634   9.900  1.00 18.72     0.048 C 
HETATM   36  C36 BCR B 618     -42.821 137.027   7.550  1.00 23.59     0.048 C 
HETATM   37  C37 BCR B 618     -39.770 132.721   7.256  1.00 34.23     0.048 C 
HETATM   38  C38 BCR B 618     -36.690 131.840  11.425  1.00 29.70     0.044 C 
HETATM   39  C39 BCR B 618     -35.543 129.547   7.331  1.00 35.43     0.020 C 
HETATM   40  C40 BCR B 618     -34.466 131.793   7.371  1.00 25.20     0.020 C 
ENDROOT
TORSDOF 10
BEGIN_RES PHE A  61
REMARK  2 active torsions:
REMARK  status: ('A' for Active; 'I' for Inactive)
REMARK    1  A    between atoms: CA   and  CB  
REMARK    2  A    between atoms: CB   and  CG  
ROOT
ATOM      1  CA  PHE A  61     -36.237 128.293  12.768  1.00 39.40     0.164 C 
ENDROOT
BRANCH   1   2
ATOM      2  CB  PHE A  61     -36.813 128.951  11.509  1.00 39.41     0.058 C 
BRANCH   2   3
ATOM      3  CG  PHE A  61     -36.816 128.064  10.287  1.00 39.01    -0.020 A 
ATOM      4  CD2 PHE A  61     -37.911 128.025   9.439  1.00 40.32    -0.004 A 
ATOM      5  CE2 PHE A  61     -37.914 127.206   8.316  1.00 40.20    -0.000 A 
ATOM      6  CZ  PHE A  61     -36.822 126.420   8.028  1.00 40.34    -0.000 A 
ATOM      7  CE1 PHE A  61     -35.725 126.449   8.860  1.00 41.51    -0.000 A 
ATOM      8  CD1 PHE A  61     -35.724 127.262   9.986  1.00 39.94    -0.004 A 
ENDBRANCH   2   3
ENDBRANCH   1   2
END_RES PHE A  61
BEGIN_RES VAL A 134
REMARK  1 active torsions:
REMARK  status: ('A' for Active; 'I' for Inactive)
REMARK    3  A    between atoms: CA   and  CB  
ROOT
ATOM      9  CA  VAL A 134     -29.766 132.051   9.815  1.00 40.75     0.159 C 
ENDROOT
BRANCH   9  10
ATOM     10  CB  VAL A 134     -30.864 132.765   9.009  1.00 40.76     0.029 C 
ATOM     11  CG1 VAL A 134     -31.225 131.965   7.766  1.00 41.76     0.002 C 
ATOM     12  CG2 VAL A 134     -32.098 133.033   9.857  1.00 40.56     0.002 C 
ENDBRANCH   9  10
END_RES VAL A 134
BEGIN_RES TYR A 338
REMARK  3 active torsions:
REMARK  status: ('A' for Active; 'I' for Inactive)
REMARK    4  A    between atoms: CA   and  CB  
REMARK    5  A    between atoms: CB   and  CG  
REMARK    6  A    between atoms: CZ   and  OH  
ROOT
ATOM     13  CA  TYR A 338     -41.631 124.950   6.058  1.00 38.23     0.164 C 
ENDROOT
BRANCH  13  14
ATOM     14  CB  TYR A 338     -41.621 126.456   6.339  1.00 39.15     0.058 C 
BRANCH  14  15
ATOM     15  CG  TYR A 338     -40.396 127.204   5.864  1.00 39.03    -0.020 A 
ATOM     16  CD2 TYR A 338     -40.224 128.540   6.183  1.00 40.65    -0.002 A 
ATOM     17  CE2 TYR A 338     -39.121 129.261   5.751  1.00 40.91     0.024 A 
ATOM     18  CZ  TYR A 338     -38.157 128.642   4.978  1.00 42.33     0.089 A 
ATOM     19  CE1 TYR A 338     -38.304 127.306   4.651  1.00 40.63     0.024 A 
ATOM     20  CD1 TYR A 338     -39.421 126.606   5.081  1.00 39.27    -0.002 A 
BRANCH  18  21
ATOM     21  OH  TYR A 338     -37.063 129.342   4.551  1.00 43.36    -0.359 OA
ATOM     22  HH  TYR A 338     -36.445 128.946   3.948  1.00  0.00     0.217 HD
ENDBRANCH  18  21
ENDBRANCH  14  15
ENDBRANCH  13  14
END_RES TYR A 338
ENDMDL
MODEL 2
REMARK VINA RESULT:    -8.659      2.772      4.564
REMARK INTER + INTRA:         -14.626
REMARK INTER:                 -11.473
REMARK INTRA:                  -3.153
REMARK UNBOUND:                -5.967
REMARK  0 active torsions:
REMARK  status: ('A' for Active; 'I' for Inactive)
REMARK       I    between atoms: C6_6  and  C7_7 
REMARK       I    between atoms: C8_8  and  C9_9 
REMARK       I    between atoms: C10_10  and  C11_11 
REMARK       I    between atoms: C12_16  and  C13_17 
REMARK       I    between atoms: C14_18  and  C15_19 
REMARK       I    between atoms: C16_20  and  C17_21 
REMARK       I    between atoms: C18_22  and  C19_23 
REMARK       I    between atoms: C20_24  and  C21_25 
REMARK       I    between atoms: C22_26  and  C23_27 
REMARK       I    between atoms: C24_28  and  C25_29 
ROOT
HETATM    1  C1  BCR B 618     -44.465 149.002  12.061  1.00 32.08    -0.020 C 
HETATM    2  C2  BCR B 618     -45.150 149.903  13.082  1.00 32.02     0.014 C 
HETATM    3  C3  BCR B 618     -44.984 149.431  14.515  1.00 30.00     0.005 C 
HETATM    4  C4  BCR B 618     -45.160 147.931  14.673  1.00 29.70     0.034 C 
HETATM    5  C5  BCR B 618     -45.611 147.342  13.367  1.00 32.08    -0.077 C 
HETATM    6  C6  BCR B 618     -44.887 147.583  12.284  1.00 29.52    -0.048 C 
HETATM    7  C7  BCR B 618     -44.484 146.551  11.314  1.00 26.64     0.009 C 
HETATM    8  C8  BCR B 618     -44.190 145.301  11.639  1.00 26.25     0.007 C 
HETATM    9  C9  BCR B 618     -43.802 144.367  10.566  1.00 28.38    -0.062 C 
HETATM   10  C10 BCR B 618     -43.086 143.281  10.855  1.00 28.10     0.007 C 
HETATM   11  C11 BCR B 618     -42.636 142.310   9.871  1.00 22.97     0.001 C 
HETATM   12  C33 BCR B 618     -46.883 146.562  13.317  1.00 36.33     0.044 C 
HETATM   13  C31 BCR B 618     -42.949 149.078  12.155  1.00 29.12     0.020 C 
HETATM   14  C32 BCR B 618     -44.920 149.423  10.682  1.00 31.50     0.020 C 
HETATM   15  C34 BCR B 618     -44.222 144.628   9.160  1.00 24.68     0.048 C 
HETATM   16  C12 BCR B 618     -42.053 141.234  10.374  1.00 27.25     0.007 C 
HETATM   17  C13 BCR B 618     -41.490 140.130   9.590  1.00 24.75    -0.062 C 
HETATM   18  C14 BCR B 618     -40.964 139.086  10.230  1.00 20.67     0.007 C 
HETATM   19  C15 BCR B 618     -40.354 137.994   9.498  1.00 20.47     0.001 C 
HETATM   20  C16 BCR B 618     -39.636 137.098  10.153  1.00 22.70     0.001 C 
HETATM   21  C17 BCR B 618     -38.976 136.034   9.429  1.00 22.25     0.007 C 
HETATM   22  C18 BCR B 618     -38.346 135.030  10.040  1.00 26.36    -0.062 C 
HETATM   23  C19 BCR B 618     -37.663 134.019   9.220  1.00 25.59     0.007 C 
HETATM   24  C20 BCR B 618     -37.082 132.937   9.716  1.00 24.27     0.001 C 
HETATM   25  C21 BCR B 618     -36.426 132.066   8.761  1.00 23.38     0.007 C 
HETATM   26  C22 BCR B 618     -35.761 130.950   9.072  1.00 27.07    -0.062 C 
HETATM   27  C23 BCR B 618     -35.122 130.196   7.976  1.00 25.86     0.007 C 
HETATM   28  C24 BCR B 618     -34.156 129.298   8.154  1.00 25.72     0.009 C 
HETATM   29  C25 BCR B 618     -33.509 128.594   7.019  1.00 30.28    -0.048 C 
HETATM   30  C26 BCR B 618     -32.569 129.229   6.318  1.00 31.25    -0.077 C 
HETATM   31  C27 BCR B 618     -31.632 128.466   5.431  1.00 29.22     0.034 C 
HETATM   32  C28 BCR B 618     -32.471 127.514   4.618  1.00 25.82     0.005 C 
HETATM   33  C29 BCR B 618     -33.068 126.510   5.573  1.00 26.07     0.014 C 
HETATM   34  C30 BCR B 618     -33.880 127.164   6.689  1.00 28.46    -0.020 C 
HETATM   35  C35 BCR B 618     -41.472 140.190   8.099  1.00 18.72     0.048 C 
HETATM   36  C36 BCR B 618     -38.311 134.944  11.530  1.00 23.59     0.048 C 
HETATM   37  C37 BCR B 618     -35.659 130.493  10.487  1.00 34.23     0.048 C 
HETATM   38  C38 BCR B 618     -32.396 130.713   6.371  1.00 29.70     0.044 C 
HETATM   39  C39 BCR B 618     -33.661 126.319   7.929  1.00 35.43     0.020 C 
HETATM   40  C40 BCR B 618     -35.336 127.145   6.281  1.00 25.20     0.020 C 
ENDROOT
TORSDOF 10
BEGIN_RES PHE A  61
REMARK  2 active torsions:
REMARK  status: ('A' for Active; 'I' for Inactive)
REMARK    1  A    between atoms: CA   and  CB  
REMARK    2  A    between atoms: CB   and  CG  
ROOT
ATOM      1  CA  PHE A  61     -36.237 128.293  12.768  1.00 39.40     0.164 C 
ENDROOT
BRANCH   1   2
ATOM      2  CB  PHE A  61     -36.813 128.951  11.509  1.00 39.41     0.058 C 
BRANCH   2   3
ATOM      3  CG  PHE A  61     -37.028 128.004  10.353  1.00 39.01    -0.020 A 
ATOM      4  CD2 PHE A  61     -36.238 126.875  10.201  1.00 40.32    -0.004 A 
ATOM      5  CE2 PHE A  61     -36.434 126.007   9.134  1.00 40.20    -0.000 A 
ATOM      6  CZ  PHE A  61     -37.425 126.254   8.211  1.00 40.34    -0.000 A 
ATOM      7  CE1 PHE A  61     -38.220 127.370   8.349  1.00 41.51    -0.000 A 
ATOM      8  CD1 PHE A  61     -38.019 128.243   9.411  1.00 39.94    -0.004 A 
ENDBRANCH   2   3
ENDBRANCH   1   2
END_RES PHE A  61
BEGIN_RES VAL A 134
REMARK  1 active torsions:
REMARK  status: ('A' for Active; 'I' for Inactive)
REMARK    3  A    between atoms: CA   and  CB  
ROOT
ATOM      9  CA  VAL A 134     -29.766 132.051   9.815  1.00 40.75     0.159 C 
ENDROOT
BRANCH   9  10
ATOM     10  CB  VAL A 134     -30.864 132.765   9.009  1.00 40.76     0.029 C 
ATOM     11  CG1 VAL A 134     -30.826 132.336   7.550  1.00 41.76     0.002 C 
ATOM     12  CG2 VAL A 134     -32.243 132.528   9.606  1.00 40.56     0.002 C 
ENDBRANCH   9  10
END_RES VAL A 134
BEGIN_RES TYR A 338
REMARK  3 active torsions:
REMARK  status: ('A' for Active; 'I' for Inactive)
REMARK    4  A    between atoms: CA   and  CB  
REMARK    5  A    between atoms: CB   and  CG  
REMARK    6  A    between atoms: CZ   and  OH  
ROOT
ATOM     13  CA  TYR A 338     -41.631 124.950   6.058  1.00 38.23     0.164 C 
ENDROOT
BRANCH  13  14
ATOM     14  CB  TYR A 338     -41.621 126.456   6.339  1.00 39.15     0.058 C 
BRANCH  14  15
ATOM     15  CG  TYR A 338     -40.405 127.207   5.847  1.00 39.03    -0.020 A 
ATOM     16  CD2 TYR A 338     -40.229 128.542   6.168  1.00 40.65    -0.002 A 
ATOM     17  CE2 TYR A 338     -39.135 129.266   5.721  1.00 40.91     0.024 A 
ATOM     18  CZ  TYR A 338     -38.182 128.652   4.930  1.00 42.33     0.089 A 
ATOM     19  CE1 TYR A 338     -38.333 127.316   4.600  1.00 40.63     0.024 A 
ATOM     20  CD1 TYR A 338     -39.442 126.614   5.046  1.00 39.27    -0.002 A 
BRANCH  18  21
ATOM     21  OH  TYR A 338     -37.096 129.354   4.488  1.00 43.36    -0.359 OA
ATOM     22  HH  TYR A 338     -37.194 130.017   3.814  1.00  0.00     0.217 HD
ENDBRANCH  18  21
ENDBRANCH  14  15
ENDBRANCH  13  14
END_RES TYR A 338
ENDMDL
MODEL 3
REMARK VINA RESULT:    -8.292      2.865      4.822
REMARK INTER + INTRA:         -14.259
REMARK INTER:                 -11.858
REMARK INTRA:                  -2.402
REMARK UNBOUND:                -5.967
REMARK  0 active torsions:
REMARK  status: ('A' for Active; 'I' for Inactive)
REMARK       I    between atoms: C6_6  and  C7_7 
REMARK       I    between atoms: C8_8  and  C9_9 
REMARK       I    between atoms: C10_10  and  C11_11 
REMARK       I    between atoms: C12_16  and  C13_17 
REMARK       I    between atoms: C14_18  and  C15_19 
REMARK       I    between atoms: C16_20  and  C17_21 
REMARK       I    between atoms: C18_22  and  C19_23 
REMARK       I    between atoms: C20_24  and  C21_25 
REMARK       I    between atoms: C22_26  and  C23_27 
REMARK       I    between atoms: C24_28  and  C25_29 
ROOT
HETATM    1  C1  BCR B 618     -44.046 148.450  14.209  1.00 32.08    -0.020 C 
HETATM    2  C2  BCR B 618     -45.170 149.163  14.954  1.00 32.02     0.014 C 
HETATM    3  C3  BCR B 618     -46.069 148.223  15.736  1.00 30.00     0.005 C 
HETATM    4  C4  BCR B 618     -46.424 146.961  14.970  1.00 29.70     0.034 C 
HETATM    5  C5  BCR B 618     -45.903 147.068  13.566  1.00 32.08    -0.077 C 
HETATM    6  C6  BCR B 618     -44.617 147.336  13.389  1.00 29.52    -0.048 C 
HETATM    7  C7  BCR B 618     -43.743 146.608  12.454  1.00 26.64     0.009 C 
HETATM    8  C8  BCR B 618     -43.852 145.316  12.187  1.00 26.25     0.007 C 
HETATM    9  C9  BCR B 618     -42.910 144.713  11.227  1.00 28.38    -0.062 C 
HETATM   10  C10 BCR B 618     -42.677 143.401  11.258  1.00 28.10     0.007 C 
HETATM   11  C11 BCR B 618     -41.754 142.712  10.370  1.00 22.97     0.001 C 
HETATM   12  C33 BCR B 618     -46.851 146.931  12.421  1.00 36.33     0.044 C 
HETATM   13  C31 BCR B 618     -43.007 147.872  15.158  1.00 29.12     0.020 C 
HETATM   14  C32 BCR B 618     -43.396 149.446  13.274  1.00 31.50     0.020 C 
HETATM   15  C34 BCR B 618     -42.230 145.566  10.211  1.00 24.68     0.048 C 
HETATM   16  C12 BCR B 618     -41.762 141.393  10.471  1.00 27.25     0.007 C 
HETATM   17  C13 BCR B 618     -40.905 140.479   9.709  1.00 24.75    -0.062 C 
HETATM   18  C14 BCR B 618     -41.046 139.165   9.882  1.00 20.67     0.007 C 
HETATM   19  C15 BCR B 618     -40.189 138.225   9.187  1.00 20.47     0.001 C 
HETATM   20  C16 BCR B 618     -40.190 136.956   9.555  1.00 22.70     0.001 C 
HETATM   21  C17 BCR B 618     -39.301 136.017   8.906  1.00 22.25     0.007 C 
HETATM   22  C18 BCR B 618     -39.344 134.705   9.140  1.00 26.36    -0.062 C 
HETATM   23  C19 BCR B 618     -38.368 133.834   8.469  1.00 25.59     0.007 C 
HETATM   24  C20 BCR B 618     -38.374 132.513   8.561  1.00 24.27     0.001 C 
HETATM   25  C21 BCR B 618     -37.313 131.816   7.860  1.00 23.38     0.007 C 
HETATM   26  C22 BCR B 618     -37.134 130.493   7.860  1.00 27.07    -0.062 C 
HETATM   27  C23 BCR B 618     -35.980 129.950   7.118  1.00 25.86     0.007 C 
HETATM   28  C24 BCR B 618     -35.474 128.734   7.313  1.00 25.72     0.009 C 
HETATM   29  C25 BCR B 618     -34.284 128.242   6.575  1.00 30.28    -0.048 C 
HETATM   30  C26 BCR B 618     -33.073 128.635   6.971  1.00 31.25    -0.077 C 
HETATM   31  C27 BCR B 618     -31.848 127.895   6.526  1.00 29.22     0.034 C 
HETATM   32  C28 BCR B 618     -31.974 127.687   5.038  1.00 25.82     0.005 C 
HETATM   33  C29 BCR B 618     -33.140 126.758   4.810  1.00 26.07     0.014 C 
HETATM   34  C30 BCR B 618     -34.440 127.279   5.417  1.00 28.46    -0.020 C 
HETATM   35  C35 BCR B 618     -39.865 141.011   8.780  1.00 18.72     0.048 C 
HETATM   36  C36 BCR B 618     -40.346 134.130  10.085  1.00 23.59     0.048 C 
HETATM   37  C37 BCR B 618     -38.066 129.598   8.603  1.00 34.23     0.048 C 
HETATM   38  C38 BCR B 618     -32.866 129.816   7.864  1.00 29.70     0.044 C 
HETATM   39  C39 BCR B 618     -35.199 126.063   5.913  1.00 35.43     0.020 C 
HETATM   40  C40 BCR B 618     -35.216 127.985   4.328  1.00 25.20     0.020 C 
ENDROOT
TORSDOF 10
BEGIN_RES PHE A  61
REMARK  2 active torsions:
REMARK  status: ('A' for Active; 'I' for Inactive)
REMARK    1  A    between atoms: CA   and  CB  
REMARK    2  A    between atoms: CB   and  CG  
ROOT
ATOM      1  CA  PHE A  61     -36.237 128.293  12.768  1.00 39.40     0.164 C 
ENDROOT
BRANCH   1   2
ATOM      2  CB  PHE A  61     -36.813 128.951  11.509  1.00 39.41     0.058 C 
BRANCH   2   3
ATOM      3  CG  PHE A  61     -36.292 130.342  11.238  1.00 39.01    -0.020 A 
ATOM      4  CD2 PHE A  61     -35.068 130.535  10.617  1.00 40.32    -0.004 A 
ATOM      5  CE2 PHE A  61     -34.588 131.815  10.371  1.00 40.20    -0.000 A 
ATOM      6  CZ  PHE A  61     -35.328 132.916  10.739  1.00 40.34    -0.000 A 
ATOM      7  CE1 PHE A  61     -36.547 132.741  11.355  1.00 41.51    -0.000 A 
ATOM      8  CD1 PHE A  61     -37.024 131.461  11.607  1.00 39.94    -0.004 A 
ENDBRANCH   2   3
ENDBRANCH   1   2
END_RES PHE A  61
BEGIN_RES VAL A 134
REMARK  1 active torsions:
REMARK  status: ('A' for Active; 'I' for Inactive)
REMARK    3  A    between atoms: CA   and  CB  
ROOT
ATOM      9  CA  VAL A 134     -29.766 132.051   9.815  1.00 40.75     0.159 C 
ENDROOT
BRANCH   9  10
ATOM     10  CB  VAL A 134     -30.864 132.765   9.009  1.00 40.76     0.029 C 
ATOM     11  CG1 VAL A 134     -31.179 131.999   7.732  1.00 41.76     0.002 C 
ATOM     12  CG2 VAL A 134     -32.122 132.974   9.838  1.00 40.56     0.002 C 
ENDBRANCH   9  10
END_RES VAL A 134
BEGIN_RES TYR A 338
REMARK  3 active torsions:
REMARK  status: ('A' for Active; 'I' for Inactive)
REMARK    4  A    between atoms: CA   and  CB  
REMARK    5  A    between atoms: CB   and  CG  
REMARK    6  A    between atoms: CZ   and  OH  
ROOT
ATOM     13  CA  TYR A 338     -41.631 124.950   6.058  1.00 38.23     0.164 C 
ENDROOT
BRANCH  13  14
ATOM     14  CB  TYR A 338     -41.621 126.456   6.339  1.00 39.15     0.058 C 
BRANCH  14  15
ATOM     15  CG  TYR A 338     -40.428 127.215   5.806  1.00 39.03    -0.020 A 
ATOM     16  CD2 TYR A 338     -40.332 128.585   5.983  1.00 40.65    -0.002 A 
ATOM     17  CE2 TYR A 338     -39.260 129.315   5.494  1.00 40.91     0.024 A 
ATOM     18  CZ  TYR A 338     -38.249 128.671   4.806  1.00 42.33     0.089 A 
ATOM     19  CE1 TYR A 338     -38.319 127.302   4.620  1.00 40.63     0.024 A 
ATOM     20  CD1 TYR A 338     -39.406 126.592   5.106  1.00 39.27    -0.002 A 
BRANCH  18  21
ATOM     21  OH  TYR A 338     -37.184 129.381   4.323  1.00 43.36    -0.359 OA
ATOM     22  HH  TYR A 338     -37.227 129.785   3.464  1.00  0.00     0.217 HD
ENDBRANCH  18  21
ENDBRANCH  14  15
ENDBRANCH  13  14
END_RES TYR A 338
ENDMDL
MODEL 4
REMARK VINA RESULT:    -6.898      2.744     16.510
REMARK INTER + INTRA:         -12.865
REMARK INTER:                  -8.975
REMARK INTRA:                  -3.890
REMARK UNBOUND:                -5.967
REMARK  0 active torsions:
REMARK  status: ('A' for Active; 'I' for Inactive)
REMARK       I    between atoms: C6_6  and  C7_7 
REMARK       I    between atoms: C8_8  and  C9_9 
REMARK       I    between atoms: C10_10  and  C11_11 
REMARK       I    between atoms: C12_16  and  C13_17 
REMARK       I    between atoms: C14_18  and  C15_19 
REMARK       I    between atoms: C16_20  and  C17_21 
REMARK       I    between atoms: C18_22  and  C19_23 
REMARK       I    between atoms: C20_24  and  C21_25 
REMARK       I    between atoms: C22_26  and  C23_27 
REMARK       I    between atoms: C24_28  and  C25_29 
ROOT
HETATM    1  C1  BCR B 618     -32.824 127.192   5.307  1.00 32.08    -0.020 C 
HETATM    2  C2  BCR B 618     -32.770 125.991   4.368  1.00 32.02     0.014 C 
HETATM    3  C3  BCR B 618     -33.750 126.081   3.212  1.00 30.00     0.005 C 
HETATM    4  C4  BCR B 618     -35.120 126.585   3.630  1.00 29.70     0.034 C 
HETATM    5  C5  BCR B 618     -35.171 126.710   5.126  1.00 32.08    -0.077 C 
HETATM    6  C6  BCR B 618     -34.238 127.433   5.730  1.00 29.52    -0.048 C 
HETATM    7  C7  BCR B 618     -34.519 128.438   6.768  1.00 26.64     0.009 C 
HETATM    8  C8  BCR B 618     -35.599 129.205   6.789  1.00 26.25     0.007 C 
HETATM    9  C9  BCR B 618     -35.755 130.172   7.890  1.00 28.38    -0.062 C 
HETATM   10  C10 BCR B 618     -36.542 131.237   7.734  1.00 28.10     0.007 C 
HETATM   11  C11 BCR B 618     -36.749 132.258   8.748  1.00 22.97     0.001 C 
HETATM   12  C33 BCR B 618     -36.222 125.971   5.886  1.00 36.33     0.044 C 
HETATM   13  C31 BCR B 618     -32.291 128.456   4.649  1.00 29.12     0.020 C 
HETATM   14  C32 BCR B 618     -32.007 126.864   6.536  1.00 31.50     0.020 C 
HETATM   15  C34 BCR B 618     -35.048 129.953   9.183  1.00 24.68     0.048 C 
HETATM   16  C12 BCR B 618     -37.668 133.163   8.451  1.00 27.25     0.007 C 
HETATM   17  C13 BCR B 618     -38.037 134.305   9.292  1.00 24.75    -0.062 C 
HETATM   18  C14 BCR B 618     -39.011 135.119   8.886  1.00 20.67     0.007 C 
HETATM   19  C15 BCR B 618     -39.377 136.288   9.661  1.00 20.47     0.001 C 
HETATM   20  C16 BCR B 618     -40.169 137.198   9.123  1.00 22.70     0.001 C 
HETATM   21  C17 BCR B 618     -40.500 138.395   9.865  1.00 22.25     0.007 C 
HETATM   22  C18 BCR B 618     -41.392 139.286   9.432  1.00 26.36    -0.062 C 
HETATM   23  C19 BCR B 618     -41.628 140.497  10.232  1.00 25.59     0.007 C 
HETATM   24  C20 BCR B 618     -42.549 141.404   9.943  1.00 24.27     0.001 C 
HETATM   25  C21 BCR B 618     -42.617 142.554  10.824  1.00 23.38     0.007 C 
HETATM   26  C22 BCR B 618     -43.454 143.583  10.678  1.00 27.07    -0.062 C 
HETATM   27  C23 BCR B 618     -43.367 144.690  11.650  1.00 25.86     0.007 C 
HETATM   28  C24 BCR B 618     -43.864 145.907  11.439  1.00 25.72     0.009 C 
HETATM   29  C25 BCR B 618     -43.716 147.006  12.425  1.00 30.28    -0.048 C 
HETATM   30  C26 BCR B 618     -42.557 147.664  12.488  1.00 31.25    -0.077 C 
HETATM   31  C27 BCR B 618     -42.473 148.995  13.173  1.00 29.22     0.034 C 
HETATM   32  C28 BCR B 618     -43.176 148.855  14.499  1.00 25.82     0.005 C 
HETATM   33  C29 BCR B 618     -44.637 148.616  14.211  1.00 26.07     0.014 C 
HETATM   34  C30 BCR B 618     -44.874 147.401  13.317  1.00 28.46    -0.020 C 
HETATM   35  C35 BCR B 618     -37.308 134.575  10.567  1.00 18.72     0.048 C 
HETATM   36  C36 BCR B 618     -42.123 139.075   8.148  1.00 23.59     0.048 C 
HETATM   37  C37 BCR B 618     -44.436 143.614   9.556  1.00 34.23     0.048 C 
HETATM   38  C38 BCR B 618     -41.297 147.125  11.893  1.00 29.70     0.044 C 
HETATM   39  C39 BCR B 618     -46.057 147.743  12.432  1.00 35.43     0.020 C 
HETATM   40  C40 BCR B 618     -45.197 146.221  14.207  1.00 25.20     0.020 C 
ENDROOT
TORSDOF 10
BEGIN_RES PHE A  61
REMARK  2 active torsions:
REMARK  status: ('A' for Active; 'I' for Inactive)
REMARK    1  A    between atoms: CA   and  CB  
REMARK    2  A    between atoms: CB   and  CG  
ROOT
ATOM      1  CA  PHE A  61     -36.237 128.293  12.768  1.00 39.40     0.164 C 
ENDROOT
BRANCH   1   2
ATOM      2  CB  PHE A  61     -36.813 128.951  11.509  1.00 39.41     0.058 C 
BRANCH   2   3
ATOM      3  CG  PHE A  61     -36.962 128.019  10.330  1.00 39.01    -0.020 A 
ATOM      4  CD2 PHE A  61     -36.017 127.038  10.075  1.00 40.32    -0.004 A 
ATOM      5  CE2 PHE A  61     -36.154 126.183   8.988  1.00 40.20    -0.000 A 
ATOM      6  CZ  PHE A  61     -37.238 126.297   8.148  1.00 40.34    -0.000 A 
ATOM      7  CE1 PHE A  61     -38.187 127.265   8.390  1.00 41.51    -0.000 A 
ATOM      8  CD1 PHE A  61     -38.047 128.124   9.472  1.00 39.94    -0.004 A 
ENDBRANCH   2   3
ENDBRANCH   1   2
END_RES PHE A  61
BEGIN_RES VAL A 134
REMARK  1 active torsions:
REMARK  status: ('A' for Active; 'I' for Inactive)
REMARK    3  A    between atoms: CA   and  CB  
ROOT
ATOM      9  CA  VAL A 134     -29.766 132.051   9.815  1.00 40.75     0.159 C 
ENDROOT
BRANCH   9  10
ATOM     10  CB  VAL A 134     -30.864 132.765   9.009  1.00 40.76     0.029 C 
ATOM     11  CG1 VAL A 134     -31.179 131.999   7.732  1.00 41.76     0.002 C 
ATOM     12  CG2 VAL A 134     -32.122 132.974   9.838  1.00 40.56     0.002 C 
ENDBRANCH   9  10
END_RES VAL A 134
BEGIN_RES TYR A 338
REMARK  3 active torsions:
REMARK  status: ('A' for Active; 'I' for Inactive)
REMARK    4  A    between atoms: CA   and  CB  
REMARK    5  A    between atoms: CB   and  CG  
REMARK    6  A    between atoms: CZ   and  OH  
ROOT
ATOM     13  CA  TYR A 338     -41.631 124.950   6.058  1.00 38.23     0.164 C 
ENDROOT
BRANCH  13  14
ATOM     14  CB  TYR A 338     -41.621 126.456   6.339  1.00 39.15     0.058 C 
BRANCH  14  15
ATOM     15  CG  TYR A 338     -40.431 127.216   5.800  1.00 39.03    -0.020 A 
ATOM     16  CD2 TYR A 338     -40.196 128.522   6.195  1.00 40.65    -0.002 A 
ATOM     17  CE2 TYR A 338     -39.124 129.254   5.709  1.00 40.91     0.024 A 
ATOM     18  CZ  TYR A 338     -38.255 128.678   4.801  1.00 42.33     0.089 A 
ATOM     19  CE1 TYR A 338     -38.466 127.373   4.394  1.00 40.63     0.024 A 
ATOM     20  CD1 TYR A 338     -39.552 126.662   4.882  1.00 39.27    -0.002 A 
BRANCH  18  21
ATOM     21  OH  TYR A 338     -37.192 129.389   4.318  1.00 43.36    -0.359 OA
ATOM     22  HH  TYR A 338     -36.679 129.053   3.593  1.00  0.00     0.217 HD
ENDBRANCH  18  21
ENDBRANCH  14  15
ENDBRANCH  13  14
END_RES TYR A 338
ENDMDL
