MODEL 1
REMARK VINA RESULT:    -8.588      0.000      0.000
REMARK INTER + INTRA:         -11.383
REMARK INTER:                  -8.588
REMARK INTRA:                  -2.795
REMARK UNBOUND:                -2.795
REMARK  0 active torsions:
REMARK  status: ('A' for Active; 'I' for Inactive)
REMARK       I    between atoms: C6_6  and  C7_7 
REMARK       I    between atoms: C8_8  and  C9_9 
REMARK       I    between atoms: C10_10  and  C11_11 
REMARK       I    between atoms: C12_16  and  C13_17 
REMARK       I    between atoms: C14_18  and  C15_19 
REMARK       I    between atoms: C16_20  and  C17_21 
REMARK       I    between atoms: C18_22  and  C19_23 
REMARK       I    between atoms: C20_24  and  C21_25 
REMARK       I    between atoms: C22_26  and  C23_27 
REMARK       I    between atoms: C24_28  and  C25_29 
ROOT
HETATM    1  C1  BCR B 618     -46.029 150.140  11.982  1.00 52.27    -0.020 C 
HETATM    2  C2  BCR B 618     -46.912 151.349  11.679  1.00 40.31     0.014 C 
HETATM    3  C3  BCR B 618     -47.616 151.226  10.335  1.00 36.34     0.005 C 
HETATM    4  C4  BCR B 618     -46.590 151.136   9.219  1.00 43.90     0.034 C 
HETATM    5  C5  BCR B 618     -45.469 150.169   9.541  1.00 42.39    -0.077 C 
HETATM    6  C6  BCR B 618     -45.208 149.717  10.778  1.00 41.32    -0.048 C 
HETATM    7  C7  BCR B 618     -44.072 148.778  10.959  1.00 37.02     0.009 C 
HETATM    8  C8  BCR B 618     -44.192 147.447  10.854  1.00 40.38     0.007 C 
HETATM    9  C9  BCR B 618     -43.018 146.553  11.021  1.00 43.44    -0.062 C 
HETATM   10  C10 BCR B 618     -43.128 145.252  10.703  1.00 33.05     0.007 C 
HETATM   11  C11 BCR B 618     -42.032 144.278  10.794  1.00 38.44     0.001 C 
HETATM   12  C33 BCR B 618     -44.613 149.714   8.403  1.00 43.01     0.044 C 
HETATM   13  C31 BCR B 618     -46.892 148.950  12.399  1.00 47.24     0.020 C 
HETATM   14  C32 BCR B 618     -45.076 150.529  13.109  1.00 46.10     0.020 C 
HETATM   15  C34 BCR B 618     -41.719 147.089  11.533  1.00 38.09     0.048 C 
HETATM   16  C12 BCR B 618     -42.322 142.994  10.537  1.00 45.48     0.007 C 
HETATM   17  C13 BCR B 618     -41.296 141.931  10.545  1.00 46.67    -0.062 C 
HETATM   18  C14 BCR B 618     -41.660 140.653  10.263  1.00 36.87     0.007 C 
HETATM   19  C15 BCR B 618     -40.724 139.517  10.217  1.00 33.54     0.001 C 
HETATM   20  C16 BCR B 618     -41.058 138.365   9.621  1.00 30.58     0.001 C 
HETATM   21  C17 BCR B 618     -40.120 137.221   9.551  1.00 36.03     0.007 C 
HETATM   22  C18 BCR B 618     -40.446 136.000   9.061  1.00 37.55    -0.062 C 
HETATM   23  C19 BCR B 618     -39.414 134.926   9.043  1.00 41.57     0.007 C 
HETATM   24  C20 BCR B 618     -39.488 133.744   8.409  1.00 44.50     0.001 C 
HETATM   25  C21 BCR B 618     -38.320 132.852   8.532  1.00 27.16     0.007 C 
HETATM   26  C22 BCR B 618     -38.078 131.733   7.813  1.00 45.91    -0.062 C 
HETATM   27  C23 BCR B 618     -36.939 131.030   8.050  1.00 42.15     0.007 C 
HETATM   28  C24 BCR B 618     -36.587 129.991   7.277  1.00 36.90     0.009 C 
HETATM   29  C25 BCR B 618     -35.378 129.144   7.438  1.00 40.99    -0.048 C 
HETATM   30  C26 BCR B 618     -34.126 129.647   7.276  1.00 43.47    -0.077 C 
HETATM   31  C27 BCR B 618     -32.883 128.792   7.424  1.00 44.02     0.034 C 
HETATM   32  C28 BCR B 618     -33.205 127.303   7.347  1.00 46.97     0.005 C 
HETATM   33  C29 BCR B 618     -34.387 126.935   8.235  1.00 50.46     0.014 C 
HETATM   34  C30 BCR B 618     -35.640 127.663   7.767  1.00 44.40    -0.020 C 
HETATM   35  C35 BCR B 618     -39.872 142.339  10.801  1.00 29.80     0.048 C 
HETATM   36  C36 BCR B 618     -41.829 135.720   8.546  1.00 38.94     0.048 C 
HETATM   37  C37 BCR B 618     -39.058 131.236   6.780  1.00 32.34     0.048 C 
HETATM   38  C38 BCR B 618     -33.856 131.093   6.947  1.00 35.16     0.044 C 
HETATM   39  C39 BCR B 618     -36.705 127.544   8.852  1.00 36.65     0.020 C 
HETATM   40  C40 BCR B 618     -36.199 126.926   6.560  1.00 45.60     0.020 C 
ENDROOT
TORSDOF 10
BEGIN_RES PHE A  61
REMARK  2 active torsions:
REMARK  status: ('A' for Active; 'I' for Inactive)
REMARK    1  A    between atoms: CA   and  CB  
REMARK    2  A    between atoms: CB   and  CG  
ROOT
ATOM      1  CA  PHE A  61     -36.237 128.293  12.768  1.00 39.40     0.164 C 
ENDROOT
BRANCH   1   2
ATOM      2  CB  PHE A  61     -36.813 128.951  11.509  1.00 39.41     0.058 C 
BRANCH   2   3
ATOM      3  CG  PHE A  61     -36.196 130.285  11.165  1.00 39.01    -0.020 A 
ATOM      4  CD2 PHE A  61     -36.894 131.466  11.366  1.00 40.32    -0.004 A 
ATOM      5  CE2 PHE A  61     -36.327 132.693  11.046  1.00 40.20    -0.000 A 
ATOM      6  CZ  PHE A  61     -35.055 132.754  10.524  1.00 40.34    -0.000 A 
ATOM      7  CE1 PHE A  61     -34.347 131.590  10.320  1.00 41.51    -0.000 A 
ATOM      8  CD1 PHE A  61     -34.916 130.363  10.634  1.00 39.94    -0.004 A 
ENDBRANCH   2   3
ENDBRANCH   1   2
END_RES PHE A  61
BEGIN_RES VAL A 134
REMARK  1 active torsions:
REMARK  status: ('A' for Active; 'I' for Inactive)
REMARK    3  A    between atoms: CA   and  CB  
ROOT
ATOM      9  CA  VAL A 134     -29.766 132.051   9.815  1.00 40.75     0.159 C 
ENDROOT
BRANCH   9  10
ATOM     10  CB  VAL A 134     -30.864 132.765   9.009  1.00 40.76     0.029 C 
ATOM     11  CG1 VAL A 134     -31.244 131.952   7.780  1.00 41.76     0.002 C 
ATOM     12  CG2 VAL A 134     -32.088 133.057   9.864  1.00 40.56     0.002 C 
ENDBRANCH   9  10
END_RES VAL A 134
BEGIN_RES TYR A 338
REMARK  3 active torsions:
REMARK  status: ('A' for Active; 'I' for Inactive)
REMARK    4  A    between atoms: CA   and  CB  
REMARK    5  A    between atoms: CB   and  CG  
REMARK    6  A    between atoms: CZ   and  OH  
ROOT
ATOM     13  CA  TYR A 338     -41.631 124.950   6.058  1.00 38.23     0.164 C 
ENDROOT
BRANCH  13  14
ATOM     14  CB  TYR A 338     -41.621 126.456   6.339  1.00 39.15     0.058 C 
BRANCH  14  15
ATOM     15  CG  TYR A 338     -40.442 127.220   5.780  1.00 39.03    -0.020 A 
ATOM     16  CD2 TYR A 338     -39.520 126.587   4.965  1.00 40.65    -0.002 A 
ATOM     17  CE2 TYR A 338     -38.419 127.252   4.448  1.00 40.91     0.024 A 
ATOM     18  CZ  TYR A 338     -38.222 128.587   4.747  1.00 42.33     0.089 A 
ATOM     19  CE1 TYR A 338     -39.132 129.243   5.556  1.00 40.63     0.024 A 
ATOM     20  CD1 TYR A 338     -40.220 128.556   6.074  1.00 39.27    -0.002 A 
BRANCH  18  21
ATOM     21  OH  TYR A 338     -37.142 129.255   4.239  1.00 43.36    -0.359 OA
ATOM     22  HH  TYR A 338     -36.353 128.782   4.001  1.00  0.00     0.217 HD
ENDBRANCH  18  21
ENDBRANCH  14  15
ENDBRANCH  13  14
END_RES TYR A 338
ENDMDL
MODEL 2
REMARK VINA RESULT:    -8.232      2.740     16.360
REMARK INTER + INTRA:         -11.027
REMARK INTER:                  -8.452
REMARK INTRA:                  -2.575
REMARK UNBOUND:                -2.795
REMARK  0 active torsions:
REMARK  status: ('A' for Active; 'I' for Inactive)
REMARK       I    between atoms: C6_6  and  C7_7 
REMARK       I    between atoms: C8_8  and  C9_9 
REMARK       I    between atoms: C10_10  and  C11_11 
REMARK       I    between atoms: C12_16  and  C13_17 
REMARK       I    between atoms: C14_18  and  C15_19 
REMARK       I    between atoms: C16_20  and  C17_21 
REMARK       I    between atoms: C18_22  and  C19_23 
REMARK       I    between atoms: C20_24  and  C21_25 
REMARK       I    between atoms: C22_26  and  C23_27 
REMARK       I    between atoms: C24_28  and  C25_29 
ROOT
HETATM    1  C1  BCR B 618     -32.345 130.051   7.607  1.00 52.27    -0.020 C 
HETATM    2  C2  BCR B 618     -31.604 128.957   6.840  1.00 40.31     0.014 C 
HETATM    3  C3  BCR B 618     -32.275 128.627   5.514  1.00 36.34     0.005 C 
HETATM    4  C4  BCR B 618     -33.685 128.118   5.760  1.00 43.90     0.034 C 
HETATM    5  C5  BCR B 618     -34.440 128.968   6.762  1.00 42.39    -0.077 C 
HETATM    6  C6  BCR B 618     -33.848 129.837   7.596  1.00 41.32    -0.048 C 
HETATM    7  C7  BCR B 618     -34.703 130.602   8.538  1.00 37.02     0.009 C 
HETATM    8  C8  BCR B 618     -35.263 131.782   8.233  1.00 40.38     0.007 C 
HETATM    9  C9  BCR B 618     -36.130 132.496   9.204  1.00 43.44    -0.062 C 
HETATM   10  C10 BCR B 618     -36.841 133.561   8.797  1.00 33.05     0.007 C 
HETATM   11  C11 BCR B 618     -37.756 134.328   9.652  1.00 38.44     0.001 C 
HETATM   12  C33 BCR B 618     -35.925 128.804   6.812  1.00 43.01     0.044 C 
HETATM   13  C31 BCR B 618     -32.065 131.415   6.979  1.00 47.24     0.020 C 
HETATM   14  C32 BCR B 618     -31.859 130.019   9.053  1.00 46.10     0.020 C 
HETATM   15  C34 BCR B 618     -36.224 132.036  10.624  1.00 38.09     0.048 C 
HETATM   16  C12 BCR B 618     -38.317 135.428   9.129  1.00 45.48     0.007 C 
HETATM   17  C13 BCR B 618     -39.294 136.251   9.872  1.00 46.67    -0.062 C 
HETATM   18  C14 BCR B 618     -39.833 137.346   9.273  1.00 36.87     0.007 C 
HETATM   19  C15 BCR B 618     -40.830 138.226   9.904  1.00 33.54     0.001 C 
HETATM   20  C16 BCR B 618     -41.566 139.076   9.176  1.00 30.58     0.001 C 
HETATM   21  C17 BCR B 618     -42.586 139.954   9.795  1.00 36.03     0.007 C 
HETATM   22  C18 BCR B 618     -43.275 140.908   9.123  1.00 37.55    -0.062 C 
HETATM   23  C19 BCR B 618     -44.279 141.730   9.856  1.00 41.57     0.007 C 
HETATM   24  C20 BCR B 618     -45.193 142.556   9.321  1.00 44.50     0.001 C 
HETATM   25  C21 BCR B 618     -46.089 143.252  10.263  1.00 27.16     0.007 C 
HETATM   26  C22 BCR B 618     -47.210 143.943   9.953  1.00 45.91    -0.062 C 
HETATM   27  C23 BCR B 618     -47.928 144.516  10.955  1.00 42.15     0.007 C 
HETATM   28  C24 BCR B 618     -49.114 145.098  10.716  1.00 36.90     0.009 C 
HETATM   29  C25 BCR B 618     -49.986 145.762  11.718  1.00 40.99    -0.048 C 
HETATM   30  C26 BCR B 618     -50.566 145.068  12.732  1.00 43.47    -0.077 C 
HETATM   31  C27 BCR B 618     -51.469 145.729  13.755  1.00 44.02     0.034 C 
HETATM   32  C28 BCR B 618     -51.965 147.091  13.279  1.00 46.97     0.005 C 
HETATM   33  C29 BCR B 618     -50.829 147.944  12.730  1.00 50.46     0.014 C 
HETATM   34  C30 BCR B 618     -50.209 147.271  11.513  1.00 44.40    -0.020 C 
HETATM   35  C35 BCR B 618     -39.695 135.788  11.244  1.00 29.80     0.048 C 
HETATM   36  C36 BCR B 618     -43.035 141.147   7.659  1.00 38.94     0.048 C 
HETATM   37  C37 BCR B 618     -47.656 144.114   8.523  1.00 32.34     0.048 C 
HETATM   38  C38 BCR B 618     -50.361 143.589  12.941  1.00 35.16     0.044 C 
HETATM   39  C39 BCR B 618     -48.888 147.962  11.195  1.00 36.65     0.020 C 
HETATM   40  C40 BCR B 618     -51.108 147.531  10.313  1.00 45.60     0.020 C 
ENDROOT
TORSDOF 10
BEGIN_RES PHE A  61
REMARK  2 active torsions:
REMARK  status: ('A' for Active; 'I' for Inactive)
REMARK    1  A    between atoms: CA   and  CB  
REMARK    2  A    between atoms: CB   and  CG  
ROOT
ATOM      1  CA  PHE A  61     -36.237 128.293  12.768  1.00 39.40     0.164 C 
ENDROOT
BRANCH   1   2
ATOM      2  CB  PHE A  61     -36.813 128.951  11.509  1.00 39.41     0.058 C 
BRANCH   2   3
ATOM      3  CG  PHE A  61     -36.826 128.060  10.290  1.00 39.01    -0.020 A 
ATOM      4  CD2 PHE A  61     -37.918 128.038   9.437  1.00 40.32    -0.004 A 
ATOM      5  CE2 PHE A  61     -37.931 127.216   8.317  1.00 40.20    -0.000 A 
ATOM      6  CZ  PHE A  61     -36.851 126.410   8.036  1.00 40.34    -0.000 A 
ATOM      7  CE1 PHE A  61     -35.757 126.422   8.873  1.00 41.51    -0.000 A 
ATOM      8  CD1 PHE A  61     -35.747 127.239   9.996  1.00 39.94    -0.004 A 
ENDBRANCH   2   3
ENDBRANCH   1   2
END_RES PHE A  61
BEGIN_RES VAL A 134
REMARK  1 active torsions:
REMARK  status: ('A' for Active; 'I' for Inactive)
REMARK    3  A    between atoms: CA   and  CB  
ROOT
ATOM      9  CA  VAL A 134     -29.766 132.051   9.815  1.00 40.75     0.159 C 
ENDROOT
BRANCH   9  10
ATOM     10  CB  VAL A 134     -30.864 132.765   9.009  1.00 40.76     0.029 C 
ATOM     11  CG1 VAL A 134     -32.085 133.027   9.878  1.00 41.76     0.002 C 
ATOM     12  CG2 VAL A 134     -30.355 134.057   8.389  1.00 40.56     0.002 C 
ENDBRANCH   9  10
END_RES VAL A 134
BEGIN_RES TYR A 338
REMARK  3 active torsions:
REMARK  status: ('A' for Active; 'I' for Inactive)
REMARK    4  A    between atoms: CA   and  CB  
REMARK    5  A    between atoms: CB   and  CG  
REMARK    6  A    between atoms: CZ   and  OH  
ROOT
ATOM     13  CA  TYR A 338     -41.631 124.950   6.058  1.00 38.23     0.164 C 
ENDROOT
BRANCH  13  14
ATOM     14  CB  TYR A 338     -41.621 126.456   6.339  1.00 39.15     0.058 C 
BRANCH  14  15
ATOM     15  CG  TYR A 338     -40.420 127.212   5.820  1.00 39.03    -0.020 A 
ATOM     16  CD2 TYR A 338     -40.246 128.550   6.130  1.00 40.65    -0.002 A 
ATOM     17  CE2 TYR A 338     -39.165 129.279   5.658  1.00 40.91     0.024 A 
ATOM     18  CZ  TYR A 338     -38.225 128.666   4.852  1.00 42.33     0.089 A 
ATOM     19  CE1 TYR A 338     -38.373 127.329   4.532  1.00 40.63     0.024 A 
ATOM     20  CD1 TYR A 338     -39.469 126.621   5.003  1.00 39.27    -0.002 A 
BRANCH  18  21
ATOM     21  OH  TYR A 338     -37.152 129.374   4.385  1.00 43.36    -0.359 OA
ATOM     22  HH  TYR A 338     -36.928 129.353   3.462  1.00  0.00     0.217 HD
ENDBRANCH  18  21
ENDBRANCH  14  15
ENDBRANCH  13  14
END_RES TYR A 338
ENDMDL
MODEL 3
REMARK VINA RESULT:    -8.088      3.336      4.341
REMARK INTER + INTRA:         -10.883
REMARK INTER:                  -9.552
REMARK INTRA:                  -1.331
REMARK UNBOUND:                -2.795
REMARK  0 active torsions:
REMARK  status: ('A' for Active; 'I' for Inactive)
REMARK       I    between atoms: C6_6  and  C7_7 
REMARK       I    between atoms: C8_8  and  C9_9 
REMARK       I    between atoms: C10_10  and  C11_11 
REMARK       I    between atoms: C12_16  and  C13_17 
REMARK       I    between atoms: C14_18  and  C15_19 
REMARK       I    between atoms: C16_20  and  C17_21 
REMARK       I    between atoms: C18_22  and  C19_23 
REMARK       I    between atoms: C20_24  and  C21_25 
REMARK       I    between atoms: C22_26  and  C23_27 
REMARK       I    between atoms: C24_28  and  C25_29 
ROOT
HETATM    1  C1  BCR B 618     -51.185 147.078   9.890  1.00 52.27    -0.020 C 
HETATM    2  C2  BCR B 618     -51.707 148.401  10.449  1.00 40.31     0.014 C 
HETATM    3  C3  BCR B 618     -50.746 149.020  11.455  1.00 36.34     0.005 C 
HETATM    4  C4  BCR B 618     -50.557 148.083  12.636  1.00 43.90     0.034 C 
HETATM    5  C5  BCR B 618     -50.331 146.648  12.205  1.00 42.39    -0.077 C 
HETATM    6  C6  BCR B 618     -50.610 146.187  10.977  1.00 41.32    -0.048 C 
HETATM    7  C7  BCR B 618     -50.349 144.755  10.686  1.00 37.02     0.009 C 
HETATM    8  C8  BCR B 618     -49.174 144.297  10.232  1.00 40.38     0.007 C 
HETATM    9  C9  BCR B 618     -48.957 142.850   9.980  1.00 43.44    -0.062 C 
HETATM   10  C10 BCR B 618     -47.715 142.401   9.732  1.00 33.05     0.007 C 
HETATM   11  C11 BCR B 618     -47.370 140.992   9.500  1.00 38.44     0.001 C 
HETATM   12  C33 BCR B 618     -49.772 145.711  13.227  1.00 43.01     0.044 C 
HETATM   13  C31 BCR B 618     -50.080 147.338   8.868  1.00 47.24     0.020 C 
HETATM   14  C32 BCR B 618     -52.359 146.353   9.236  1.00 46.10     0.020 C 
HETATM   15  C34 BCR B 618     -50.105 141.891  10.008  1.00 38.09     0.048 C 
HETATM   16  C12 BCR B 618     -46.102 140.712   9.164  1.00 45.48     0.007 C 
HETATM   17  C13 BCR B 618     -45.622 139.330   8.957  1.00 46.67    -0.062 C 
HETATM   18  C14 BCR B 618     -44.319 139.121   8.631  1.00 36.87     0.007 C 
HETATM   19  C15 BCR B 618     -43.723 137.791   8.424  1.00 33.54     0.001 C 
HETATM   20  C16 BCR B 618     -42.395 137.615   8.435  1.00 30.58     0.001 C 
HETATM   21  C17 BCR B 618     -41.781 136.281   8.248  1.00 36.03     0.007 C 
HETATM   22  C18 BCR B 618     -40.447 136.066   8.137  1.00 37.55    -0.062 C 
HETATM   23  C19 BCR B 618     -39.949 134.675   7.951  1.00 41.57     0.007 C 
HETATM   24  C20 BCR B 618     -38.677 134.254   8.039  1.00 44.50     0.001 C 
HETATM   25  C21 BCR B 618     -38.439 132.814   7.826  1.00 27.16     0.007 C 
HETATM   26  C22 BCR B 618     -37.298 132.135   8.082  1.00 45.91    -0.062 C 
HETATM   27  C23 BCR B 618     -37.256 130.799   7.835  1.00 42.15     0.007 C 
HETATM   28  C24 BCR B 618     -36.196 130.057   8.194  1.00 36.90     0.009 C 
HETATM   29  C25 BCR B 618     -36.028 128.598   7.973  1.00 40.99    -0.048 C 
HETATM   30  C26 BCR B 618     -36.832 127.687   8.581  1.00 43.47    -0.077 C 
HETATM   31  C27 BCR B 618     -36.664 126.194   8.376  1.00 44.02     0.034 C 
HETATM   32  C28 BCR B 618     -35.297 125.850   7.792  1.00 46.97     0.005 C 
HETATM   33  C29 BCR B 618     -34.953 126.738   6.603  1.00 50.46     0.014 C 
HETATM   34  C30 BCR B 618     -34.871 128.194   7.041  1.00 44.40    -0.020 C 
HETATM   35  C35 BCR B 618     -46.598 138.211   9.190  1.00 29.80     0.048 C 
HETATM   36  C36 BCR B 618     -39.475 137.210   8.196  1.00 38.94     0.048 C 
HETATM   37  C37 BCR B 618     -36.069 132.835   8.604  1.00 32.34     0.048 C 
HETATM   38  C38 BCR B 618     -37.963 128.070   9.500  1.00 35.16     0.044 C 
HETATM   39  C39 BCR B 618     -34.860 129.076   5.798  1.00 36.65     0.020 C 
HETATM   40  C40 BCR B 618     -33.525 128.416   7.715  1.00 45.60     0.020 C 
ENDROOT
TORSDOF 10
BEGIN_RES PHE A  61
REMARK  2 active torsions:
REMARK  status: ('A' for Active; 'I' for Inactive)
REMARK    1  A    between atoms: CA   and  CB  
REMARK    2  A    between atoms: CB   and  CG  
ROOT
ATOM      1  CA  PHE A  61     -36.237 128.293  12.768  1.00 39.40     0.164 C 
ENDROOT
BRANCH   1   2
ATOM      2  CB  PHE A  61     -36.813 128.951  11.509  1.00 39.41     0.058 C 
BRANCH   2   3
ATOM      3  CG  PHE A  61     -36.649 130.451  11.458  1.00 39.01    -0.020 A 
ATOM      4  CD2 PHE A  61     -35.395 131.026  11.318  1.00 40.32    -0.004 A 
ATOM      5  CE2 PHE A  61     -35.246 132.406  11.275  1.00 40.20    -0.000 A 
ATOM      6  CZ  PHE A  61     -36.347 133.227  11.367  1.00 40.34    -0.000 A 
ATOM      7  CE1 PHE A  61     -37.599 132.672  11.505  1.00 41.51    -0.000 A 
ATOM      8  CD1 PHE A  61     -37.749 131.292  11.555  1.00 39.94    -0.004 A 
ENDBRANCH   2   3
ENDBRANCH   1   2
END_RES PHE A  61
BEGIN_RES VAL A 134
REMARK  1 active torsions:
REMARK  status: ('A' for Active; 'I' for Inactive)
REMARK    3  A    between atoms: CA   and  CB  
ROOT
ATOM      9  CA  VAL A 134     -29.766 132.051   9.815  1.00 40.75     0.159 C 
ENDROOT
BRANCH   9  10
ATOM     10  CB  VAL A 134     -30.864 132.765   9.009  1.00 40.76     0.029 C 
ATOM     11  CG1 VAL A 134     -31.223 131.967   7.764  1.00 41.76     0.002 C 
ATOM     12  CG2 VAL A 134     -32.099 133.030   9.856  1.00 40.56     0.002 C 
ENDBRANCH   9  10
END_RES VAL A 134
BEGIN_RES TYR A 338
REMARK  3 active torsions:
REMARK  status: ('A' for Active; 'I' for Inactive)
REMARK    4  A    between atoms: CA   and  CB  
REMARK    5  A    between atoms: CB   and  CG  
REMARK    6  A    between atoms: CZ   and  OH  
ROOT
ATOM     13  CA  TYR A 338     -41.631 124.950   6.058  1.00 38.23     0.164 C 
ENDROOT
BRANCH  13  14
ATOM     14  CB  TYR A 338     -41.621 126.456   6.339  1.00 39.15     0.058 C 
BRANCH  14  15
ATOM     15  CG  TYR A 338     -40.392 127.202   5.872  1.00 39.03    -0.020 A 
ATOM     16  CD2 TYR A 338     -40.228 128.542   6.179  1.00 40.65    -0.002 A 
ATOM     17  CE2 TYR A 338     -39.121 129.262   5.754  1.00 40.91     0.024 A 
ATOM     18  CZ  TYR A 338     -38.146 128.638   4.999  1.00 42.33     0.089 A 
ATOM     19  CE1 TYR A 338     -38.286 127.298   4.683  1.00 40.63     0.024 A 
ATOM     20  CD1 TYR A 338     -39.406 126.600   5.107  1.00 39.27    -0.002 A 
BRANCH  18  21
ATOM     21  OH  TYR A 338     -37.049 129.337   4.579  1.00 43.36    -0.359 OA
ATOM     22  HH  TYR A 338     -37.146 130.077   3.991  1.00  0.00     0.217 HD
ENDBRANCH  18  21
ENDBRANCH  14  15
ENDBRANCH  13  14
END_RES TYR A 338
ENDMDL
MODEL 4
REMARK VINA RESULT:    -7.072      3.584     16.404
REMARK INTER + INTRA:          -9.866
REMARK INTER:                  -9.037
REMARK INTRA:                  -0.829
REMARK UNBOUND:                -2.795
REMARK  0 active torsions:
REMARK  status: ('A' for Active; 'I' for Inactive)
REMARK       I    between atoms: C6_6  and  C7_7 
REMARK       I    between atoms: C8_8  and  C9_9 
REMARK       I    between atoms: C10_10  and  C11_11 
REMARK       I    between atoms: C12_16  and  C13_17 
REMARK       I    between atoms: C14_18  and  C15_19 
REMARK       I    between atoms: C16_20  and  C17_21 
REMARK       I    between atoms: C18_22  and  C19_23 
REMARK       I    between atoms: C20_24  and  C21_25 
REMARK       I    between atoms: C22_26  and  C23_27 
REMARK       I    between atoms: C24_28  and  C25_29 
ROOT
HETATM    1  C1  BCR B 618     -33.422 128.324   6.346  1.00 52.27    -0.020 C 
HETATM    2  C2  BCR B 618     -32.828 126.918   6.273  1.00 40.31     0.014 C 
HETATM    3  C3  BCR B 618     -33.820 125.850   6.713  1.00 36.34     0.005 C 
HETATM    4  C4  BCR B 618     -34.228 126.085   8.157  1.00 43.90     0.034 C 
HETATM    5  C5  BCR B 618     -34.556 127.538   8.437  1.00 42.39    -0.077 C 
HETATM    6  C6  BCR B 618     -34.198 128.550   7.631  1.00 41.32    -0.048 C 
HETATM    7  C7  BCR B 618     -34.574 129.930   8.026  1.00 37.02     0.009 C 
HETATM    8  C8  BCR B 618     -35.737 130.504   7.683  1.00 40.38     0.007 C 
HETATM    9  C9  BCR B 618     -36.075 131.881   8.124  1.00 43.44    -0.062 C 
HETATM   10  C10 BCR B 618     -37.323 132.344   7.946  1.00 33.05     0.007 C 
HETATM   11  C11 BCR B 618     -37.787 133.673   8.368  1.00 38.44     0.001 C 
HETATM   12  C33 BCR B 618     -35.313 127.837   9.690  1.00 43.01     0.044 C 
HETATM   13  C31 BCR B 618     -34.380 128.551   5.178  1.00 47.24     0.020 C 
HETATM   14  C32 BCR B 618     -32.268 129.321   6.291  1.00 46.10     0.020 C 
HETATM   15  C34 BCR B 618     -35.042 132.750   8.769  1.00 38.09     0.048 C 
HETATM   16  C12 BCR B 618     -39.034 134.030   8.030  1.00 45.48     0.007 C 
HETATM   17  C13 BCR B 618     -39.631 135.317   8.441  1.00 46.67    -0.062 C 
HETATM   18  C14 BCR B 618     -40.907 135.607   8.073  1.00 36.87     0.007 C 
HETATM   19  C15 BCR B 618     -41.612 136.845   8.444  1.00 33.54     0.001 C 
HETATM   20  C16 BCR B 618     -42.945 136.939   8.348  1.00 30.58     0.001 C 
HETATM   21  C17 BCR B 618     -43.672 138.171   8.735  1.00 36.03     0.007 C 
HETATM   22  C18 BCR B 618     -45.001 138.358   8.551  1.00 37.55    -0.062 C 
HETATM   23  C19 BCR B 618     -45.619 139.644   8.983  1.00 41.57     0.007 C 
HETATM   24  C20 BCR B 618     -46.930 139.918   9.079  1.00 44.50     0.001 C 
HETATM   25  C21 BCR B 618     -47.292 141.269   9.547  1.00 27.16     0.007 C 
HETATM   26  C22 BCR B 618     -48.519 141.691   9.931  1.00 45.91    -0.062 C 
HETATM   27  C23 BCR B 618     -48.673 142.975  10.348  1.00 42.15     0.007 C 
HETATM   28  C24 BCR B 618     -49.836 143.405  10.862  1.00 36.90     0.009 C 
HETATM   29  C25 BCR B 618     -50.130 144.780  11.343  1.00 40.99    -0.048 C 
HETATM   30  C26 BCR B 618     -49.494 145.311  12.419  1.00 43.47    -0.077 C 
HETATM   31  C27 BCR B 618     -49.794 146.707  12.930  1.00 44.02     0.034 C 
HETATM   32  C28 BCR B 618     -51.120 147.237  12.393  1.00 46.97     0.005 C 
HETATM   33  C29 BCR B 618     -51.243 147.027  10.890  1.00 50.46     0.014 C 
HETATM   34  C30 BCR B 618     -51.218 145.540  10.564  1.00 44.40    -0.020 C 
HETATM   35  C35 BCR B 618     -38.806 136.220   9.316  1.00 29.80     0.048 C 
HETATM   36  C36 BCR B 618     -45.850 137.293   7.918  1.00 38.94     0.048 C 
HETATM   37  C37 BCR B 618     -49.716 140.777   9.874  1.00 32.34     0.048 C 
HETATM   38  C38 BCR B 618     -48.432 144.575  13.195  1.00 35.16     0.044 C 
HETATM   39  C39 BCR B 618     -51.007 145.374   9.063  1.00 36.65     0.020 C 
HETATM   40  C40 BCR B 618     -52.598 144.965  10.850  1.00 45.60     0.020 C 
ENDROOT
TORSDOF 10
BEGIN_RES PHE A  61
REMARK  2 active torsions:
REMARK  status: ('A' for Active; 'I' for Inactive)
REMARK    1  A    between atoms: CA   and  CB  
REMARK    2  A    between atoms: CB   and  CG  
ROOT
ATOM      1  CA  PHE A  61     -36.237 128.293  12.768  1.00 39.40     0.164 C 
ENDROOT
BRANCH   1   2
ATOM      2  CB  PHE A  61     -36.813 128.951  11.509  1.00 39.41     0.058 C 
BRANCH   2   3
ATOM      3  CG  PHE A  61     -36.703 130.457  11.486  1.00 39.01    -0.020 A 
ATOM      4  CD2 PHE A  61     -37.837 131.253  11.437  1.00 40.32    -0.004 A 
ATOM      5  CE2 PHE A  61     -37.734 132.638  11.413  1.00 40.20    -0.000 A 
ATOM      6  CZ  PHE A  61     -36.498 133.242  11.441  1.00 40.34    -0.000 A 
ATOM      7  CE1 PHE A  61     -35.361 132.466  11.491  1.00 41.51    -0.000 A 
ATOM      8  CD1 PHE A  61     -35.464 131.081  11.509  1.00 39.94    -0.004 A 
ENDBRANCH   2   3
ENDBRANCH   1   2
END_RES PHE A  61
BEGIN_RES VAL A 134
REMARK  1 active torsions:
REMARK  status: ('A' for Active; 'I' for Inactive)
REMARK    3  A    between atoms: CA   and  CB  
ROOT
ATOM      9  CA  VAL A 134     -29.766 132.051   9.815  1.00 40.75     0.159 C 
ENDROOT
BRANCH   9  10
ATOM     10  CB  VAL A 134     -30.864 132.765   9.009  1.00 40.76     0.029 C 
ATOM     11  CG1 VAL A 134     -31.213 131.974   7.757  1.00 41.76     0.002 C 
ATOM     12  CG2 VAL A 134     -32.105 133.018   9.852  1.00 40.56     0.002 C 
ENDBRANCH   9  10
END_RES VAL A 134
BEGIN_RES TYR A 338
REMARK  3 active torsions:
REMARK  status: ('A' for Active; 'I' for Inactive)
REMARK    4  A    between atoms: CA   and  CB  
REMARK    5  A    between atoms: CB   and  CG  
REMARK    6  A    between atoms: CZ   and  OH  
ROOT
ATOM     13  CA  TYR A 338     -41.631 124.950   6.058  1.00 38.23     0.164 C 
ENDROOT
BRANCH  13  14
ATOM     14  CB  TYR A 338     -41.621 126.456   6.339  1.00 39.15     0.058 C 
BRANCH  14  15
ATOM     15  CG  TYR A 338     -40.374 127.195   5.911  1.00 39.03    -0.020 A 
ATOM     16  CD2 TYR A 338     -40.126 128.477   6.371  1.00 40.65    -0.002 A 
ATOM     17  CE2 TYR A 338     -39.001 129.190   5.987  1.00 40.91     0.024 A 
ATOM     18  CZ  TYR A 338     -38.091 128.619   5.118  1.00 42.33     0.089 A 
ATOM     19  CE1 TYR A 338     -38.314 127.337   4.648  1.00 40.63     0.024 A 
ATOM     20  CD1 TYR A 338     -39.452 126.645   5.034  1.00 39.27    -0.002 A 
BRANCH  18  21
ATOM     21  OH  TYR A 338     -36.975 129.311   4.736  1.00 43.36    -0.359 OA
ATOM     22  HH  TYR A 338     -36.874 130.226   4.969  1.00  0.00     0.217 HD
ENDBRANCH  18  21
ENDBRANCH  14  15
ENDBRANCH  13  14
END_RES TYR A 338
ENDMDL
MODEL 5
REMARK VINA RESULT:    -6.775      2.611     16.508
REMARK INTER + INTRA:          -9.570
REMARK INTER:                  -6.486
REMARK INTRA:                  -3.084
REMARK UNBOUND:                -2.795
REMARK  0 active torsions:
REMARK  status: ('A' for Active; 'I' for Inactive)
REMARK       I    between atoms: C6_6  and  C7_7 
REMARK       I    between atoms: C8_8  and  C9_9 
REMARK       I    between atoms: C10_10  and  C11_11 
REMARK       I    between atoms: C12_16  and  C13_17 
REMARK       I    between atoms: C14_18  and  C15_19 
REMARK       I    between atoms: C16_20  and  C17_21 
REMARK       I    between atoms: C18_22  and  C19_23 
REMARK       I    between atoms: C20_24  and  C21_25 
REMARK       I    between atoms: C22_26  and  C23_27 
REMARK       I    between atoms: C24_28  and  C25_29 
ROOT
HETATM    1  C1  BCR B 618     -33.369 127.845   7.267  1.00 52.27    -0.020 C 
HETATM    2  C2  BCR B 618     -32.332 126.979   6.555  1.00 40.31     0.014 C 
HETATM    3  C3  BCR B 618     -31.982 127.517   5.175  1.00 36.34     0.005 C 
HETATM    4  C4  BCR B 618     -33.221 127.537   4.297  1.00 43.90     0.034 C 
HETATM    5  C5  BCR B 618     -34.428 128.109   5.013  1.00 42.39    -0.077 C 
HETATM    6  C6  BCR B 618     -34.505 128.250   6.345  1.00 41.32    -0.048 C 
HETATM    7  C7  BCR B 618     -35.750 128.817   6.922  1.00 37.02     0.009 C 
HETATM    8  C8  BCR B 618     -35.948 130.130   7.102  1.00 40.38     0.007 C 
HETATM    9  C9  BCR B 618     -37.222 130.647   7.662  1.00 43.44    -0.062 C 
HETATM   10  C10 BCR B 618     -37.471 131.967   7.631  1.00 33.05     0.007 C 
HETATM   11  C11 BCR B 618     -38.705 132.594   8.123  1.00 38.44     0.001 C 
HETATM   12  C33 BCR B 618     -35.588 128.523   4.167  1.00 43.01     0.044 C 
HETATM   13  C31 BCR B 618     -32.716 129.124   7.791  1.00 47.24     0.020 C 
HETATM   14  C32 BCR B 618     -33.946 127.029   8.421  1.00 46.10     0.020 C 
HETATM   15  C34 BCR B 618     -38.231 129.712   8.250  1.00 38.09     0.048 C 
HETATM   16  C12 BCR B 618     -38.763 133.933   8.118  1.00 45.48     0.007 C 
HETATM   17  C13 BCR B 618     -39.969 134.677   8.538  1.00 46.67    -0.062 C 
HETATM   18  C14 BCR B 618     -39.962 136.035   8.495  1.00 36.87     0.007 C 
HETATM   19  C15 BCR B 618     -41.109 136.880   8.865  1.00 33.54     0.001 C 
HETATM   20  C16 BCR B 618     -41.172 138.167   8.497  1.00 30.58     0.001 C 
HETATM   21  C17 BCR B 618     -42.328 139.024   8.846  1.00 36.03     0.007 C 
HETATM   22  C18 BCR B 618     -42.390 140.355   8.597  1.00 37.55    -0.062 C 
HETATM   23  C19 BCR B 618     -43.610 141.112   8.996  1.00 41.57     0.007 C 
HETATM   24  C20 BCR B 618     -43.934 142.367   8.642  1.00 44.50     0.001 C 
HETATM   25  C21 BCR B 618     -45.212 142.891   9.158  1.00 27.16     0.007 C 
HETATM   26  C22 BCR B 618     -45.843 144.020   8.761  1.00 45.91    -0.062 C 
HETATM   27  C23 BCR B 618     -47.027 144.350   9.340  1.00 42.15     0.007 C 
HETATM   28  C24 BCR B 618     -47.757 145.384   8.891  1.00 36.90     0.009 C 
HETATM   29  C25 BCR B 618     -49.056 145.849   9.441  1.00 40.99    -0.048 C 
HETATM   30  C26 BCR B 618     -50.173 145.077   9.382  1.00 43.47    -0.077 C 
HETATM   31  C27 BCR B 618     -51.509 145.542   9.926  1.00 44.02     0.034 C 
HETATM   32  C28 BCR B 618     -51.544 147.053  10.135  1.00 46.97     0.005 C 
HETATM   33  C29 BCR B 618     -50.305 147.548  10.871  1.00 50.46     0.014 C 
HETATM   34  C30 BCR B 618     -49.057 147.263  10.047  1.00 44.40    -0.020 C 
HETATM   35  C35 BCR B 618     -41.180 133.877   8.932  1.00 29.80     0.048 C 
HETATM   36  C36 BCR B 618     -41.247 141.069   7.934  1.00 38.94     0.048 C 
HETATM   37  C37 BCR B 618     -45.243 144.928   7.718  1.00 32.34     0.048 C 
HETATM   38  C38 BCR B 618     -50.187 143.693   8.785  1.00 35.16     0.044 C 
HETATM   39  C39 BCR B 618     -47.833 147.458  10.936  1.00 36.65     0.020 C 
HETATM   40  C40 BCR B 618     -48.948 148.323   8.961  1.00 45.60     0.020 C 
ENDROOT
TORSDOF 10
BEGIN_RES PHE A  61
REMARK  2 active torsions:
REMARK  status: ('A' for Active; 'I' for Inactive)
REMARK    1  A    between atoms: CA   and  CB  
REMARK    2  A    between atoms: CB   and  CG  
ROOT
ATOM      1  CA  PHE A  61     -36.237 128.293  12.768  1.00 39.40     0.164 C 
ENDROOT
BRANCH   1   2
ATOM      2  CB  PHE A  61     -36.813 128.951  11.509  1.00 39.41     0.058 C 
BRANCH   2   3
ATOM      3  CG  PHE A  61     -36.017 130.130  11.001  1.00 39.01    -0.020 A 
ATOM      4  CD2 PHE A  61     -34.734 129.962  10.505  1.00 40.32    -0.004 A 
ATOM      5  CE2 PHE A  61     -34.002 131.048  10.041  1.00 40.20    -0.000 A 
ATOM      6  CZ  PHE A  61     -34.546 132.312  10.065  1.00 40.34    -0.000 A 
ATOM      7  CE1 PHE A  61     -35.821 132.495  10.553  1.00 41.51    -0.000 A 
ATOM      8  CD1 PHE A  61     -36.550 131.411  11.023  1.00 39.94    -0.004 A 
ENDBRANCH   2   3
ENDBRANCH   1   2
END_RES PHE A  61
BEGIN_RES VAL A 134
REMARK  1 active torsions:
REMARK  status: ('A' for Active; 'I' for Inactive)
REMARK    3  A    between atoms: CA   and  CB  
ROOT
ATOM      9  CA  VAL A 134     -29.766 132.051   9.815  1.00 40.75     0.159 C 
ENDROOT
BRANCH   9  10
ATOM     10  CB  VAL A 134     -30.864 132.765   9.009  1.00 40.76     0.029 C 
ATOM     11  CG1 VAL A 134     -31.412 131.853   7.921  1.00 41.76     0.002 C 
ATOM     12  CG2 VAL A 134     -31.983 133.267   9.908  1.00 40.56     0.002 C 
ENDBRANCH   9  10
END_RES VAL A 134
BEGIN_RES TYR A 338
REMARK  3 active torsions:
REMARK  status: ('A' for Active; 'I' for Inactive)
REMARK    4  A    between atoms: CA   and  CB  
REMARK    5  A    between atoms: CB   and  CG  
REMARK    6  A    between atoms: CZ   and  OH  
ROOT
ATOM     13  CA  TYR A 338     -41.631 124.950   6.058  1.00 38.23     0.164 C 
ENDROOT
BRANCH  13  14
ATOM     14  CB  TYR A 338     -41.621 126.456   6.339  1.00 39.15     0.058 C 
BRANCH  14  15
ATOM     15  CG  TYR A 338     -40.461 127.226   5.750  1.00 39.03    -0.020 A 
ATOM     16  CD2 TYR A 338     -40.385 128.600   5.898  1.00 40.65    -0.002 A 
ATOM     17  CE2 TYR A 338     -39.344 129.339   5.358  1.00 40.91     0.024 A 
ATOM     18  CZ  TYR A 338     -38.345 128.701   4.648  1.00 42.33     0.089 A 
ATOM     19  CE1 TYR A 338     -38.396 127.327   4.491  1.00 40.63     0.024 A 
ATOM     20  CD1 TYR A 338     -39.453 126.607   5.028  1.00 39.27    -0.002 A 
BRANCH  18  21
ATOM     21  OH  TYR A 338     -37.311 129.419   4.115  1.00 43.36    -0.359 OA
ATOM     22  HH  TYR A 338     -36.520 129.569   4.619  1.00  0.00     0.217 HD
ENDBRANCH  18  21
ENDBRANCH  14  15
ENDBRANCH  13  14
END_RES TYR A 338
ENDMDL
MODEL 6
REMARK VINA RESULT:    -6.648      1.563     16.508
REMARK INTER + INTRA:          -9.443
REMARK INTER:                  -6.703
REMARK INTRA:                  -2.740
REMARK UNBOUND:                -2.795
REMARK  0 active torsions:
REMARK  status: ('A' for Active; 'I' for Inactive)
REMARK       I    between atoms: C6_6  and  C7_7 
REMARK       I    between atoms: C8_8  and  C9_9 
REMARK       I    between atoms: C10_10  and  C11_11 
REMARK       I    between atoms: C12_16  and  C13_17 
REMARK       I    between atoms: C14_18  and  C15_19 
REMARK       I    between atoms: C16_20  and  C17_21 
REMARK       I    between atoms: C18_22  and  C19_23 
REMARK       I    between atoms: C20_24  and  C21_25 
REMARK       I    between atoms: C22_26  and  C23_27 
REMARK       I    between atoms: C24_28  and  C25_29 
ROOT
HETATM    1  C1  BCR B 618     -33.709 127.423   7.261  1.00 52.27    -0.020 C 
HETATM    2  C2  BCR B 618     -32.724 126.532   6.504  1.00 40.31     0.014 C 
HETATM    3  C3  BCR B 618     -32.170 127.213   5.261  1.00 36.34     0.005 C 
HETATM    4  C4  BCR B 618     -33.302 127.539   4.301  1.00 43.90     0.034 C 
HETATM    5  C5  BCR B 618     -34.491 128.164   5.000  1.00 42.39    -0.077 C 
HETATM    6  C6  BCR B 618     -34.684 128.117   6.327  1.00 41.32    -0.048 C 
HETATM    7  C7  BCR B 618     -35.898 128.763   6.886  1.00 37.02     0.009 C 
HETATM    8  C8  BCR B 618     -35.944 130.051   7.257  1.00 40.38     0.007 C 
HETATM    9  C9  BCR B 618     -37.191 130.655   7.788  1.00 43.44    -0.062 C 
HETATM   10  C10 BCR B 618     -37.264 131.987   7.950  1.00 33.05     0.007 C 
HETATM   11  C11 BCR B 618     -38.451 132.703   8.435  1.00 38.44     0.001 C 
HETATM   12  C33 BCR B 618     -35.498 128.860   4.141  1.00 43.01     0.044 C 
HETATM   13  C31 BCR B 618     -32.954 128.504   8.033  1.00 47.24     0.020 C 
HETATM   14  C32 BCR B 618     -34.499 126.535   8.219  1.00 46.10     0.020 C 
HETATM   15  C34 BCR B 618     -38.366 129.796   8.137  1.00 38.09     0.048 C 
HETATM   16  C12 BCR B 618     -38.337 134.023   8.640  1.00 45.48     0.007 C 
HETATM   17  C13 BCR B 618     -39.474 134.861   9.075  1.00 46.67    -0.062 C 
HETATM   18  C14 BCR B 618     -39.288 136.195   9.250  1.00 36.87     0.007 C 
HETATM   19  C15 BCR B 618     -40.349 137.131   9.658  1.00 33.54     0.001 C 
HETATM   20  C16 BCR B 618     -40.209 138.453   9.497  1.00 30.58     0.001 C 
HETATM   21  C17 BCR B 618     -41.276 139.406   9.884  1.00 36.03     0.007 C 
HETATM   22  C18 BCR B 618     -41.141 140.754   9.848  1.00 37.55    -0.062 C 
HETATM   23  C19 BCR B 618     -42.288 141.609  10.263  1.00 41.57     0.007 C 
HETATM   24  C20 BCR B 618     -42.411 142.935  10.090  1.00 44.50     0.001 C 
HETATM   25  C21 BCR B 618     -43.657 143.554  10.579  1.00 27.16     0.007 C 
HETATM   26  C22 BCR B 618     -44.095 144.807  10.319  1.00 45.91    -0.062 C 
HETATM   27  C23 BCR B 618     -45.280 145.214  10.846  1.00 42.15     0.007 C 
HETATM   28  C24 BCR B 618     -45.821 146.396  10.511  1.00 36.90     0.009 C 
HETATM   29  C25 BCR B 618     -47.100 146.954  11.022  1.00 40.99    -0.048 C 
HETATM   30  C26 BCR B 618     -48.294 146.366  10.751  1.00 43.47    -0.077 C 
HETATM   31  C27 BCR B 618     -49.608 146.932  11.254  1.00 44.02     0.034 C 
HETATM   32  C28 BCR B 618     -49.469 148.384  11.698  1.00 46.97     0.005 C 
HETATM   33  C29 BCR B 618     -48.259 148.585  12.601  1.00 50.46     0.014 C 
HETATM   34  C30 BCR B 618     -46.980 148.249  11.845  1.00 44.40    -0.020 C 
HETATM   35  C35 BCR B 618     -40.811 134.192   9.237  1.00 29.80     0.048 C 
HETATM   36  C36 BCR B 618     -39.855 141.388   9.401  1.00 38.94     0.048 C 
HETATM   37  C37 BCR B 618     -43.281 145.765   9.485  1.00 32.34     0.048 C 
HETATM   38  C38 BCR B 618     -48.425 145.102   9.941  1.00 35.16     0.044 C 
HETATM   39  C39 BCR B 618     -45.838 148.135  12.848  1.00 36.65     0.020 C 
HETATM   40  C40 BCR B 618     -46.627 149.432  10.954  1.00 45.60     0.020 C 
ENDROOT
TORSDOF 10
BEGIN_RES PHE A  61
REMARK  2 active torsions:
REMARK  status: ('A' for Active; 'I' for Inactive)
REMARK    1  A    between atoms: CA   and  CB  
REMARK    2  A    between atoms: CB   and  CG  
ROOT
ATOM      1  CA  PHE A  61     -36.237 128.293  12.768  1.00 39.40     0.164 C 
ENDROOT
BRANCH   1   2
ATOM      2  CB  PHE A  61     -36.813 128.951  11.509  1.00 39.41     0.058 C 
BRANCH   2   3
ATOM      3  CG  PHE A  61     -36.077 130.191  11.061  1.00 39.01    -0.020 A 
ATOM      4  CD2 PHE A  61     -34.856 130.099  10.412  1.00 40.32    -0.004 A 
ATOM      5  CE2 PHE A  61     -34.179 131.241  10.003  1.00 40.20    -0.000 A 
ATOM      6  CZ  PHE A  61     -34.716 132.487  10.235  1.00 40.34    -0.000 A 
ATOM      7  CE1 PHE A  61     -35.930 132.595  10.877  1.00 41.51    -0.000 A 
ATOM      8  CD1 PHE A  61     -36.604 131.454  11.291  1.00 39.94    -0.004 A 
ENDBRANCH   2   3
ENDBRANCH   1   2
END_RES PHE A  61
BEGIN_RES VAL A 134
REMARK  1 active torsions:
REMARK  status: ('A' for Active; 'I' for Inactive)
REMARK    3  A    between atoms: CA   and  CB  
ROOT
ATOM      9  CA  VAL A 134     -29.766 132.051   9.815  1.00 40.75     0.159 C 
ENDROOT
BRANCH   9  10
ATOM     10  CB  VAL A 134     -30.864 132.765   9.009  1.00 40.76     0.029 C 
ATOM     11  CG1 VAL A 134     -31.474 131.824   7.980  1.00 41.76     0.002 C 
ATOM     12  CG2 VAL A 134     -31.939 133.345   9.916  1.00 40.56     0.002 C 
ENDBRANCH   9  10
END_RES VAL A 134
BEGIN_RES TYR A 338
REMARK  3 active torsions:
REMARK  status: ('A' for Active; 'I' for Inactive)
REMARK    4  A    between atoms: CA   and  CB  
REMARK    5  A    between atoms: CB   and  CG  
REMARK    6  A    between atoms: CZ   and  OH  
ROOT
ATOM     13  CA  TYR A 338     -41.631 124.950   6.058  1.00 38.23     0.164 C 
ENDROOT
BRANCH  13  14
ATOM     14  CB  TYR A 338     -41.621 126.456   6.339  1.00 39.15     0.058 C 
BRANCH  14  15
ATOM     15  CG  TYR A 338     -40.454 127.223   5.762  1.00 39.03    -0.020 A 
ATOM     16  CD2 TYR A 338     -40.402 128.603   5.865  1.00 40.65    -0.002 A 
ATOM     17  CE2 TYR A 338     -39.355 129.340   5.334  1.00 40.91     0.024 A 
ATOM     18  CZ  TYR A 338     -38.324 128.693   4.678  1.00 42.33     0.089 A 
ATOM     19  CE1 TYR A 338     -38.351 127.314   4.567  1.00 40.63     0.024 A 
ATOM     20  CD1 TYR A 338     -39.414 126.597   5.093  1.00 39.27    -0.002 A 
BRANCH  18  21
ATOM     21  OH  TYR A 338     -37.284 129.409   4.155  1.00 43.36    -0.359 OA
ATOM     22  HH  TYR A 338     -37.422 129.983   3.410  1.00  0.00     0.217 HD
ENDBRANCH  18  21
ENDBRANCH  14  15
ENDBRANCH  13  14
END_RES TYR A 338
ENDMDL
MODEL 7
REMARK VINA RESULT:    -6.208      2.778      3.625
REMARK INTER + INTRA:          -9.003
REMARK INTER:                  -5.955
REMARK INTRA:                  -3.048
REMARK UNBOUND:                -2.795
REMARK  0 active torsions:
REMARK  status: ('A' for Active; 'I' for Inactive)
REMARK       I    between atoms: C6_6  and  C7_7 
REMARK       I    between atoms: C8_8  and  C9_9 
REMARK       I    between atoms: C10_10  and  C11_11 
REMARK       I    between atoms: C12_16  and  C13_17 
REMARK       I    between atoms: C14_18  and  C15_19 
REMARK       I    between atoms: C16_20  and  C17_21 
REMARK       I    between atoms: C18_22  and  C19_23 
REMARK       I    between atoms: C20_24  and  C21_25 
REMARK       I    between atoms: C22_26  and  C23_27 
REMARK       I    between atoms: C24_28  and  C25_29 
ROOT
HETATM    1  C1  BCR B 618     -48.640 147.093   9.934  1.00 52.27    -0.020 C 
HETATM    2  C2  BCR B 618     -49.923 147.826  10.323  1.00 40.31     0.014 C 
HETATM    3  C3  BCR B 618     -51.008 146.872  10.804  1.00 36.34     0.005 C 
HETATM    4  C4  BCR B 618     -51.372 145.900   9.695  1.00 43.90     0.034 C 
HETATM    5  C5  BCR B 618     -50.151 145.321   9.010  1.00 42.39    -0.077 C 
HETATM    6  C6  BCR B 618     -48.921 145.849   9.109  1.00 41.32    -0.048 C 
HETATM    7  C7  BCR B 618     -47.810 145.189   8.379  1.00 37.02     0.009 C 
HETATM    8  C8  BCR B 618     -47.070 144.201   8.900  1.00 40.38     0.007 C 
HETATM    9  C9  BCR B 618     -45.984 143.557   8.118  1.00 43.44    -0.062 C 
HETATM   10  C10 BCR B 618     -45.407 142.438   8.585  1.00 33.05     0.007 C 
HETATM   11  C11 BCR B 618     -44.349 141.693   7.889  1.00 38.44     0.001 C 
HETATM   12  C33 BCR B 618     -50.354 144.099   8.174  1.00 43.01     0.044 C 
HETATM   13  C31 BCR B 618     -47.882 146.659  11.187  1.00 47.24     0.020 C 
HETATM   14  C32 BCR B 618     -47.791 148.049   9.100  1.00 46.10     0.020 C 
HETATM   15  C34 BCR B 618     -45.536 144.140   6.815  1.00 38.09     0.048 C 
HETATM   16  C12 BCR B 618     -43.801 140.651   8.530  1.00 45.48     0.007 C 
HETATM   17  C13 BCR B 618     -42.767 139.794   7.913  1.00 46.67    -0.062 C 
HETATM   18  C14 BCR B 618     -42.265 138.746   8.618  1.00 36.87     0.007 C 
HETATM   19  C15 BCR B 618     -41.251 137.812   8.100  1.00 33.54     0.001 C 
HETATM   20  C16 BCR B 618     -41.037 136.626   8.685  1.00 30.58     0.001 C 
HETATM   21  C17 BCR B 618     -40.034 135.668   8.165  1.00 36.03     0.007 C 
HETATM   22  C18 BCR B 618     -39.699 134.509   8.782  1.00 37.55    -0.062 C 
HETATM   23  C19 BCR B 618     -38.674 133.625   8.158  1.00 41.57     0.007 C 
HETATM   24  C20 BCR B 618     -38.377 132.362   8.505  1.00 44.50     0.001 C 
HETATM   25  C21 BCR B 618     -37.326 131.689   7.720  1.00 27.16     0.007 C 
HETATM   26  C22 BCR B 618     -37.022 130.371   7.737  1.00 45.91    -0.062 C 
HETATM   27  C23 BCR B 618     -36.022 129.915   6.936  1.00 42.15     0.007 C 
HETATM   28  C24 BCR B 618     -35.770 128.602   6.816  1.00 36.90     0.009 C 
HETATM   29  C25 BCR B 618     -34.707 127.983   5.984  1.00 40.99    -0.048 C 
HETATM   30  C26 BCR B 618     -34.718 128.072   4.629  1.00 43.47    -0.077 C 
HETATM   31  C27 BCR B 618     -33.647 127.434   3.766  1.00 44.02     0.034 C 
HETATM   32  C28 BCR B 618     -32.854 126.379   4.531  1.00 46.97     0.005 C 
HETATM   33  C29 BCR B 618     -32.407 126.889   5.894  1.00 50.46     0.014 C 
HETATM   34  C30 BCR B 618     -33.619 127.214   6.756  1.00 44.40    -0.020 C 
HETATM   35  C35 BCR B 618     -42.370 140.092   6.494  1.00 29.80     0.048 C 
HETATM   36  C36 BCR B 618     -40.342 134.112  10.080  1.00 38.94     0.048 C 
HETATM   37  C37 BCR B 618     -37.746 129.410   8.645  1.00 32.34     0.048 C 
HETATM   38  C38 BCR B 618     -35.780 128.816   3.861  1.00 35.16     0.044 C 
HETATM   39  C39 BCR B 618     -33.156 128.023   7.963  1.00 36.65     0.020 C 
HETATM   40  C40 BCR B 618     -34.168 125.912   7.321  1.00 45.60     0.020 C 
ENDROOT
TORSDOF 10
BEGIN_RES PHE A  61
REMARK  2 active torsions:
REMARK  status: ('A' for Active; 'I' for Inactive)
REMARK    1  A    between atoms: CA   and  CB  
REMARK    2  A    between atoms: CB   and  CG  
ROOT
ATOM      1  CA  PHE A  61     -36.237 128.293  12.768  1.00 39.40     0.164 C 
ENDROOT
BRANCH   1   2
ATOM      2  CB  PHE A  61     -36.813 128.951  11.509  1.00 39.41     0.058 C 
BRANCH   2   3
ATOM      3  CG  PHE A  61     -36.016 130.128  11.000  1.00 39.01    -0.020 A 
ATOM      4  CD2 PHE A  61     -34.799 129.942  10.363  1.00 40.32    -0.004 A 
ATOM      5  CE2 PHE A  61     -34.066 131.026   9.898  1.00 40.20    -0.000 A 
ATOM      6  CZ  PHE A  61     -34.542 132.307  10.061  1.00 40.34    -0.000 A 
ATOM      7  CE1 PHE A  61     -35.750 132.509  10.690  1.00 41.51    -0.000 A 
ATOM      8  CD1 PHE A  61     -36.481 131.426  11.161  1.00 39.94    -0.004 A 
ENDBRANCH   2   3
ENDBRANCH   1   2
END_RES PHE A  61
BEGIN_RES VAL A 134
REMARK  1 active torsions:
REMARK  status: ('A' for Active; 'I' for Inactive)
REMARK    3  A    between atoms: CA   and  CB  
ROOT
ATOM      9  CA  VAL A 134     -29.766 132.051   9.815  1.00 40.75     0.159 C 
ENDROOT
BRANCH   9  10
ATOM     10  CB  VAL A 134     -30.864 132.765   9.009  1.00 40.76     0.029 C 
ATOM     11  CG1 VAL A 134     -31.477 131.823   7.983  1.00 41.76     0.002 C 
ATOM     12  CG2 VAL A 134     -31.936 133.349   9.916  1.00 40.56     0.002 C 
ENDBRANCH   9  10
END_RES VAL A 134
BEGIN_RES TYR A 338
REMARK  3 active torsions:
REMARK  status: ('A' for Active; 'I' for Inactive)
REMARK    4  A    between atoms: CA   and  CB  
REMARK    5  A    between atoms: CB   and  CG  
REMARK    6  A    between atoms: CZ   and  OH  
ROOT
ATOM     13  CA  TYR A 338     -41.631 124.950   6.058  1.00 38.23     0.164 C 
ENDROOT
BRANCH  13  14
ATOM     14  CB  TYR A 338     -41.621 126.456   6.339  1.00 39.15     0.058 C 
BRANCH  14  15
ATOM     15  CG  TYR A 338     -40.461 127.226   5.750  1.00 39.03    -0.020 A 
ATOM     16  CD2 TYR A 338     -40.356 128.592   5.945  1.00 40.65    -0.002 A 
ATOM     17  CE2 TYR A 338     -39.315 129.332   5.406  1.00 40.91     0.024 A 
ATOM     18  CZ  TYR A 338     -38.346 128.702   4.648  1.00 42.33     0.089 A 
ATOM     19  CE1 TYR A 338     -38.427 127.336   4.443  1.00 40.63     0.024 A 
ATOM     20  CD1 TYR A 338     -39.483 126.616   4.979  1.00 39.27    -0.002 A 
BRANCH  18  21
ATOM     21  OH  TYR A 338     -37.312 129.421   4.115  1.00 43.36    -0.359 OA
ATOM     22  HH  TYR A 338     -37.463 130.012   3.387  1.00  0.00     0.217 HD
ENDBRANCH  18  21
ENDBRANCH  14  15
ENDBRANCH  13  14
END_RES TYR A 338
ENDMDL
