MODEL 1
REMARK VINA RESULT:    -9.819      0.000      0.000
REMARK INTER + INTRA:         -16.618
REMARK INTER:                  -9.819
REMARK INTRA:                  -6.799
REMARK UNBOUND:                -6.799
REMARK  0 active torsions:
REMARK  status: ('A' for Active; 'I' for Inactive)
REMARK       I    between atoms: C6_6  and  C7_7 
REMARK       I    between atoms: C8_8  and  C9_9 
REMARK       I    between atoms: C10_10  and  C11_11 
REMARK       I    between atoms: C12_16  and  C13_17 
REMARK       I    between atoms: C14_18  and  C15_19 
REMARK       I    between atoms: C16_20  and  C17_21 
REMARK       I    between atoms: C18_22  and  C19_23 
REMARK       I    between atoms: C20_24  and  C21_25 
REMARK       I    between atoms: C22_26  and  C23_27 
REMARK       I    between atoms: C24_28  and  C25_29 
ROOT
HETATM    1  C1  BCR C 516     -35.239 131.181   8.376  1.00 41.00    -0.020 C 
HETATM    2  C2  BCR C 516     -34.196 130.202   8.905  1.00 36.95     0.014 C 
HETATM    3  C3  BCR C 516     -33.781 130.584  10.315  1.00 42.64     0.005 C 
HETATM    4  C4  BCR C 516     -34.973 130.467  11.248  1.00 28.32     0.034 C 
HETATM    5  C5  BCR C 516     -36.115 131.309  10.733  1.00 43.02    -0.077 C 
HETATM    6  C6  BCR C 516     -36.235 131.633   9.431  1.00 42.19    -0.048 C 
HETATM    7  C7  BCR C 516     -37.393 132.459   9.010  1.00 38.68     0.009 C 
HETATM    8  C8  BCR C 516     -37.445 133.785   9.172  1.00 33.22     0.007 C 
HETATM    9  C9  BCR C 516     -38.652 134.522   8.749  1.00 34.35    -0.062 C 
HETATM   10  C10 BCR C 516     -38.862 135.758   9.246  1.00 32.59     0.007 C 
HETATM   11  C11 BCR C 516     -40.032 136.589   8.937  1.00 23.56     0.001 C 
HETATM   12  C33 BCR C 516     -37.122 131.773  11.751  1.00 32.14     0.044 C 
HETATM   13  C31 BCR C 516     -35.986 130.515   7.228  1.00 32.75     0.020 C 
HETATM   14  C32 BCR C 516     -34.502 132.423   7.896  1.00 34.54     0.020 C 
HETATM   15  C34 BCR C 516     -39.620 133.879   7.789  1.00 29.18     0.048 C 
HETATM   16  C12 BCR C 516     -40.049 137.860   9.368  1.00 32.09     0.007 C 
HETATM   17  C13 BCR C 516     -41.210 138.748   9.120  1.00 33.67    -0.062 C 
HETATM   18  C14 BCR C 516     -41.174 140.059   9.466  1.00 37.11     0.007 C 
HETATM   19  C15 BCR C 516     -42.311 140.977   9.267  1.00 34.41     0.001 C 
HETATM   20  C16 BCR C 516     -42.249 142.274   9.614  1.00 38.02     0.001 C 
HETATM   21  C17 BCR C 516     -43.409 143.166   9.433  1.00 27.83     0.007 C 
HETATM   22  C18 BCR C 516     -43.399 144.503   9.654  1.00 35.80    -0.062 C 
HETATM   23  C19 BCR C 516     -44.649 145.285   9.460  1.00 26.49     0.007 C 
HETATM   24  C20 BCR C 516     -44.755 146.618   9.603  1.00 27.29     0.001 C 
HETATM   25  C21 BCR C 516     -46.077 147.229   9.406  1.00 33.51     0.007 C 
HETATM   26  C22 BCR C 516     -46.414 148.532   9.543  1.00 26.55    -0.062 C 
HETATM   27  C23 BCR C 516     -47.712 148.860   9.355  1.00 28.37     0.007 C 
HETATM   28  C24 BCR C 516     -48.268 150.007   9.778  1.00 33.37     0.009 C 
HETATM   29  C25 BCR C 516     -49.715 150.335   9.613  1.00 25.44    -0.048 C 
HETATM   30  C26 BCR C 516     -50.298 150.532   8.406  1.00 27.99    -0.077 C 
HETATM   31  C27 BCR C 516     -51.761 150.862   8.250  1.00 38.91     0.034 C 
HETATM   32  C28 BCR C 516     -52.547 150.402   9.461  1.00 37.17     0.005 C 
HETATM   33  C29 BCR C 516     -51.901 151.035  10.680  1.00 25.19     0.014 C 
HETATM   34  C30 BCR C 516     -50.509 150.443  10.911  1.00 25.25    -0.020 C 
HETATM   35  C35 BCR C 516     -42.431 138.145   8.492  1.00 33.34     0.048 C 
HETATM   36  C36 BCR C 516     -42.150 145.196  10.119  1.00 34.62     0.048 C 
HETATM   37  C37 BCR C 516     -45.404 149.565   9.952  1.00 27.44     0.048 C 
HETATM   38  C38 BCR C 516     -49.538 150.441   7.115  1.00 27.53     0.044 C 
HETATM   39  C39 BCR C 516     -50.671 149.072  11.561  1.00 24.61     0.020 C 
HETATM   40  C40 BCR C 516     -49.735 151.324  11.886  1.00 25.78     0.020 C 
ENDROOT
TORSDOF 10
BEGIN_RES PHE A  61
REMARK  2 active torsions:
REMARK  status: ('A' for Active; 'I' for Inactive)
REMARK    1  A    between atoms: CA   and  CB  
REMARK    2  A    between atoms: CB   and  CG  
ROOT
ATOM      1  CA  PHE A  61     -36.237 128.293  12.768  1.00 39.40     0.164 C 
ENDROOT
BRANCH   1   2
ATOM      2  CB  PHE A  61     -36.813 128.951  11.509  1.00 39.41     0.058 C 
BRANCH   2   3
ATOM      3  CG  PHE A  61     -36.673 128.125  10.253  1.00 39.01    -0.020 A 
ATOM      4  CD2 PHE A  61     -37.680 128.100   9.301  1.00 40.32    -0.004 A 
ATOM      5  CE2 PHE A  61     -37.550 127.337   8.147  1.00 40.20    -0.000 A 
ATOM      6  CZ  PHE A  61     -36.413 126.593   7.931  1.00 40.34    -0.000 A 
ATOM      7  CE1 PHE A  61     -35.402 126.608   8.867  1.00 41.51    -0.000 A 
ATOM      8  CD1 PHE A  61     -35.533 127.366  10.023  1.00 39.94    -0.004 A 
ENDBRANCH   2   3
ENDBRANCH   1   2
END_RES PHE A  61
BEGIN_RES VAL A 134
REMARK  1 active torsions:
REMARK  status: ('A' for Active; 'I' for Inactive)
REMARK    3  A    between atoms: CA   and  CB  
ROOT
ATOM      9  CA  VAL A 134     -29.766 132.051   9.815  1.00 40.75     0.159 C 
ENDROOT
BRANCH   9  10
ATOM     10  CB  VAL A 134     -30.864 132.765   9.009  1.00 40.76     0.029 C 
ATOM     11  CG1 VAL A 134     -31.276 131.931   7.804  1.00 41.76     0.002 C 
ATOM     12  CG2 VAL A 134     -32.070 133.096   9.874  1.00 40.56     0.002 C 
ENDBRANCH   9  10
END_RES VAL A 134
BEGIN_RES TYR A 338
REMARK  3 active torsions:
REMARK  status: ('A' for Active; 'I' for Inactive)
REMARK    4  A    between atoms: CA   and  CB  
REMARK    5  A    between atoms: CB   and  CG  
REMARK    6  A    between atoms: CZ   and  OH  
ROOT
ATOM     13  CA  TYR A 338     -41.631 124.950   6.058  1.00 38.23     0.164 C 
ENDROOT
BRANCH  13  14
ATOM     14  CB  TYR A 338     -41.621 126.456   6.339  1.00 39.15     0.058 C 
BRANCH  14  15
ATOM     15  CG  TYR A 338     -40.398 127.205   5.860  1.00 39.03    -0.020 A 
ATOM     16  CD2 TYR A 338     -40.227 128.542   6.176  1.00 40.65    -0.002 A 
ATOM     17  CE2 TYR A 338     -39.126 129.263   5.741  1.00 40.91     0.024 A 
ATOM     18  CZ  TYR A 338     -38.162 128.644   4.967  1.00 42.33     0.089 A 
ATOM     19  CE1 TYR A 338     -38.309 127.307   4.643  1.00 40.63     0.024 A 
ATOM     20  CD1 TYR A 338     -39.424 126.607   5.076  1.00 39.27    -0.002 A 
BRANCH  18  21
ATOM     21  OH  TYR A 338     -37.070 129.345   4.537  1.00 43.36    -0.359 OA
ATOM     22  HH  TYR A 338     -36.567 129.039   3.791  1.00  0.00     0.217 HD
ENDBRANCH  18  21
ENDBRANCH  14  15
ENDBRANCH  13  14
END_RES TYR A 338
ENDMDL
