MODEL 1
REMARK VINA RESULT:    -8.500      0.000      0.000
REMARK INTER + INTRA:         -13.828
REMARK INTER:                  -8.500
REMARK INTRA:                  -5.328
REMARK UNBOUND:                -5.328
REMARK  0 active torsions:
REMARK  status: ('A' for Active; 'I' for Inactive)
REMARK       I    between atoms: C6_6  and  C7_7 
REMARK       I    between atoms: C8_8  and  C9_9 
REMARK       I    between atoms: C10_10  and  C11_11 
REMARK       I    between atoms: C12_16  and  C13_17 
REMARK       I    between atoms: C14_18  and  C15_19 
REMARK       I    between atoms: C16_20  and  C17_21 
REMARK       I    between atoms: C18_22  and  C19_23 
REMARK       I    between atoms: C20_24  and  C21_25 
REMARK       I    between atoms: C22_26  and  C23_27 
REMARK       I    between atoms: C24_28  and  C25_29 
ROOT
HETATM    1  C1  BCR Y 101     -34.640 127.031   4.927  1.00 33.68    -0.020 C 
HETATM    2  C2  BCR Y 101     -33.901 125.857   4.270  1.00 30.72     0.014 C 
HETATM    3  C3  BCR Y 101     -32.717 126.271   3.408  1.00 33.07     0.005 C 
HETATM    4  C4  BCR Y 101     -31.682 127.072   4.191  1.00 35.17     0.034 C 
HETATM    5  C5  BCR Y 101     -32.301 127.849   5.342  1.00 36.06    -0.077 C 
HETATM    6  C6  BCR Y 101     -33.605 127.848   5.697  1.00 32.74    -0.048 C 
HETATM    7  C7  BCR Y 101     -34.000 128.697   6.867  1.00 33.30     0.009 C 
HETATM    8  C8  BCR Y 101     -35.133 129.423   6.885  1.00 34.03     0.007 C 
HETATM    9  C9  BCR Y 101     -35.487 130.290   8.051  1.00 34.07    -0.062 C 
HETATM   10  C10 BCR Y 101     -36.574 131.052   7.894  1.00 33.18     0.007 C 
HETATM   11  C11 BCR Y 101     -37.119 132.043   8.824  1.00 32.97     0.001 C 
HETATM   12  C33 BCR Y 101     -31.320 128.665   6.131  1.00 41.02     0.044 C 
HETATM   13  C31 BCR Y 101     -35.672 126.393   5.860  1.00 33.70     0.020 C 
HETATM   14  C32 BCR Y 101     -35.389 127.944   3.902  1.00 32.39     0.020 C 
HETATM   15  C34 BCR Y 101     -34.648 130.288   9.306  1.00 34.31     0.048 C 
HETATM   16  C12 BCR Y 101     -38.087 132.833   8.341  1.00 30.70     0.007 C 
HETATM   17  C13 BCR Y 101     -38.691 133.968   9.109  1.00 33.77    -0.062 C 
HETATM   18  C14 BCR Y 101     -39.697 134.674   8.513  1.00 29.99     0.007 C 
HETATM   19  C15 BCR Y 101     -40.378 135.859   9.051  1.00 30.27     0.001 C 
HETATM   20  C16 BCR Y 101     -41.126 136.633   8.230  1.00 31.72     0.001 C 
HETATM   21  C17 BCR Y 101     -41.750 137.832   8.789  1.00 30.45     0.007 C 
HETATM   22  C18 BCR Y 101     -42.472 138.748   8.120  1.00 36.03    -0.062 C 
HETATM   23  C19 BCR Y 101     -42.988 139.906   8.868  1.00 33.37     0.007 C 
HETATM   24  C20 BCR Y 101     -43.463 141.025   8.317  1.00 32.83     0.001 C 
HETATM   25  C21 BCR Y 101     -43.967 142.010   9.281  1.00 33.39     0.007 C 
HETATM   26  C22 BCR Y 101     -44.745 143.082   8.954  1.00 31.42    -0.062 C 
HETATM   27  C23 BCR Y 101     -45.210 143.931  10.080  1.00 32.46     0.007 C 
HETATM   28  C24 BCR Y 101     -46.244 144.769   9.948  1.00 32.77     0.009 C 
HETATM   29  C25 BCR Y 101     -46.769 145.615  11.070  1.00 33.52    -0.048 C 
HETATM   30  C26 BCR Y 101     -47.315 145.024  12.136  1.00 32.09    -0.077 C 
HETATM   31  C27 BCR Y 101     -47.888 145.830  13.289  1.00 34.94     0.034 C 
HETATM   32  C28 BCR Y 101     -47.323 147.250  13.365  1.00 37.49     0.005 C 
HETATM   33  C29 BCR Y 101     -47.531 147.893  11.998  1.00 40.57     0.014 C 
HETATM   34  C30 BCR Y 101     -46.700 147.143  10.949  1.00 38.21    -0.020 C 
HETATM   35  C35 BCR Y 101     -38.086 134.335  10.450  1.00 32.93     0.048 C 
HETATM   36  C36 BCR Y 101     -42.845 138.584   6.675  1.00 34.83     0.048 C 
HETATM   37  C37 BCR Y 101     -45.086 143.409   7.527  1.00 32.37     0.048 C 
HETATM   38  C38 BCR Y 101     -47.404 143.511  12.215  1.00 31.76     0.044 C 
HETATM   39  C39 BCR Y 101     -45.231 147.524  11.128  1.00 41.61     0.020 C 
HETATM   40  C40 BCR Y 101     -47.240 147.548   9.568  1.00 38.38     0.020 C 
ENDROOT
TORSDOF 10
BEGIN_RES PHE A  61
REMARK  2 active torsions:
REMARK  status: ('A' for Active; 'I' for Inactive)
REMARK    1  A    between atoms: CA   and  CB  
REMARK    2  A    between atoms: CB   and  CG  
ROOT
ATOM      1  CA  PHE A  61     -36.237 128.293  12.768  1.00 39.40     0.164 C 
ENDROOT
BRANCH   1   2
ATOM      2  CB  PHE A  61     -36.813 128.951  11.509  1.00 39.41     0.058 C 
BRANCH   2   3
ATOM      3  CG  PHE A  61     -36.856 128.050  10.298  1.00 39.01    -0.020 A 
ATOM      4  CD2 PHE A  61     -35.827 127.159  10.037  1.00 40.32    -0.004 A 
ATOM      5  CE2 PHE A  61     -35.866 126.333   8.921  1.00 40.20    -0.000 A 
ATOM      6  CZ  PHE A  61     -36.935 126.386   8.056  1.00 40.34    -0.000 A 
ATOM      7  CE1 PHE A  61     -37.966 127.265   8.302  1.00 41.51    -0.000 A 
ATOM      8  CD1 PHE A  61     -37.925 128.095   9.414  1.00 39.94    -0.004 A 
ENDBRANCH   2   3
ENDBRANCH   1   2
END_RES PHE A  61
BEGIN_RES VAL A 134
REMARK  1 active torsions:
REMARK  status: ('A' for Active; 'I' for Inactive)
REMARK    3  A    between atoms: CA   and  CB  
ROOT
ATOM      9  CA  VAL A 134     -29.766 132.051   9.815  1.00 40.75     0.159 C 
ENDROOT
BRANCH   9  10
ATOM     10  CB  VAL A 134     -30.864 132.765   9.009  1.00 40.76     0.029 C 
ATOM     11  CG1 VAL A 134     -31.221 131.968   7.763  1.00 41.76     0.002 C 
ATOM     12  CG2 VAL A 134     -32.100 133.027   9.855  1.00 40.56     0.002 C 
ENDBRANCH   9  10
END_RES VAL A 134
BEGIN_RES TYR A 338
REMARK  3 active torsions:
REMARK  status: ('A' for Active; 'I' for Inactive)
REMARK    4  A    between atoms: CA   and  CB  
REMARK    5  A    between atoms: CB   and  CG  
REMARK    6  A    between atoms: CZ   and  OH  
ROOT
ATOM     13  CA  TYR A 338     -41.631 124.950   6.058  1.00 38.23     0.164 C 
ENDROOT
BRANCH  13  14
ATOM     14  CB  TYR A 338     -41.621 126.456   6.339  1.00 39.15     0.058 C 
BRANCH  14  15
ATOM     15  CG  TYR A 338     -40.417 127.211   5.825  1.00 39.03    -0.020 A 
ATOM     16  CD2 TYR A 338     -40.219 128.536   6.175  1.00 40.65    -0.002 A 
ATOM     17  CE2 TYR A 338     -39.135 129.264   5.710  1.00 40.91     0.024 A 
ATOM     18  CZ  TYR A 338     -38.216 128.664   4.869  1.00 42.33     0.089 A 
ATOM     19  CE1 TYR A 338     -38.390 127.340   4.508  1.00 40.63     0.024 A 
ATOM     20  CD1 TYR A 338     -39.488 126.633   4.974  1.00 39.27    -0.002 A 
BRANCH  18  21
ATOM     21  OH  TYR A 338     -37.141 129.371   4.407  1.00 43.36    -0.359 OA
ATOM     22  HH  TYR A 338     -36.978 129.444   3.474  1.00  0.00     0.217 HD
ENDBRANCH  18  21
ENDBRANCH  14  15
ENDBRANCH  13  14
END_RES TYR A 338
ENDMDL
MODEL 2
REMARK VINA RESULT:    -6.637      1.013      1.181
REMARK INTER + INTRA:         -11.965
REMARK INTER:                  -7.562
REMARK INTRA:                  -4.404
REMARK UNBOUND:                -5.328
REMARK  0 active torsions:
REMARK  status: ('A' for Active; 'I' for Inactive)
REMARK       I    between atoms: C6_6  and  C7_7 
REMARK       I    between atoms: C8_8  and  C9_9 
REMARK       I    between atoms: C10_10  and  C11_11 
REMARK       I    between atoms: C12_16  and  C13_17 
REMARK       I    between atoms: C14_18  and  C15_19 
REMARK       I    between atoms: C16_20  and  C17_21 
REMARK       I    between atoms: C18_22  and  C19_23 
REMARK       I    between atoms: C20_24  and  C21_25 
REMARK       I    between atoms: C22_26  and  C23_27 
REMARK       I    between atoms: C24_28  and  C25_29 
ROOT
HETATM    1  C1  BCR Y 101     -34.405 127.905   5.791  1.00 33.68    -0.020 C 
HETATM    2  C2  BCR Y 101     -33.521 126.773   5.250  1.00 30.72     0.014 C 
HETATM    3  C3  BCR Y 101     -32.231 127.248   4.596  1.00 33.07     0.005 C 
HETATM    4  C4  BCR Y 101     -31.371 128.076   5.545  1.00 35.17     0.034 C 
HETATM    5  C5  BCR Y 101     -32.200 128.808   6.588  1.00 36.06    -0.077 C 
HETATM    6  C6  BCR Y 101     -33.543 128.749   6.726  1.00 32.74    -0.048 C 
HETATM    7  C7  BCR Y 101     -34.157 129.562   7.825  1.00 33.30     0.009 C 
HETATM    8  C8  BCR Y 101     -35.308 130.243   7.667  1.00 34.03     0.007 C 
HETATM    9  C9  BCR Y 101     -35.881 131.074   8.769  1.00 34.07    -0.062 C 
HETATM   10  C10 BCR Y 101     -36.959 131.796   8.445  1.00 33.18     0.007 C 
HETATM   11  C11 BCR Y 101     -37.688 132.748   9.285  1.00 32.97     0.001 C 
HETATM   12  C33 BCR Y 101     -31.395 129.649   7.534  1.00 41.02     0.044 C 
HETATM   13  C31 BCR Y 101     -35.546 127.211   6.537  1.00 33.70     0.020 C 
HETATM   14  C32 BCR Y 101     -35.016 128.805   4.667  1.00 32.39     0.020 C 
HETATM   15  C34 BCR Y 101     -35.257 131.085  10.143  1.00 34.31     0.048 C 
HETATM   16  C12 BCR Y 101     -38.597 133.508   8.659  1.00 30.70     0.007 C 
HETATM   17  C13 BCR Y 101     -39.365 134.605   9.330  1.00 33.77    -0.062 C 
HETATM   18  C14 BCR Y 101     -40.289 135.281   8.587  1.00 29.99     0.007 C 
HETATM   19  C15 BCR Y 101     -41.098 136.429   9.019  1.00 30.27     0.001 C 
HETATM   20  C16 BCR Y 101     -41.734 137.186   8.096  1.00 31.72     0.001 C 
HETATM   21  C17 BCR Y 101     -42.490 138.350   8.559  1.00 30.45     0.007 C 
HETATM   22  C18 BCR Y 101     -43.132 139.248   7.791  1.00 36.03    -0.062 C 
HETATM   23  C19 BCR Y 101     -43.811 140.372   8.457  1.00 33.37     0.007 C 
HETATM   24  C20 BCR Y 101     -44.236 141.480   7.848  1.00 32.83     0.001 C 
HETATM   25  C21 BCR Y 101     -44.930 142.428   8.727  1.00 33.39     0.007 C 
HETATM   26  C22 BCR Y 101     -45.689 143.474   8.289  1.00 31.42    -0.062 C 
HETATM   27  C23 BCR Y 101     -46.365 144.285   9.334  1.00 32.46     0.007 C 
HETATM   28  C24 BCR Y 101     -47.398 145.084   9.045  1.00 32.77     0.009 C 
HETATM   29  C25 BCR Y 101     -48.133 145.889  10.074  1.00 33.52    -0.048 C 
HETATM   30  C26 BCR Y 101     -48.819 145.259  11.032  1.00 32.09    -0.077 C 
HETATM   31  C27 BCR Y 101     -49.604 146.022  12.085  1.00 34.94     0.034 C 
HETATM   32  C28 BCR Y 101     -49.119 147.461  12.266  1.00 37.49     0.005 C 
HETATM   33  C29 BCR Y 101     -49.129 148.119  10.890  1.00 40.57     0.014 C 
HETATM   34  C30 BCR Y 101     -48.108 147.420   9.983  1.00 38.21    -0.020 C 
HETATM   35  C35 BCR Y 101     -39.001 134.973  10.756  1.00 32.93     0.048 C 
HETATM   36  C36 BCR Y 101     -43.259 139.094   6.303  1.00 34.83     0.048 C 
HETATM   37  C37 BCR Y 101     -45.808 143.811   6.829  1.00 32.37     0.048 C 
HETATM   38  C38 BCR Y 101     -48.856 143.743  11.080  1.00 31.76     0.044 C 
HETATM   39  C39 BCR Y 101     -46.705 147.856  10.402  1.00 41.61     0.020 C 
HETATM   40  C40 BCR Y 101     -48.434 147.827   8.536  1.00 38.38     0.020 C 
ENDROOT
TORSDOF 10
BEGIN_RES PHE A  61
REMARK  2 active torsions:
REMARK  status: ('A' for Active; 'I' for Inactive)
REMARK    1  A    between atoms: CA   and  CB  
REMARK    2  A    between atoms: CB   and  CG  
ROOT
ATOM      1  CA  PHE A  61     -36.237 128.293  12.768  1.00 39.40     0.164 C 
ENDROOT
BRANCH   1   2
ATOM      2  CB  PHE A  61     -36.813 128.951  11.509  1.00 39.41     0.058 C 
BRANCH   2   3
ATOM      3  CG  PHE A  61     -36.929 128.028  10.320  1.00 39.01    -0.020 A 
ATOM      4  CD2 PHE A  61     -35.995 127.027  10.102  1.00 40.32    -0.004 A 
ATOM      5  CE2 PHE A  61     -36.101 126.181   9.005  1.00 40.20    -0.000 A 
ATOM      6  CZ  PHE A  61     -37.144 126.322   8.118  1.00 40.34    -0.000 A 
ATOM      7  CE1 PHE A  61     -38.081 127.310   8.322  1.00 41.51    -0.000 A 
ATOM      8  CD1 PHE A  61     -37.972 128.161   9.414  1.00 39.94    -0.004 A 
ENDBRANCH   2   3
ENDBRANCH   1   2
END_RES PHE A  61
BEGIN_RES VAL A 134
REMARK  1 active torsions:
REMARK  status: ('A' for Active; 'I' for Inactive)
REMARK    3  A    between atoms: CA   and  CB  
ROOT
ATOM      9  CA  VAL A 134     -29.766 132.051   9.815  1.00 40.75     0.159 C 
ENDROOT
BRANCH   9  10
ATOM     10  CB  VAL A 134     -30.864 132.765   9.009  1.00 40.76     0.029 C 
ATOM     11  CG1 VAL A 134     -30.863 132.293   7.562  1.00 41.76     0.002 C 
ATOM     12  CG2 VAL A 134     -32.236 132.575   9.638  1.00 40.56     0.002 C 
ENDBRANCH   9  10
END_RES VAL A 134
BEGIN_RES TYR A 338
REMARK  3 active torsions:
REMARK  status: ('A' for Active; 'I' for Inactive)
REMARK    4  A    between atoms: CA   and  CB  
REMARK    5  A    between atoms: CB   and  CG  
REMARK    6  A    between atoms: CZ   and  OH  
ROOT
ATOM     13  CA  TYR A 338     -41.631 124.950   6.058  1.00 38.23     0.164 C 
ENDROOT
BRANCH  13  14
ATOM     14  CB  TYR A 338     -41.621 126.456   6.339  1.00 39.15     0.058 C 
BRANCH  14  15
ATOM     15  CG  TYR A 338     -40.407 127.208   5.843  1.00 39.03    -0.020 A 
ATOM     16  CD2 TYR A 338     -40.200 128.526   6.214  1.00 40.65    -0.002 A 
ATOM     17  CE2 TYR A 338     -39.106 129.250   5.765  1.00 40.91     0.024 A 
ATOM     18  CZ  TYR A 338     -38.187 128.654   4.922  1.00 42.33     0.089 A 
ATOM     19  CE1 TYR A 338     -38.370 127.337   4.542  1.00 40.63     0.024 A 
ATOM     20  CD1 TYR A 338     -39.477 126.633   4.991  1.00 39.27    -0.002 A 
BRANCH  18  21
ATOM     21  OH  TYR A 338     -37.102 129.358   4.478  1.00 43.36    -0.359 OA
ATOM     22  HH  TYR A 338     -37.160 129.879   3.686  1.00  0.00     0.217 HD
ENDBRANCH  18  21
ENDBRANCH  14  15
ENDBRANCH  13  14
END_RES TYR A 338
ENDMDL
