MODEL 1
REMARK VINA RESULT:    -9.030      0.000      0.000
REMARK INTER + INTRA:         -11.702
REMARK INTER:                  -9.030
REMARK INTRA:                  -2.671
REMARK UNBOUND:                -2.671
REMARK  0 active torsions:
REMARK  status: ('A' for Active; 'I' for Inactive)
REMARK       I    between atoms: C6_6  and  C7_7 
REMARK       I    between atoms: C8_8  and  C9_9 
REMARK       I    between atoms: C10_10  and  C11_11 
REMARK       I    between atoms: C12_16  and  C13_17 
REMARK       I    between atoms: C14_18  and  C15_19 
REMARK       I    between atoms: C16_20  and  C17_21 
REMARK       I    between atoms: C18_22  and  C19_23 
REMARK       I    between atoms: C20_24  and  C21_25 
REMARK       I    between atoms: C22_26  and  C23_27 
REMARK       I    between atoms: C24_28  and  C25_29 
ROOT
HETATM    1  C1  BCR B 618     -32.242 130.121   7.448  1.00 25.69    -0.020 C 
HETATM    2  C2  BCR B 618     -31.444 129.055   6.751  1.00 30.07     0.014 C 
HETATM    3  C3  BCR B 618     -32.111 128.583   5.472  1.00 28.38     0.005 C 
HETATM    4  C4  BCR B 618     -33.521 128.079   5.624  1.00 25.71     0.034 C 
HETATM    5  C5  BCR B 618     -34.292 128.903   6.604  1.00 24.46    -0.077 C 
HETATM    6  C6  BCR B 618     -33.701 129.713   7.478  1.00 26.24    -0.048 C 
HETATM    7  C7  BCR B 618     -34.545 130.372   8.503  1.00 27.12     0.009 C 
HETATM    8  C8  BCR B 618     -35.027 131.622   8.229  1.00 26.98     0.007 C 
HETATM    9  C9  BCR B 618     -35.984 132.276   9.161  1.00 24.53    -0.062 C 
HETATM   10  C10 BCR B 618     -36.650 133.418   8.840  1.00 24.97     0.007 C 
HETATM   11  C11 BCR B 618     -37.607 134.147   9.648  1.00 25.62     0.001 C 
HETATM   12  C33 BCR B 618     -35.758 128.620   6.678  1.00 29.99     0.044 C 
HETATM   13  C31 BCR B 618     -32.046 131.462   6.797  1.00 31.89     0.020 C 
HETATM   14  C32 BCR B 618     -31.683 130.133   8.897  1.00 28.38     0.020 C 
HETATM   15  C34 BCR B 618     -36.205 131.646  10.481  1.00 33.15     0.048 C 
HETATM   16  C12 BCR B 618     -38.145 135.310   9.143  1.00 26.13     0.007 C 
HETATM   17  C13 BCR B 618     -39.170 136.076   9.882  1.00 22.67    -0.062 C 
HETATM   18  C14 BCR B 618     -39.746 137.180   9.297  1.00 24.59     0.007 C 
HETATM   19  C15 BCR B 618     -40.818 137.981   9.921  1.00 24.70     0.001 C 
HETATM   20  C16 BCR B 618     -41.365 138.964   9.158  1.00 24.56     0.001 C 
HETATM   21  C17 BCR B 618     -42.456 139.739   9.657  1.00 24.82     0.007 C 
HETATM   22  C18 BCR B 618     -43.192 140.704   9.014  1.00 24.84    -0.062 C 
HETATM   23  C19 BCR B 618     -44.288 141.378   9.769  1.00 26.41     0.007 C 
HETATM   24  C20 BCR B 618     -45.197 142.290   9.262  1.00 24.04     0.001 C 
HETATM   25  C21 BCR B 618     -46.232 142.777  10.148  1.00 21.42     0.007 C 
HETATM   26  C22 BCR B 618     -47.257 143.564   9.744  1.00 21.83    -0.062 C 
HETATM   27  C23 BCR B 618     -48.210 143.966  10.784  1.00 24.43     0.007 C 
HETATM   28  C24 BCR B 618     -49.183 144.847  10.552  1.00 24.88     0.009 C 
HETATM   29  C25 BCR B 618     -50.059 145.441  11.584  1.00 27.45    -0.048 C 
HETATM   30  C26 BCR B 618     -50.578 144.765  12.611  1.00 30.30    -0.077 C 
HETATM   31  C27 BCR B 618     -51.505 145.396  13.652  1.00 34.06     0.034 C 
HETATM   32  C28 BCR B 618     -51.995 146.768  13.280  1.00 34.26     0.005 C 
HETATM   33  C29 BCR B 618     -50.865 147.597  12.666  1.00 31.13     0.014 C 
HETATM   34  C30 BCR B 618     -50.292 146.945  11.423  1.00 27.47    -0.020 C 
HETATM   35  C35 BCR B 618     -39.587 135.627  11.255  1.00 24.37     0.048 C 
HETATM   36  C36 BCR B 618     -42.951 141.155   7.620  1.00 25.76     0.048 C 
HETATM   37  C37 BCR B 618     -47.440 143.940   8.324  1.00 22.43     0.048 C 
HETATM   38  C38 BCR B 618     -50.436 143.292  12.779  1.00 29.80     0.044 C 
HETATM   39  C39 BCR B 618     -48.952 147.676  11.254  1.00 24.87     0.020 C 
HETATM   40  C40 BCR B 618     -51.149 147.184  10.180  1.00 29.70     0.020 C 
ENDROOT
TORSDOF 10
BEGIN_RES PHE A  61
REMARK  2 active torsions:
REMARK  status: ('A' for Active; 'I' for Inactive)
REMARK    1  A    between atoms: CA   and  CB  
REMARK    2  A    between atoms: CB   and  CG  
ROOT
ATOM      1  CA  PHE A  61     -36.237 128.293  12.768  1.00 39.40     0.164 C 
ENDROOT
BRANCH   1   2
ATOM      2  CB  PHE A  61     -36.813 128.951  11.509  1.00 39.41     0.058 C 
BRANCH   2   3
ATOM      3  CG  PHE A  61     -36.812 128.065  10.286  1.00 39.01    -0.020 A 
ATOM      4  CD2 PHE A  61     -37.890 128.054   9.415  1.00 40.32    -0.004 A 
ATOM      5  CE2 PHE A  61     -37.889 127.236   8.291  1.00 40.20    -0.000 A 
ATOM      6  CZ  PHE A  61     -36.810 126.425   8.025  1.00 40.34    -0.000 A 
ATOM      7  CE1 PHE A  61     -35.730 126.426   8.880  1.00 41.51    -0.000 A 
ATOM      8  CD1 PHE A  61     -35.733 127.238  10.007  1.00 39.94    -0.004 A 
ENDBRANCH   2   3
ENDBRANCH   1   2
END_RES PHE A  61
BEGIN_RES VAL A 134
REMARK  1 active torsions:
REMARK  status: ('A' for Active; 'I' for Inactive)
REMARK    3  A    between atoms: CA   and  CB  
ROOT
ATOM      9  CA  VAL A 134     -29.766 132.051   9.815  1.00 40.75     0.159 C 
ENDROOT
BRANCH   9  10
ATOM     10  CB  VAL A 134     -30.864 132.765   9.009  1.00 40.76     0.029 C 
ATOM     11  CG1 VAL A 134     -32.080 133.040   9.882  1.00 41.76     0.002 C 
ATOM     12  CG2 VAL A 134     -30.351 134.050   8.377  1.00 40.56     0.002 C 
ENDBRANCH   9  10
END_RES VAL A 134
BEGIN_RES TYR A 338
REMARK  3 active torsions:
REMARK  status: ('A' for Active; 'I' for Inactive)
REMARK    4  A    between atoms: CA   and  CB  
REMARK    5  A    between atoms: CB   and  CG  
REMARK    6  A    between atoms: CZ   and  OH  
ROOT
ATOM     13  CA  TYR A 338     -41.631 124.950   6.058  1.00 38.23     0.164 C 
ENDROOT
BRANCH  13  14
ATOM     14  CB  TYR A 338     -41.621 126.456   6.339  1.00 39.15     0.058 C 
BRANCH  14  15
ATOM     15  CG  TYR A 338     -40.420 127.212   5.820  1.00 39.03    -0.020 A 
ATOM     16  CD2 TYR A 338     -40.258 128.556   6.111  1.00 40.65    -0.002 A 
ATOM     17  CE2 TYR A 338     -39.177 129.284   5.639  1.00 40.91     0.024 A 
ATOM     18  CZ  TYR A 338     -38.224 128.666   4.852  1.00 42.33     0.089 A 
ATOM     19  CE1 TYR A 338     -38.361 127.322   4.551  1.00 40.63     0.024 A 
ATOM     20  CD1 TYR A 338     -39.456 126.615   5.022  1.00 39.27    -0.002 A 
BRANCH  18  21
ATOM     21  OH  TYR A 338     -37.152 129.373   4.385  1.00 43.36    -0.359 OA
ATOM     22  HH  TYR A 338     -36.266 129.082   4.571  1.00  0.00     0.217 HD
ENDBRANCH  18  21
ENDBRANCH  14  15
ENDBRANCH  13  14
END_RES TYR A 338
ENDMDL
MODEL 2
REMARK VINA RESULT:    -9.005      2.860     16.327
REMARK INTER + INTRA:         -11.676
REMARK INTER:                  -8.994
REMARK INTRA:                  -2.682
REMARK UNBOUND:                -2.671
REMARK  0 active torsions:
REMARK  status: ('A' for Active; 'I' for Inactive)
REMARK       I    between atoms: C6_6  and  C7_7 
REMARK       I    between atoms: C8_8  and  C9_9 
REMARK       I    between atoms: C10_10  and  C11_11 
REMARK       I    between atoms: C12_16  and  C13_17 
REMARK       I    between atoms: C14_18  and  C15_19 
REMARK       I    between atoms: C16_20  and  C17_21 
REMARK       I    between atoms: C18_22  and  C19_23 
REMARK       I    between atoms: C20_24  and  C21_25 
REMARK       I    between atoms: C22_26  and  C23_27 
REMARK       I    between atoms: C24_28  and  C25_29 
ROOT
HETATM    1  C1  BCR B 618     -46.046 150.100  11.827  1.00 25.69    -0.020 C 
HETATM    2  C2  BCR B 618     -46.873 151.330  11.576  1.00 30.07     0.014 C 
HETATM    3  C3  BCR B 618     -47.468 151.348  10.180  1.00 28.38     0.005 C 
HETATM    4  C4  BCR B 618     -46.480 151.218   9.053  1.00 25.71     0.034 C 
HETATM    5  C5  BCR B 618     -45.396 150.244   9.386  1.00 24.46    -0.077 C 
HETATM    6  C6  BCR B 618     -45.147 149.851  10.633  1.00 26.24    -0.048 C 
HETATM    7  C7  BCR B 618     -43.958 149.000  10.875  1.00 27.12     0.009 C 
HETATM    8  C8  BCR B 618     -44.130 147.643  10.873  1.00 26.98     0.007 C 
HETATM    9  C9  BCR B 618     -42.954 146.739  10.979  1.00 24.53    -0.062 C 
HETATM   10  C10 BCR B 618     -43.045 145.398  10.775  1.00 24.97     0.007 C 
HETATM   11  C11 BCR B 618     -41.982 144.414  10.840  1.00 25.62     0.001 C 
HETATM   12  C33 BCR B 618     -44.478 149.884   8.263  1.00 29.99     0.044 C 
HETATM   13  C31 BCR B 618     -46.916 148.913  12.134  1.00 31.89     0.020 C 
HETATM   14  C32 BCR B 618     -45.174 150.468  13.058  1.00 28.38     0.020 C 
HETATM   15  C34 BCR B 618     -41.647 147.341  11.320  1.00 33.15     0.048 C 
HETATM   16  C12 BCR B 618     -42.297 143.089  10.633  1.00 26.13     0.007 C 
HETATM   17  C13 BCR B 618     -41.260 142.037  10.624  1.00 22.67    -0.062 C 
HETATM   18  C14 BCR B 618     -41.609 140.741  10.320  1.00 24.59     0.007 C 
HETATM   19  C15 BCR B 618     -40.646 139.626  10.227  1.00 24.70     0.001 C 
HETATM   20  C16 BCR B 618     -41.135 138.434   9.792  1.00 24.56     0.001 C 
HETATM   21  C17 BCR B 618     -40.259 137.323   9.604  1.00 24.82     0.007 C 
HETATM   22  C18 BCR B 618     -40.543 136.078   9.096  1.00 24.84    -0.062 C 
HETATM   23  C19 BCR B 618     -39.438 135.080   9.008  1.00 26.41     0.007 C 
HETATM   24  C20 BCR B 618     -39.508 133.824   8.433  1.00 24.04     0.001 C 
HETATM   25  C21 BCR B 618     -38.297 133.032   8.389  1.00 21.42     0.007 C 
HETATM   26  C22 BCR B 618     -38.196 131.850   7.738  1.00 21.83    -0.062 C 
HETATM   27  C23 BCR B 618     -36.891 131.185   7.808  1.00 24.43     0.007 C 
HETATM   28  C24 BCR B 618     -36.694 129.956   7.329  1.00 24.88     0.009 C 
HETATM   29  C25 BCR B 618     -35.471 129.150   7.526  1.00 27.45    -0.048 C 
HETATM   30  C26 BCR B 618     -34.230 129.639   7.467  1.00 30.30    -0.077 C 
HETATM   31  C27 BCR B 618     -32.977 128.780   7.647  1.00 34.06     0.034 C 
HETATM   32  C28 BCR B 618     -33.246 127.300   7.633  1.00 34.26     0.005 C 
HETATM   33  C29 BCR B 618     -34.513 126.973   8.427  1.00 31.13     0.014 C 
HETATM   34  C30 BCR B 618     -35.732 127.682   7.869  1.00 27.47    -0.020 C 
HETATM   35  C35 BCR B 618     -39.832 142.398  10.927  1.00 24.37     0.048 C 
HETATM   36  C36 BCR B 618     -41.892 135.639   8.656  1.00 25.76     0.048 C 
HETATM   37  C37 BCR B 618     -39.319 131.295   6.949  1.00 22.43     0.048 C 
HETATM   38  C38 BCR B 618     -33.919 131.042   7.075  1.00 29.80     0.044 C 
HETATM   39  C39 BCR B 618     -36.735 127.576   9.028  1.00 24.87     0.020 C 
HETATM   40  C40 BCR B 618     -36.315 126.982   6.642  1.00 29.70     0.020 C 
ENDROOT
TORSDOF 10
BEGIN_RES PHE A  61
REMARK  2 active torsions:
REMARK  status: ('A' for Active; 'I' for Inactive)
REMARK    1  A    between atoms: CA   and  CB  
REMARK    2  A    between atoms: CB   and  CG  
ROOT
ATOM      1  CA  PHE A  61     -36.237 128.293  12.768  1.00 39.40     0.164 C 
ENDROOT
BRANCH   1   2
ATOM      2  CB  PHE A  61     -36.813 128.951  11.509  1.00 39.41     0.058 C 
BRANCH   2   3
ATOM      3  CG  PHE A  61     -36.232 130.308  11.193  1.00 39.01    -0.020 A 
ATOM      4  CD2 PHE A  61     -34.930 130.436  10.736  1.00 40.32    -0.004 A 
ATOM      5  CE2 PHE A  61     -34.395 131.686  10.449  1.00 40.20    -0.000 A 
ATOM      6  CZ  PHE A  61     -35.157 132.820  10.611  1.00 40.34    -0.000 A 
ATOM      7  CE1 PHE A  61     -36.454 132.710  11.062  1.00 41.51    -0.000 A 
ATOM      8  CD1 PHE A  61     -36.987 131.462  11.356  1.00 39.94    -0.004 A 
ENDBRANCH   2   3
ENDBRANCH   1   2
END_RES PHE A  61
BEGIN_RES VAL A 134
REMARK  1 active torsions:
REMARK  status: ('A' for Active; 'I' for Inactive)
REMARK    3  A    between atoms: CA   and  CB  
ROOT
ATOM      9  CA  VAL A 134     -29.766 132.051   9.815  1.00 40.75     0.159 C 
ENDROOT
BRANCH   9  10
ATOM     10  CB  VAL A 134     -30.864 132.765   9.009  1.00 40.76     0.029 C 
ATOM     11  CG1 VAL A 134     -31.228 131.963   7.768  1.00 41.76     0.002 C 
ATOM     12  CG2 VAL A 134     -32.097 133.037   9.858  1.00 40.56     0.002 C 
ENDBRANCH   9  10
END_RES VAL A 134
BEGIN_RES TYR A 338
REMARK  3 active torsions:
REMARK  status: ('A' for Active; 'I' for Inactive)
REMARK    4  A    between atoms: CA   and  CB  
REMARK    5  A    between atoms: CB   and  CG  
REMARK    6  A    between atoms: CZ   and  OH  
ROOT
ATOM     13  CA  TYR A 338     -41.631 124.950   6.058  1.00 38.23     0.164 C 
ENDROOT
BRANCH  13  14
ATOM     14  CB  TYR A 338     -41.621 126.456   6.339  1.00 39.15     0.058 C 
BRANCH  14  15
ATOM     15  CG  TYR A 338     -40.440 127.219   5.785  1.00 39.03    -0.020 A 
ATOM     16  CD2 TYR A 338     -39.537 126.596   4.941  1.00 40.65    -0.002 A 
ATOM     17  CE2 TYR A 338     -38.434 127.260   4.427  1.00 40.91     0.024 A 
ATOM     18  CZ  TYR A 338     -38.214 128.584   4.758  1.00 42.33     0.089 A 
ATOM     19  CE1 TYR A 338     -39.106 129.230   5.597  1.00 40.63     0.024 A 
ATOM     20  CD1 TYR A 338     -40.195 128.544   6.111  1.00 39.27    -0.002 A 
BRANCH  18  21
ATOM     21  OH  TYR A 338     -37.133 129.251   4.254  1.00 43.36    -0.359 OA
ATOM     22  HH  TYR A 338     -36.692 128.932   3.475  1.00  0.00     0.217 HD
ENDBRANCH  18  21
ENDBRANCH  14  15
ENDBRANCH  13  14
END_RES TYR A 338
ENDMDL
MODEL 3
REMARK VINA RESULT:    -8.254      1.690     16.443
REMARK INTER + INTRA:         -10.926
REMARK INTER:                  -8.144
REMARK INTRA:                  -2.781
REMARK UNBOUND:                -2.671
REMARK  0 active torsions:
REMARK  status: ('A' for Active; 'I' for Inactive)
REMARK       I    between atoms: C6_6  and  C7_7 
REMARK       I    between atoms: C8_8  and  C9_9 
REMARK       I    between atoms: C10_10  and  C11_11 
REMARK       I    between atoms: C12_16  and  C13_17 
REMARK       I    between atoms: C14_18  and  C15_19 
REMARK       I    between atoms: C16_20  and  C17_21 
REMARK       I    between atoms: C18_22  and  C19_23 
REMARK       I    between atoms: C20_24  and  C21_25 
REMARK       I    between atoms: C22_26  and  C23_27 
REMARK       I    between atoms: C24_28  and  C25_29 
ROOT
HETATM    1  C1  BCR B 618     -50.063 148.919   8.943  1.00 25.69    -0.020 C 
HETATM    2  C2  BCR B 618     -51.261 149.742   9.326  1.00 30.07     0.014 C 
HETATM    3  C3  BCR B 618     -52.117 149.058  10.376  1.00 28.38     0.005 C 
HETATM    4  C4  BCR B 618     -52.600 147.678  10.020  1.00 25.71     0.034 C 
HETATM    5  C5  BCR B 618     -51.548 146.901   9.297  1.00 24.46    -0.077 C 
HETATM    6  C6  BCR B 618     -50.493 147.481   8.730  1.00 26.24    -0.048 C 
HETATM    7  C7  BCR B 618     -49.587 146.642   7.911  1.00 27.12     0.009 C 
HETATM    8  C8  BCR B 618     -48.494 146.094   8.523  1.00 26.98     0.007 C 
HETATM    9  C9  BCR B 618     -47.624 145.138   7.787  1.00 24.53    -0.062 C 
HETATM   10  C10 BCR B 618     -46.654 144.412   8.405  1.00 24.97     0.007 C 
HETATM   11  C11 BCR B 618     -45.749 143.448   7.809  1.00 25.62     0.001 C 
HETATM   12  C33 BCR B 618     -51.845 145.453   9.078  1.00 29.99     0.044 C 
HETATM   13  C31 BCR B 618     -48.972 149.033   9.971  1.00 31.89     0.020 C 
HETATM   14  C32 BCR B 618     -49.599 149.522   7.589  1.00 28.38     0.020 C 
HETATM   15  C34 BCR B 618     -47.837 144.988   6.332  1.00 33.15     0.048 C 
HETATM   16  C12 BCR B 618     -44.809 142.842   8.613  1.00 26.13     0.007 C 
HETATM   17  C13 BCR B 618     -43.893 141.807   8.091  1.00 22.67    -0.062 C 
HETATM   18  C14 BCR B 618     -43.034 141.163   8.952  1.00 24.59     0.007 C 
HETATM   19  C15 BCR B 618     -42.120 140.076   8.549  1.00 24.70     0.001 C 
HETATM   20  C16 BCR B 618     -41.430 139.460   9.545  1.00 24.56     0.001 C 
HETATM   21  C17 BCR B 618     -40.579 138.352   9.252  1.00 24.82     0.007 C 
HETATM   22  C18 BCR B 618     -39.876 137.553  10.120  1.00 24.84    -0.062 C 
HETATM   23  C19 BCR B 618     -39.045 136.451   9.553  1.00 26.41     0.007 C 
HETATM   24  C20 BCR B 618     -38.358 135.487  10.269  1.00 24.04     0.001 C 
HETATM   25  C21 BCR B 618     -37.664 134.458   9.523  1.00 21.42     0.007 C 
HETATM   26  C22 BCR B 618     -37.069 133.386  10.098  1.00 21.83    -0.062 C 
HETATM   27  C23 BCR B 618     -36.407 132.450   9.184  1.00 24.43     0.007 C 
HETATM   28  C24 BCR B 618     -35.670 131.431   9.625  1.00 24.88     0.009 C 
HETATM   29  C25 BCR B 618     -34.824 130.561   8.779  1.00 27.45    -0.048 C 
HETATM   30  C26 BCR B 618     -35.180 130.106   7.575  1.00 30.30    -0.077 C 
HETATM   31  C27 BCR B 618     -34.299 129.184   6.730  1.00 34.06     0.034 C 
HETATM   32  C28 BCR B 618     -33.118 128.621   7.472  1.00 34.26     0.005 C 
HETATM   33  C29 BCR B 618     -32.473 129.693   8.354  1.00 31.13     0.014 C 
HETATM   34  C30 BCR B 618     -33.447 130.255   9.370  1.00 27.47    -0.020 C 
HETATM   35  C35 BCR B 618     -43.925 141.454   6.630  1.00 24.37     0.048 C 
HETATM   36  C36 BCR B 618     -39.855 137.729  11.594  1.00 25.76     0.048 C 
HETATM   37  C37 BCR B 618     -37.142 133.142  11.556  1.00 22.43     0.048 C 
HETATM   38  C38 BCR B 618     -36.530 130.321   6.984  1.00 29.80     0.044 C 
HETATM   39  C39 BCR B 618     -32.754 131.555   9.807  1.00 24.87     0.020 C 
HETATM   40  C40 BCR B 618     -33.620 129.350  10.589  1.00 29.70     0.020 C 
ENDROOT
TORSDOF 10
BEGIN_RES PHE A  61
REMARK  2 active torsions:
REMARK  status: ('A' for Active; 'I' for Inactive)
REMARK    1  A    between atoms: CA   and  CB  
REMARK    2  A    between atoms: CB   and  CG  
ROOT
ATOM      1  CA  PHE A  61     -36.237 128.293  12.768  1.00 39.40     0.164 C 
ENDROOT
BRANCH   1   2
ATOM      2  CB  PHE A  61     -36.813 128.951  11.509  1.00 39.41     0.058 C 
BRANCH   2   3
ATOM      3  CG  PHE A  61     -36.741 128.094  10.268  1.00 39.01    -0.020 A 
ATOM      4  CD2 PHE A  61     -37.790 128.063   9.363  1.00 40.32    -0.004 A 
ATOM      5  CE2 PHE A  61     -37.723 127.271   8.223  1.00 40.20    -0.000 A 
ATOM      6  CZ  PHE A  61     -36.607 126.505   7.974  1.00 40.34    -0.000 A 
ATOM      7  CE1 PHE A  61     -35.556 126.526   8.863  1.00 41.51    -0.000 A 
ATOM      8  CD1 PHE A  61     -35.624 127.313  10.006  1.00 39.94    -0.004 A 
ENDBRANCH   2   3
ENDBRANCH   1   2
END_RES PHE A  61
BEGIN_RES VAL A 134
REMARK  1 active torsions:
REMARK  status: ('A' for Active; 'I' for Inactive)
REMARK    3  A    between atoms: CA   and  CB  
ROOT
ATOM      9  CA  VAL A 134     -29.766 132.051   9.815  1.00 40.75     0.159 C 
ENDROOT
BRANCH   9  10
ATOM     10  CB  VAL A 134     -30.864 132.765   9.009  1.00 40.76     0.029 C 
ATOM     11  CG1 VAL A 134     -30.620 134.267   8.979  1.00 41.76     0.002 C 
ATOM     12  CG2 VAL A 134     -30.977 132.208   7.598  1.00 40.56     0.002 C 
ENDBRANCH   9  10
END_RES VAL A 134
BEGIN_RES TYR A 338
REMARK  3 active torsions:
REMARK  status: ('A' for Active; 'I' for Inactive)
REMARK    4  A    between atoms: CA   and  CB  
REMARK    5  A    between atoms: CB   and  CG  
REMARK    6  A    between atoms: CZ   and  OH  
ROOT
ATOM     13  CA  TYR A 338     -41.631 124.950   6.058  1.00 38.23     0.164 C 
ENDROOT
BRANCH  13  14
ATOM     14  CB  TYR A 338     -41.621 126.456   6.339  1.00 39.15     0.058 C 
BRANCH  14  15
ATOM     15  CG  TYR A 338     -40.415 127.211   5.829  1.00 39.03    -0.020 A 
ATOM     16  CD2 TYR A 338     -39.440 126.559   5.093  1.00 40.65    -0.002 A 
ATOM     17  CE2 TYR A 338     -38.313 127.216   4.623  1.00 40.91     0.024 A 
ATOM     18  CZ  TYR A 338     -38.143 128.561   4.889  1.00 42.33     0.089 A 
ATOM     19  CE1 TYR A 338     -39.106 129.236   5.618  1.00 40.63     0.024 A 
ATOM     20  CD1 TYR A 338     -40.219 128.558   6.090  1.00 39.27    -0.002 A 
BRANCH  18  21
ATOM     21  OH  TYR A 338     -37.038 129.220   4.426  1.00 43.36    -0.359 OA
ATOM     22  HH  TYR A 338     -36.295 128.734   4.090  1.00  0.00     0.217 HD
ENDBRANCH  18  21
ENDBRANCH  14  15
ENDBRANCH  13  14
END_RES TYR A 338
ENDMDL
MODEL 4
REMARK VINA RESULT:    -7.992      1.621     16.556
REMARK INTER + INTRA:         -10.663
REMARK INTER:                  -8.830
REMARK INTRA:                  -1.833
REMARK UNBOUND:                -2.671
REMARK  0 active torsions:
REMARK  status: ('A' for Active; 'I' for Inactive)
REMARK       I    between atoms: C6_6  and  C7_7 
REMARK       I    between atoms: C8_8  and  C9_9 
REMARK       I    between atoms: C10_10  and  C11_11 
REMARK       I    between atoms: C12_16  and  C13_17 
REMARK       I    between atoms: C14_18  and  C15_19 
REMARK       I    between atoms: C16_20  and  C17_21 
REMARK       I    between atoms: C18_22  and  C19_23 
REMARK       I    between atoms: C20_24  and  C21_25 
REMARK       I    between atoms: C22_26  and  C23_27 
REMARK       I    between atoms: C24_28  and  C25_29 
ROOT
HETATM    1  C1  BCR B 618     -51.119 146.982  10.022  1.00 25.69    -0.020 C 
HETATM    2  C2  BCR B 618     -51.717 148.248  10.570  1.00 30.07     0.014 C 
HETATM    3  C3  BCR B 618     -50.919 148.802  11.736  1.00 28.38     0.005 C 
HETATM    4  C4  BCR B 618     -50.709 147.855  12.887  1.00 25.71     0.034 C 
HETATM    5  C5  BCR B 618     -50.455 146.462  12.408  1.00 24.46    -0.077 C 
HETATM    6  C6  BCR B 618     -50.750 146.066  11.172  1.00 26.24    -0.048 C 
HETATM    7  C7  BCR B 618     -50.598 144.630  10.842  1.00 27.12     0.009 C 
HETATM    8  C8  BCR B 618     -49.413 144.219  10.296  1.00 26.98     0.007 C 
HETATM    9  C9  BCR B 618     -49.155 142.772  10.067  1.00 24.53    -0.062 C 
HETATM   10  C10 BCR B 618     -47.928 142.296   9.725  1.00 24.97     0.007 C 
HETATM   11  C11 BCR B 618     -47.544 140.919   9.482  1.00 25.62     0.001 C 
HETATM   12  C33 BCR B 618     -50.031 145.483  13.454  1.00 29.99     0.044 C 
HETATM   13  C31 BCR B 618     -49.941 147.275   9.135  1.00 31.89     0.020 C 
HETATM   14  C32 BCR B 618     -52.270 146.337   9.203  1.00 28.38     0.020 C 
HETATM   15  C34 BCR B 618     -50.288 141.834  10.222  1.00 33.15     0.048 C 
HETATM   16  C12 BCR B 618     -46.246 140.653   9.109  1.00 26.13     0.007 C 
HETATM   17  C13 BCR B 618     -45.765 139.271   8.903  1.00 22.67    -0.062 C 
HETATM   18  C14 BCR B 618     -44.436 139.049   8.622  1.00 24.59     0.007 C 
HETATM   19  C15 BCR B 618     -43.840 137.709   8.455  1.00 24.70     0.001 C 
HETATM   20  C16 BCR B 618     -42.490 137.658   8.307  1.00 24.56     0.001 C 
HETATM   21  C17 BCR B 618     -41.823 136.398   8.211  1.00 24.82     0.007 C 
HETATM   22  C18 BCR B 618     -40.476 136.140   8.147  1.00 24.84    -0.062 C 
HETATM   23  C19 BCR B 618     -40.032 134.719   8.045  1.00 26.41     0.007 C 
HETATM   24  C20 BCR B 618     -38.727 134.260   8.076  1.00 24.04     0.001 C 
HETATM   25  C21 BCR B 618     -38.512 132.829   8.032  1.00 21.42     0.007 C 
HETATM   26  C22 BCR B 618     -37.300 132.247   8.190  1.00 21.83    -0.062 C 
HETATM   27  C23 BCR B 618     -37.273 130.783   8.108  1.00 24.43     0.007 C 
HETATM   28  C24 BCR B 618     -36.132 130.094   8.109  1.00 24.88     0.009 C 
HETATM   29  C25 BCR B 618     -36.011 128.645   7.844  1.00 27.45    -0.048 C 
HETATM   30  C26 BCR B 618     -36.858 127.722   8.306  1.00 30.30    -0.077 C 
HETATM   31  C27 BCR B 618     -36.696 126.224   8.040  1.00 34.06     0.034 C 
HETATM   32  C28 BCR B 618     -35.368 125.850   7.441  1.00 34.26     0.005 C 
HETATM   33  C29 BCR B 618     -34.956 126.862   6.369  1.00 31.13     0.014 C 
HETATM   34  C30 BCR B 618     -34.846 128.268   6.926  1.00 27.47    -0.020 C 
HETATM   35  C35 BCR B 618     -46.728 138.123   9.022  1.00 24.37     0.048 C 
HETATM   36  C36 BCR B 618     -39.420 137.183   8.137  1.00 25.76     0.048 C 
HETATM   37  C37 BCR B 618     -36.087 133.039   8.493  1.00 22.43     0.048 C 
HETATM   38  C38 BCR B 618     -37.967 128.027   9.251  1.00 29.80     0.044 C 
HETATM   39  C39 BCR B 618     -34.869 129.129   5.654  1.00 24.87     0.020 C 
HETATM   40  C40 BCR B 618     -33.532 128.510   7.667  1.00 29.70     0.020 C 
ENDROOT
TORSDOF 10
BEGIN_RES PHE A  61
REMARK  2 active torsions:
REMARK  status: ('A' for Active; 'I' for Inactive)
REMARK    1  A    between atoms: CA   and  CB  
REMARK    2  A    between atoms: CB   and  CG  
ROOT
ATOM      1  CA  PHE A  61     -36.237 128.293  12.768  1.00 39.40     0.164 C 
ENDROOT
BRANCH   1   2
ATOM      2  CB  PHE A  61     -36.813 128.951  11.509  1.00 39.41     0.058 C 
BRANCH   2   3
ATOM      3  CG  PHE A  61     -36.592 130.443  11.428  1.00 39.01    -0.020 A 
ATOM      4  CD2 PHE A  61     -37.638 131.329  11.633  1.00 40.32    -0.004 A 
ATOM      5  CE2 PHE A  61     -37.434 132.701  11.555  1.00 40.20    -0.000 A 
ATOM      6  CZ  PHE A  61     -36.183 133.202  11.275  1.00 40.34    -0.000 A 
ATOM      7  CE1 PHE A  61     -35.133 132.334  11.071  1.00 41.51    -0.000 A 
ATOM      8  CD1 PHE A  61     -35.338 130.962  11.142  1.00 39.94    -0.004 A 
ENDBRANCH   2   3
ENDBRANCH   1   2
END_RES PHE A  61
BEGIN_RES VAL A 134
REMARK  1 active torsions:
REMARK  status: ('A' for Active; 'I' for Inactive)
REMARK    3  A    between atoms: CA   and  CB  
ROOT
ATOM      9  CA  VAL A 134     -29.766 132.051   9.815  1.00 40.75     0.159 C 
ENDROOT
BRANCH   9  10
ATOM     10  CB  VAL A 134     -30.864 132.765   9.009  1.00 40.76     0.029 C 
ATOM     11  CG1 VAL A 134     -31.226 131.965   7.766  1.00 41.76     0.002 C 
ATOM     12  CG2 VAL A 134     -32.098 133.034   9.857  1.00 40.56     0.002 C 
ENDBRANCH   9  10
END_RES VAL A 134
BEGIN_RES TYR A 338
REMARK  3 active torsions:
REMARK  status: ('A' for Active; 'I' for Inactive)
REMARK    4  A    between atoms: CA   and  CB  
REMARK    5  A    between atoms: CB   and  CG  
REMARK    6  A    between atoms: CZ   and  OH  
ROOT
ATOM     13  CA  TYR A 338     -41.631 124.950   6.058  1.00 38.23     0.164 C 
ENDROOT
BRANCH  13  14
ATOM     14  CB  TYR A 338     -41.621 126.456   6.339  1.00 39.15     0.058 C 
BRANCH  14  15
ATOM     15  CG  TYR A 338     -40.397 127.204   5.863  1.00 39.03    -0.020 A 
ATOM     16  CD2 TYR A 338     -40.237 128.547   6.160  1.00 40.65    -0.002 A 
ATOM     17  CE2 TYR A 338     -39.135 129.268   5.726  1.00 40.91     0.024 A 
ATOM     18  CZ  TYR A 338     -38.159 128.643   4.973  1.00 42.33     0.089 A 
ATOM     19  CE1 TYR A 338     -38.295 127.300   4.667  1.00 40.63     0.024 A 
ATOM     20  CD1 TYR A 338     -39.411 126.600   5.099  1.00 39.27    -0.002 A 
BRANCH  18  21
ATOM     21  OH  TYR A 338     -37.067 129.343   4.543  1.00 43.36    -0.359 OA
ATOM     22  HH  TYR A 338     -36.924 129.490   3.616  1.00  0.00     0.217 HD
ENDBRANCH  18  21
ENDBRANCH  14  15
ENDBRANCH  13  14
END_RES TYR A 338
ENDMDL
