MODEL 1
REMARK VINA RESULT:   -10.421      0.000      0.000
REMARK INTER + INTRA:         -17.105
REMARK INTER:                 -10.421
REMARK INTRA:                  -6.685
REMARK UNBOUND:                -6.685
REMARK  0 active torsions:
REMARK  status: ('A' for Active; 'I' for Inactive)
REMARK       I    between atoms: C6_6  and  C7_7 
REMARK       I    between atoms: C8_8  and  C9_9 
REMARK       I    between atoms: C10_10  and  C11_11 
REMARK       I    between atoms: C12_16  and  C13_17 
REMARK       I    between atoms: C14_18  and  C15_19 
REMARK       I    between atoms: C16_20  and  C17_21 
REMARK       I    between atoms: C18_22  and  C19_23 
REMARK       I    between atoms: C20_24  and  C21_25 
REMARK       I    between atoms: C22_26  and  C23_27 
REMARK       I    between atoms: C24_28  and  C25_29 
ROOT
HETATM    1  C1  BCR C 515     -35.132 131.096   8.259  1.00 37.08    -0.020 C 
HETATM    2  C2  BCR C 515     -34.194 130.069   8.878  1.00 40.43     0.014 C 
HETATM    3  C3  BCR C 515     -33.712 130.485  10.258  1.00 40.60     0.005 C 
HETATM    4  C4  BCR C 515     -34.891 130.577  11.195  1.00 41.76     0.034 C 
HETATM    5  C5  BCR C 515     -36.005 131.405  10.595  1.00 44.35    -0.077 C 
HETATM    6  C6  BCR C 515     -36.117 131.636   9.253  1.00 38.34    -0.048 C 
HETATM    7  C7  BCR C 515     -37.276 132.442   8.777  1.00 39.43     0.009 C 
HETATM    8  C8  BCR C 515     -37.494 133.690   9.213  1.00 35.24     0.007 C 
HETATM    9  C9  BCR C 515     -38.685 134.399   8.705  1.00 37.97    -0.062 C 
HETATM   10  C10 BCR C 515     -38.984 135.618   9.224  1.00 36.80     0.007 C 
HETATM   11  C11 BCR C 515     -40.108 136.497   8.872  1.00 32.61     0.001 C 
HETATM   12  C33 BCR C 515     -37.027 131.944  11.572  1.00 42.05     0.044 C 
HETATM   13  C31 BCR C 515     -35.820 130.344   7.147  1.00 31.99     0.020 C 
HETATM   14  C32 BCR C 515     -34.329 132.296   7.691  1.00 38.11     0.020 C 
HETATM   15  C34 BCR C 515     -39.552 133.709   7.672  1.00 32.75     0.048 C 
HETATM   16  C12 BCR C 515     -40.191 137.704   9.487  1.00 33.17     0.007 C 
HETATM   17  C13 BCR C 515     -41.305 138.638   9.177  1.00 34.98    -0.062 C 
HETATM   18  C14 BCR C 515     -41.232 139.943   9.536  1.00 34.48     0.007 C 
HETATM   19  C15 BCR C 515     -42.286 140.938   9.301  1.00 37.70     0.001 C 
HETATM   20  C16 BCR C 515     -42.153 142.214   9.681  1.00 34.86     0.001 C 
HETATM   21  C17 BCR C 515     -43.240 143.165   9.429  1.00 31.74     0.007 C 
HETATM   22  C18 BCR C 515     -43.210 144.524   9.617  1.00 36.05    -0.062 C 
HETATM   23  C19 BCR C 515     -44.465 145.272   9.355  1.00 34.77     0.007 C 
HETATM   24  C20 BCR C 515     -44.652 146.560   9.674  1.00 37.78     0.001 C 
HETATM   25  C21 BCR C 515     -45.963 147.180   9.439  1.00 37.22     0.007 C 
HETATM   26  C22 BCR C 515     -46.298 148.459   9.715  1.00 37.09    -0.062 C 
HETATM   27  C23 BCR C 515     -47.695 148.828   9.464  1.00 34.50     0.007 C 
HETATM   28  C24 BCR C 515     -48.263 149.928   9.965  1.00 34.78     0.009 C 
HETATM   29  C25 BCR C 515     -49.710 150.202   9.734  1.00 32.41    -0.048 C 
HETATM   30  C26 BCR C 515     -50.275 150.364   8.503  1.00 31.92    -0.077 C 
HETATM   31  C27 BCR C 515     -51.755 150.655   8.359  1.00 30.54     0.034 C 
HETATM   32  C28 BCR C 515     -52.551 150.262   9.601  1.00 33.89     0.005 C 
HETATM   33  C29 BCR C 515     -51.910 150.821  10.859  1.00 28.08     0.014 C 
HETATM   34  C30 BCR C 515     -50.511 150.237  11.029  1.00 34.48    -0.020 C 
HETATM   35  C35 BCR C 515     -42.528 138.093   8.475  1.00 35.00     0.048 C 
HETATM   36  C36 BCR C 515     -41.995 145.262  10.179  1.00 34.98     0.048 C 
HETATM   37  C37 BCR C 515     -45.331 149.458  10.336  1.00 38.26     0.048 C 
HETATM   38  C38 BCR C 515     -49.470 150.366   7.211  1.00 29.97     0.044 C 
HETATM   39  C39 BCR C 515     -50.536 148.846  11.692  1.00 29.94     0.020 C 
HETATM   40  C40 BCR C 515     -49.745 151.142  11.998  1.00 31.43     0.020 C 
ENDROOT
TORSDOF 10
BEGIN_RES PHE A  61
REMARK  2 active torsions:
REMARK  status: ('A' for Active; 'I' for Inactive)
REMARK    1  A    between atoms: CA   and  CB  
REMARK    2  A    between atoms: CB   and  CG  
ROOT
ATOM      1  CA  PHE A  61     -36.237 128.293  12.768  1.00 39.40     0.164 C 
ENDROOT
BRANCH   1   2
ATOM      2  CB  PHE A  61     -36.813 128.951  11.509  1.00 39.41     0.058 C 
BRANCH   2   3
ATOM      3  CG  PHE A  61     -36.673 128.124  10.253  1.00 39.01    -0.020 A 
ATOM      4  CD2 PHE A  61     -37.676 128.106   9.297  1.00 40.32    -0.004 A 
ATOM      5  CE2 PHE A  61     -37.547 127.343   8.144  1.00 40.20    -0.000 A 
ATOM      6  CZ  PHE A  61     -36.413 126.593   7.931  1.00 40.34    -0.000 A 
ATOM      7  CE1 PHE A  61     -35.406 126.602   8.871  1.00 41.51    -0.000 A 
ATOM      8  CD1 PHE A  61     -35.537 127.360  10.027  1.00 39.94    -0.004 A 
ENDBRANCH   2   3
ENDBRANCH   1   2
END_RES PHE A  61
BEGIN_RES VAL A 134
REMARK  1 active torsions:
REMARK  status: ('A' for Active; 'I' for Inactive)
REMARK    3  A    between atoms: CA   and  CB  
ROOT
ATOM      9  CA  VAL A 134     -29.766 132.051   9.815  1.00 40.75     0.159 C 
ENDROOT
BRANCH   9  10
ATOM     10  CB  VAL A 134     -30.864 132.765   9.009  1.00 40.76     0.029 C 
ATOM     11  CG1 VAL A 134     -31.235 131.959   7.773  1.00 41.76     0.002 C 
ATOM     12  CG2 VAL A 134     -32.093 133.045   9.860  1.00 40.56     0.002 C 
ENDBRANCH   9  10
END_RES VAL A 134
BEGIN_RES TYR A 338
REMARK  3 active torsions:
REMARK  status: ('A' for Active; 'I' for Inactive)
REMARK    4  A    between atoms: CA   and  CB  
REMARK    5  A    between atoms: CB   and  CG  
REMARK    6  A    between atoms: CZ   and  OH  
ROOT
ATOM     13  CA  TYR A 338     -41.631 124.950   6.058  1.00 38.23     0.164 C 
ENDROOT
BRANCH  13  14
ATOM     14  CB  TYR A 338     -41.621 126.456   6.339  1.00 39.15     0.058 C 
BRANCH  14  15
ATOM     15  CG  TYR A 338     -40.408 127.208   5.842  1.00 39.03    -0.020 A 
ATOM     16  CD2 TYR A 338     -39.442 126.562   5.090  1.00 40.65    -0.002 A 
ATOM     17  CE2 TYR A 338     -38.310 127.216   4.631  1.00 40.91     0.024 A 
ATOM     18  CZ  TYR A 338     -38.124 128.554   4.925  1.00 42.33     0.089 A 
ATOM     19  CE1 TYR A 338     -39.077 129.223   5.671  1.00 40.63     0.024 A 
ATOM     20  CD1 TYR A 338     -40.197 128.547   6.132  1.00 39.27    -0.002 A 
BRANCH  18  21
ATOM     21  OH  TYR A 338     -37.013 129.211   4.473  1.00 43.36    -0.359 OA
ATOM     22  HH  TYR A 338     -36.613 128.966   3.647  1.00  0.00     0.217 HD
ENDBRANCH  18  21
ENDBRANCH  14  15
ENDBRANCH  13  14
END_RES TYR A 338
ENDMDL
MODEL 2
REMARK VINA RESULT:    -7.566      2.865      4.816
REMARK INTER + INTRA:         -14.250
REMARK INTER:                 -11.964
REMARK INTRA:                  -2.286
REMARK UNBOUND:                -6.685
REMARK  0 active torsions:
REMARK  status: ('A' for Active; 'I' for Inactive)
REMARK       I    between atoms: C6_6  and  C7_7 
REMARK       I    between atoms: C8_8  and  C9_9 
REMARK       I    between atoms: C10_10  and  C11_11 
REMARK       I    between atoms: C12_16  and  C13_17 
REMARK       I    between atoms: C14_18  and  C15_19 
REMARK       I    between atoms: C16_20  and  C17_21 
REMARK       I    between atoms: C18_22  and  C19_23 
REMARK       I    between atoms: C20_24  and  C21_25 
REMARK       I    between atoms: C22_26  and  C23_27 
REMARK       I    between atoms: C24_28  and  C25_29 
ROOT
HETATM    1  C1  BCR C 515     -34.760 127.083   5.680  1.00 37.08    -0.020 C 
HETATM    2  C2  BCR C 515     -33.476 126.339   5.340  1.00 40.43     0.014 C 
HETATM    3  C3  BCR C 515     -32.296 127.279   5.155  1.00 40.60     0.005 C 
HETATM    4  C4  BCR C 515     -32.019 127.999   6.451  1.00 41.76     0.034 C 
HETATM    5  C5  BCR C 515     -33.280 128.608   7.021  1.00 44.35    -0.077 C 
HETATM    6  C6  BCR C 515     -34.531 128.185   6.673  1.00 38.34    -0.048 C 
HETATM    7  C7  BCR C 515     -35.699 128.842   7.324  1.00 39.43     0.009 C 
HETATM    8  C8  BCR C 515     -35.904 130.163   7.238  1.00 35.24     0.007 C 
HETATM    9  C9  BCR C 515     -37.073 130.727   7.941  1.00 37.97    -0.062 C 
HETATM   10  C10 BCR C 515     -37.230 132.075   7.959  1.00 36.80     0.007 C 
HETATM   11  C11 BCR C 515     -38.309 132.848   8.591  1.00 32.61     0.001 C 
HETATM   12  C33 BCR C 515     -33.080 129.706   8.043  1.00 42.05     0.044 C 
HETATM   13  C31 BCR C 515     -35.669 126.015   6.235  1.00 31.99     0.020 C 
HETATM   14  C32 BCR C 515     -35.377 127.717   4.406  1.00 38.11     0.020 C 
HETATM   15  C34 BCR C 515     -38.011 129.779   8.659  1.00 32.75     0.048 C 
HETATM   16  C12 BCR C 515     -38.295 134.198   8.446  1.00 33.17     0.007 C 
HETATM   17  C13 BCR C 515     -39.356 135.038   9.061  1.00 34.98    -0.062 C 
HETATM   18  C14 BCR C 515     -39.531 136.324   8.672  1.00 34.48     0.007 C 
HETATM   19  C15 BCR C 515     -40.530 137.242   9.234  1.00 37.70     0.001 C 
HETATM   20  C16 BCR C 515     -40.653 138.504   8.806  1.00 34.86     0.001 C 
HETATM   21  C17 BCR C 515     -41.661 139.381   9.408  1.00 31.74     0.007 C 
HETATM   22  C18 BCR C 515     -42.017 140.639   8.991  1.00 36.05    -0.062 C 
HETATM   23  C19 BCR C 515     -43.022 141.365   9.809  1.00 34.77     0.007 C 
HETATM   24  C20 BCR C 515     -43.328 142.659   9.648  1.00 37.78     0.001 C 
HETATM   25  C21 BCR C 515     -44.283 143.296  10.566  1.00 37.22     0.007 C 
HETATM   26  C22 BCR C 515     -44.680 144.586  10.530  1.00 37.09    -0.062 C 
HETATM   27  C23 BCR C 515     -45.586 145.012  11.601  1.00 34.50     0.007 C 
HETATM   28  C24 BCR C 515     -45.818 146.293  11.897  1.00 34.78     0.009 C 
HETATM   29  C25 BCR C 515     -46.690 146.656  13.051  1.00 32.41    -0.048 C 
HETATM   30  C26 BCR C 515     -48.002 146.300  13.164  1.00 31.92    -0.077 C 
HETATM   31  C27 BCR C 515     -48.821 146.723  14.367  1.00 30.54     0.034 C 
HETATM   32  C28 BCR C 515     -47.951 147.106  15.560  1.00 33.89     0.005 C 
HETATM   33  C29 BCR C 515     -46.865 148.086  15.151  1.00 28.08     0.014 C 
HETATM   34  C30 BCR C 515     -45.943 147.435  14.124  1.00 34.48    -0.020 C 
HETATM   35  C35 BCR C 515     -40.215 134.431  10.147  1.00 35.00     0.048 C 
HETATM   36  C36 BCR C 515     -41.352 141.347   7.811  1.00 34.98     0.048 C 
HETATM   37  C37 BCR C 515     -44.165 145.588   9.505  1.00 38.26     0.048 C 
HETATM   38  C38 BCR C 515     -48.760 145.552  12.075  1.00 29.97     0.044 C 
HETATM   39  C39 BCR C 515     -44.863 146.555  14.786  1.00 29.94     0.020 C 
HETATM   40  C40 BCR C 515     -45.181 148.554  13.410  1.00 31.43     0.020 C 
ENDROOT
TORSDOF 10
BEGIN_RES PHE A  61
REMARK  2 active torsions:
REMARK  status: ('A' for Active; 'I' for Inactive)
REMARK    1  A    between atoms: CA   and  CB  
REMARK    2  A    between atoms: CB   and  CG  
ROOT
ATOM      1  CA  PHE A  61     -36.237 128.293  12.768  1.00 39.40     0.164 C 
ENDROOT
BRANCH   1   2
ATOM      2  CB  PHE A  61     -36.813 128.951  11.509  1.00 39.41     0.058 C 
BRANCH   2   3
ATOM      3  CG  PHE A  61     -36.354 130.372  11.282  1.00 39.01    -0.020 A 
ATOM      4  CD2 PHE A  61     -35.119 130.638  10.712  1.00 40.32    -0.004 A 
ATOM      5  CE2 PHE A  61     -34.697 131.946  10.507  1.00 40.20    -0.000 A 
ATOM      6  CZ  PHE A  61     -35.506 133.000  10.865  1.00 40.34    -0.000 A 
ATOM      7  CE1 PHE A  61     -36.737 132.752  11.430  1.00 41.51    -0.000 A 
ATOM      8  CD1 PHE A  61     -37.157 131.445  11.642  1.00 39.94    -0.004 A 
ENDBRANCH   2   3
ENDBRANCH   1   2
END_RES PHE A  61
BEGIN_RES VAL A 134
REMARK  1 active torsions:
REMARK  status: ('A' for Active; 'I' for Inactive)
REMARK    3  A    between atoms: CA   and  CB  
ROOT
ATOM      9  CA  VAL A 134     -29.766 132.051   9.815  1.00 40.75     0.159 C 
ENDROOT
BRANCH   9  10
ATOM     10  CB  VAL A 134     -30.864 132.765   9.009  1.00 40.76     0.029 C 
ATOM     11  CG1 VAL A 134     -31.178 132.000   7.732  1.00 41.76     0.002 C 
ATOM     12  CG2 VAL A 134     -32.123 132.973   9.837  1.00 40.56     0.002 C 
ENDBRANCH   9  10
END_RES VAL A 134
BEGIN_RES TYR A 338
REMARK  3 active torsions:
REMARK  status: ('A' for Active; 'I' for Inactive)
REMARK    4  A    between atoms: CA   and  CB  
REMARK    5  A    between atoms: CB   and  CG  
REMARK    6  A    between atoms: CZ   and  OH  
ROOT
ATOM     13  CA  TYR A 338     -41.631 124.950   6.058  1.00 38.23     0.164 C 
ENDROOT
BRANCH  13  14
ATOM     14  CB  TYR A 338     -41.621 126.456   6.339  1.00 39.15     0.058 C 
BRANCH  14  15
ATOM     15  CG  TYR A 338     -40.433 127.217   5.797  1.00 39.03    -0.020 A 
ATOM     16  CD2 TYR A 338     -40.258 128.555   6.105  1.00 40.65    -0.002 A 
ATOM     17  CE2 TYR A 338     -39.189 129.288   5.612  1.00 40.91     0.024 A 
ATOM     18  CZ  TYR A 338     -38.262 128.679   4.788  1.00 42.33     0.089 A 
ATOM     19  CE1 TYR A 338     -38.412 127.340   4.470  1.00 40.63     0.024 A 
ATOM     20  CD1 TYR A 338     -39.496 126.629   4.961  1.00 39.27    -0.002 A 
BRANCH  18  21
ATOM     21  OH  TYR A 338     -37.201 129.390   4.300  1.00 43.36    -0.359 OA
ATOM     22  HH  TYR A 338     -37.153 130.330   4.428  1.00  0.00     0.217 HD
ENDBRANCH  18  21
ENDBRANCH  14  15
ENDBRANCH  13  14
END_RES TYR A 338
ENDMDL
