MODEL 1
REMARK VINA RESULT:    -9.043      0.000      0.000
REMARK INTER + INTRA:         -15.088
REMARK INTER:                  -9.043
REMARK INTRA:                  -6.044
REMARK UNBOUND:                -6.044
REMARK  0 active torsions:
REMARK  status: ('A' for Active; 'I' for Inactive)
REMARK       I    between atoms: C6_6  and  C7_7 
REMARK       I    between atoms: C8_8  and  C9_9 
REMARK       I    between atoms: C10_10  and  C11_11 
REMARK       I    between atoms: C12_16  and  C13_17 
REMARK       I    between atoms: C14_18  and  C15_19 
REMARK       I    between atoms: C16_20  and  C17_21 
REMARK       I    between atoms: C18_22  and  C19_23 
REMARK       I    between atoms: C20_24  and  C21_25 
REMARK       I    between atoms: C22_26  and  C23_27 
REMARK       I    between atoms: C24_28  and  C25_29 
ROOT
HETATM    1  C1  BCR B 619     -34.572 130.204   7.827  1.00 28.89    -0.020 C 
HETATM    2  C2  BCR B 619     -33.332 129.483   8.389  1.00 28.87     0.014 C 
HETATM    3  C3  BCR B 619     -32.763 130.184   9.616  1.00 24.82     0.005 C 
HETATM    4  C4  BCR B 619     -33.815 130.332  10.734  1.00 26.55     0.034 C 
HETATM    5  C5  BCR B 619     -35.175 130.799  10.217  1.00 25.55    -0.077 C 
HETATM    6  C6  BCR B 619     -35.518 130.755   8.907  1.00 25.71    -0.048 C 
HETATM    7  C7  BCR B 619     -36.839 131.289   8.433  1.00 26.15     0.009 C 
HETATM    8  C8  BCR B 619     -37.235 132.548   8.750  1.00 24.62     0.007 C 
HETATM    9  C9  BCR B 619     -38.492 133.187   8.289  1.00 23.75    -0.062 C 
HETATM   10  C10 BCR B 619     -38.757 134.413   8.774  1.00 23.51     0.007 C 
HETATM   11  C11 BCR B 619     -39.952 135.206   8.393  1.00 22.91     0.001 C 
HETATM   12  C33 BCR B 619     -36.102 131.345  11.271  1.00 26.88     0.044 C 
HETATM   13  C31 BCR B 619     -35.287 129.147   6.977  1.00 28.47     0.020 C 
HETATM   14  C32 BCR B 619     -34.102 131.358   6.928  1.00 29.15     0.020 C 
HETATM   15  C34 BCR B 619     -39.387 132.483   7.248  1.00 23.47     0.048 C 
HETATM   16  C12 BCR B 619     -40.064 136.508   8.702  1.00 20.45     0.007 C 
HETATM   17  C13 BCR B 619     -41.200 137.367   8.321  1.00 21.99    -0.062 C 
HETATM   18  C14 BCR B 619     -41.294 138.633   8.819  1.00 22.06     0.007 C 
HETATM   19  C15 BCR B 619     -42.354 139.633   8.572  1.00 21.97     0.001 C 
HETATM   20  C16 BCR B 619     -42.492 140.791   9.277  1.00 20.65     0.001 C 
HETATM   21  C17 BCR B 619     -43.591 141.721   8.998  1.00 23.36     0.007 C 
HETATM   22  C18 BCR B 619     -43.819 142.933   9.541  1.00 22.90    -0.062 C 
HETATM   23  C19 BCR B 619     -44.993 143.715   9.062  1.00 24.93     0.007 C 
HETATM   24  C20 BCR B 619     -45.417 144.835   9.682  1.00 23.33     0.001 C 
HETATM   25  C21 BCR B 619     -46.582 145.580   9.223  1.00 25.92     0.007 C 
HETATM   26  C22 BCR B 619     -47.071 146.761   9.708  1.00 29.58    -0.062 C 
HETATM   27  C23 BCR B 619     -48.264 147.330   9.009  1.00 30.44     0.007 C 
HETATM   28  C24 BCR B 619     -49.022 148.365   9.461  1.00 37.61     0.009 C 
HETATM   29  C25 BCR B 619     -50.221 149.002   8.776  1.00 35.86    -0.048 C 
HETATM   30  C26 BCR B 619     -51.420 148.384   8.665  1.00 38.98    -0.077 C 
HETATM   31  C27 BCR B 619     -52.600 149.045   7.996  1.00 37.08     0.034 C 
HETATM   32  C28 BCR B 619     -52.134 149.919   6.840  1.00 38.77     0.005 C 
HETATM   33  C29 BCR B 619     -51.269 151.008   7.454  1.00 41.75     0.014 C 
HETATM   34  C30 BCR B 619     -50.072 150.443   8.259  1.00 42.71    -0.020 C 
HETATM   35  C35 BCR B 619     -42.197 136.803   7.306  1.00 20.47     0.048 C 
HETATM   36  C36 BCR B 619     -42.960 143.534  10.670  1.00 21.73     0.048 C 
HETATM   37  C37 BCR B 619     -46.450 147.526  10.895  1.00 28.12     0.048 C 
HETATM   38  C38 BCR B 619     -51.678 146.982   9.155  1.00 37.79     0.044 C 
HETATM   39  C39 BCR B 619     -49.863 151.350   9.503  1.00 45.59     0.020 C 
HETATM   40  C40 BCR B 619     -48.865 150.539   7.351  1.00 39.52     0.020 C 
ENDROOT
TORSDOF 10
BEGIN_RES PHE A  61
REMARK  2 active torsions:
REMARK  status: ('A' for Active; 'I' for Inactive)
REMARK    1  A    between atoms: CA   and  CB  
REMARK    2  A    between atoms: CB   and  CG  
ROOT
ATOM      1  CA  PHE A  61     -36.237 128.293  12.768  1.00 39.40     0.164 C 
ENDROOT
BRANCH   1   2
ATOM      2  CB  PHE A  61     -36.813 128.951  11.509  1.00 39.41     0.058 C 
BRANCH   2   3
ATOM      3  CG  PHE A  61     -36.807 128.067  10.285  1.00 39.01    -0.020 A 
ATOM      4  CD2 PHE A  61     -35.716 127.265   9.991  1.00 40.32    -0.004 A 
ATOM      5  CE2 PHE A  61     -35.711 126.454   8.863  1.00 40.20    -0.000 A 
ATOM      6  CZ  PHE A  61     -36.797 126.435   8.018  1.00 40.34    -0.000 A 
ATOM      7  CE1 PHE A  61     -37.890 127.225   8.296  1.00 41.51    -0.000 A 
ATOM      8  CD1 PHE A  61     -37.893 128.040   9.421  1.00 39.94    -0.004 A 
ENDBRANCH   2   3
ENDBRANCH   1   2
END_RES PHE A  61
BEGIN_RES VAL A 134
REMARK  1 active torsions:
REMARK  status: ('A' for Active; 'I' for Inactive)
REMARK    3  A    between atoms: CA   and  CB  
ROOT
ATOM      9  CA  VAL A 134     -29.766 132.051   9.815  1.00 40.75     0.159 C 
ENDROOT
BRANCH   9  10
ATOM     10  CB  VAL A 134     -30.864 132.765   9.009  1.00 40.76     0.029 C 
ATOM     11  CG1 VAL A 134     -31.164 132.010   7.722  1.00 41.76     0.002 C 
ATOM     12  CG2 VAL A 134     -32.130 132.955   9.831  1.00 40.56     0.002 C 
ENDBRANCH   9  10
END_RES VAL A 134
BEGIN_RES TYR A 338
REMARK  3 active torsions:
REMARK  status: ('A' for Active; 'I' for Inactive)
REMARK    4  A    between atoms: CA   and  CB  
REMARK    5  A    between atoms: CB   and  CG  
REMARK    6  A    between atoms: CZ   and  OH  
ROOT
ATOM     13  CA  TYR A 338     -41.631 124.950   6.058  1.00 38.23     0.164 C 
ENDROOT
BRANCH  13  14
ATOM     14  CB  TYR A 338     -41.621 126.456   6.339  1.00 39.15     0.058 C 
BRANCH  14  15
ATOM     15  CG  TYR A 338     -40.398 127.204   5.861  1.00 39.03    -0.020 A 
ATOM     16  CD2 TYR A 338     -40.221 128.538   6.187  1.00 40.65    -0.002 A 
ATOM     17  CE2 TYR A 338     -39.119 129.260   5.753  1.00 40.91     0.024 A 
ATOM     18  CZ  TYR A 338     -38.161 128.644   4.971  1.00 42.33     0.089 A 
ATOM     19  CE1 TYR A 338     -38.313 127.310   4.636  1.00 40.63     0.024 A 
ATOM     20  CD1 TYR A 338     -39.428 126.610   5.069  1.00 39.27    -0.002 A 
BRANCH  18  21
ATOM     21  OH  TYR A 338     -37.068 129.344   4.541  1.00 43.36    -0.359 OA
ATOM     22  HH  TYR A 338     -36.316 129.458   5.110  1.00  0.00     0.217 HD
ENDBRANCH  18  21
ENDBRANCH  14  15
ENDBRANCH  13  14
END_RES TYR A 338
ENDMDL
MODEL 2
REMARK VINA RESULT:    -7.876      2.673      4.542
REMARK INTER + INTRA:         -13.920
REMARK INTER:                 -11.284
REMARK INTRA:                  -2.636
REMARK UNBOUND:                -6.044
REMARK  0 active torsions:
REMARK  status: ('A' for Active; 'I' for Inactive)
REMARK       I    between atoms: C6_6  and  C7_7 
REMARK       I    between atoms: C8_8  and  C9_9 
REMARK       I    between atoms: C10_10  and  C11_11 
REMARK       I    between atoms: C12_16  and  C13_17 
REMARK       I    between atoms: C14_18  and  C15_19 
REMARK       I    between atoms: C16_20  and  C17_21 
REMARK       I    between atoms: C18_22  and  C19_23 
REMARK       I    between atoms: C20_24  and  C21_25 
REMARK       I    between atoms: C22_26  and  C23_27 
REMARK       I    between atoms: C24_28  and  C25_29 
ROOT
HETATM    1  C1  BCR B 619     -33.919 126.894   6.862  1.00 28.89    -0.020 C 
HETATM    2  C2  BCR B 619     -33.050 126.150   5.830  1.00 28.87     0.014 C 
HETATM    3  C3  BCR B 619     -32.708 127.021   4.627  1.00 24.82     0.005 C 
HETATM    4  C4  BCR B 619     -31.998 128.326   5.044  1.00 26.55     0.034 C 
HETATM    5  C5  BCR B 619     -32.651 129.003   6.248  1.00 25.55    -0.077 C 
HETATM    6  C6  BCR B 619     -33.526 128.367   7.064  1.00 25.71    -0.048 C 
HETATM    7  C7  BCR B 619     -34.198 129.091   8.195  1.00 26.15     0.009 C 
HETATM    8  C8  BCR B 619     -34.862 130.255   7.979  1.00 24.62     0.007 C 
HETATM    9  C9  BCR B 619     -35.602 131.018   9.015  1.00 23.75    -0.062 C 
HETATM   10  C10 BCR B 619     -36.129 132.195   8.633  1.00 23.51     0.007 C 
HETATM   11  C11 BCR B 619     -36.924 133.069   9.532  1.00 22.91     0.001 C 
HETATM   12  C33 BCR B 619     -32.274 130.448   6.446  1.00 26.88     0.044 C 
HETATM   13  C31 BCR B 619     -33.737 126.107   8.165  1.00 28.47     0.020 C 
HETATM   14  C32 BCR B 619     -35.386 126.817   6.412  1.00 29.15     0.020 C 
HETATM   15  C34 BCR B 619     -35.801 130.426  10.425  1.00 23.47     0.048 C 
HETATM   16  C12 BCR B 619     -37.633 134.108   9.061  1.00 20.45     0.007 C 
HETATM   17  C13 BCR B 619     -38.477 134.990   9.887  1.00 21.99    -0.062 C 
HETATM   18  C14 BCR B 619     -39.029 136.112   9.340  1.00 22.06     0.007 C 
HETATM   19  C15 BCR B 619     -39.882 137.121  10.000  1.00 21.97     0.001 C 
HETATM   20  C16 BCR B 619     -40.210 138.324   9.448  1.00 20.65     0.001 C 
HETATM   21  C17 BCR B 619     -41.035 139.292  10.177  1.00 23.36     0.007 C 
HETATM   22  C18 BCR B 619     -41.512 140.476   9.747  1.00 22.90    -0.062 C 
HETATM   23  C19 BCR B 619     -42.369 141.274  10.669  1.00 24.93     0.007 C 
HETATM   24  C20 BCR B 619     -42.721 142.549  10.408  1.00 23.33     0.001 C 
HETATM   25  C21 BCR B 619     -43.538 143.330  11.327  1.00 25.92     0.007 C 
HETATM   26  C22 BCR B 619     -44.025 144.595  11.152  1.00 29.58    -0.062 C 
HETATM   27  C23 BCR B 619     -44.884 145.139  12.249  1.00 30.44     0.007 C 
HETATM   28  C24 BCR B 619     -45.283 146.435  12.368  1.00 37.61     0.009 C 
HETATM   29  C25 BCR B 619     -46.179 147.032  13.441  1.00 35.86    -0.048 C 
HETATM   30  C26 BCR B 619     -45.779 147.207  14.722  1.00 38.98    -0.077 C 
HETATM   31  C27 BCR B 619     -46.682 147.819  15.764  1.00 37.08     0.034 C 
HETATM   32  C28 BCR B 619     -48.129 147.419  15.513  1.00 38.77     0.005 C 
HETATM   33  C29 BCR B 619     -48.503 148.006  14.162  1.00 41.75     0.014 C 
HETATM   34  C30 BCR B 619     -47.574 147.526  13.020  1.00 42.71    -0.020 C 
HETATM   35  C35 BCR B 619     -38.755 134.552  11.326  1.00 20.47     0.048 C 
HETATM   36  C36 BCR B 619     -41.177 141.077   8.369  1.00 21.73     0.048 C 
HETATM   37  C37 BCR B 619     -43.759 145.455   9.900  1.00 28.12     0.048 C 
HETATM   38  C38 BCR B 619     -44.427 146.777  15.234  1.00 37.79     0.044 C 
HETATM   39  C39 BCR B 619     -47.356 148.719  12.048  1.00 45.59     0.020 C 
HETATM   40  C40 BCR B 619     -48.315 146.417  12.305  1.00 39.52     0.020 C 
ENDROOT
TORSDOF 10
BEGIN_RES PHE A  61
REMARK  2 active torsions:
REMARK  status: ('A' for Active; 'I' for Inactive)
REMARK    1  A    between atoms: CA   and  CB  
REMARK    2  A    between atoms: CB   and  CG  
ROOT
ATOM      1  CA  PHE A  61     -36.237 128.293  12.768  1.00 39.40     0.164 C 
ENDROOT
BRANCH   1   2
ATOM      2  CB  PHE A  61     -36.813 128.951  11.509  1.00 39.41     0.058 C 
BRANCH   2   3
ATOM      3  CG  PHE A  61     -37.065 127.997  10.366  1.00 39.01    -0.020 A 
ATOM      4  CD2 PHE A  61     -36.352 126.814  10.256  1.00 40.32    -0.004 A 
ATOM      5  CE2 PHE A  61     -36.582 125.939   9.202  1.00 40.20    -0.000 A 
ATOM      6  CZ  PHE A  61     -37.530 126.234   8.249  1.00 40.34    -0.000 A 
ATOM      7  CE1 PHE A  61     -38.249 127.405   8.345  1.00 41.51    -0.000 A 
ATOM      8  CD1 PHE A  61     -38.014 128.284   9.395  1.00 39.94    -0.004 A 
ENDBRANCH   2   3
ENDBRANCH   1   2
END_RES PHE A  61
BEGIN_RES VAL A 134
REMARK  1 active torsions:
REMARK  status: ('A' for Active; 'I' for Inactive)
REMARK    3  A    between atoms: CA   and  CB  
ROOT
ATOM      9  CA  VAL A 134     -29.766 132.051   9.815  1.00 40.75     0.159 C 
ENDROOT
BRANCH   9  10
ATOM     10  CB  VAL A 134     -30.864 132.765   9.009  1.00 40.76     0.029 C 
ATOM     11  CG1 VAL A 134     -30.827 132.334   7.550  1.00 41.76     0.002 C 
ATOM     12  CG2 VAL A 134     -32.242 132.530   9.607  1.00 40.56     0.002 C 
ENDBRANCH   9  10
END_RES VAL A 134
BEGIN_RES TYR A 338
REMARK  3 active torsions:
REMARK  status: ('A' for Active; 'I' for Inactive)
REMARK    4  A    between atoms: CA   and  CB  
REMARK    5  A    between atoms: CB   and  CG  
REMARK    6  A    between atoms: CZ   and  OH  
ROOT
ATOM     13  CA  TYR A 338     -41.631 124.950   6.058  1.00 38.23     0.164 C 
ENDROOT
BRANCH  13  14
ATOM     14  CB  TYR A 338     -41.621 126.456   6.339  1.00 39.15     0.058 C 
BRANCH  14  15
ATOM     15  CG  TYR A 338     -40.399 127.205   5.858  1.00 39.03    -0.020 A 
ATOM     16  CD2 TYR A 338     -40.227 128.542   6.175  1.00 40.65    -0.002 A 
ATOM     17  CE2 TYR A 338     -39.127 129.264   5.738  1.00 40.91     0.024 A 
ATOM     18  CZ  TYR A 338     -38.166 128.646   4.961  1.00 42.33     0.089 A 
ATOM     19  CE1 TYR A 338     -38.313 127.309   4.635  1.00 40.63     0.024 A 
ATOM     20  CD1 TYR A 338     -39.427 126.608   5.071  1.00 39.27    -0.002 A 
BRANCH  18  21
ATOM     21  OH  TYR A 338     -37.075 129.347   4.528  1.00 43.36    -0.359 OA
ATOM     22  HH  TYR A 338     -36.803 129.299   3.619  1.00  0.00     0.217 HD
ENDBRANCH  18  21
ENDBRANCH  14  15
ENDBRANCH  13  14
END_RES TYR A 338
ENDMDL
MODEL 3
REMARK VINA RESULT:    -7.368      2.556     16.815
REMARK INTER + INTRA:         -13.412
REMARK INTER:                 -10.230
REMARK INTRA:                  -3.183
REMARK UNBOUND:                -6.044
REMARK  0 active torsions:
REMARK  status: ('A' for Active; 'I' for Inactive)
REMARK       I    between atoms: C6_6  and  C7_7 
REMARK       I    between atoms: C8_8  and  C9_9 
REMARK       I    between atoms: C10_10  and  C11_11 
REMARK       I    between atoms: C12_16  and  C13_17 
REMARK       I    between atoms: C14_18  and  C15_19 
REMARK       I    between atoms: C16_20  and  C17_21 
REMARK       I    between atoms: C18_22  and  C19_23 
REMARK       I    between atoms: C20_24  and  C21_25 
REMARK       I    between atoms: C22_26  and  C23_27 
REMARK       I    between atoms: C24_28  and  C25_29 
ROOT
HETATM    1  C1  BCR B 619     -47.117 147.951  12.270  1.00 28.89    -0.020 C 
HETATM    2  C2  BCR B 619     -47.875 148.785  13.320  1.00 28.87     0.014 C 
HETATM    3  C3  BCR B 619     -47.729 148.215  14.726  1.00 24.82     0.005 C 
HETATM    4  C4  BCR B 619     -46.250 148.090  15.146  1.00 26.55     0.034 C 
HETATM    5  C5  BCR B 619     -45.364 147.505  14.047  1.00 25.55    -0.077 C 
HETATM    6  C6  BCR B 619     -45.753 147.430  12.752  1.00 25.71    -0.048 C 
HETATM    7  C7  BCR B 619     -44.878 146.784  11.717  1.00 26.15     0.009 C 
HETATM    8  C8  BCR B 619     -44.389 145.531  11.902  1.00 24.62     0.007 C 
HETATM    9  C9  BCR B 619     -43.563 144.785  10.920  1.00 23.75    -0.062 C 
HETATM   10  C10 BCR B 619     -43.098 143.586  11.313  1.00 23.51     0.007 C 
HETATM   11  C11 BCR B 619     -42.285 142.696  10.447  1.00 22.91     0.001 C 
HETATM   12  C33 BCR B 619     -44.029 146.987  14.516  1.00 26.88     0.044 C 
HETATM   13  C31 BCR B 619     -46.937 148.897  11.076  1.00 28.47     0.020 C 
HETATM   14  C32 BCR B 619     -47.999 146.762  11.859  1.00 29.15     0.020 C 
HETATM   15  C34 BCR B 619     -43.333 145.353   9.505  1.00 23.47     0.048 C 
HETATM   16  C12 BCR B 619     -42.043 141.417  10.776  1.00 20.45     0.007 C 
HETATM   17  C13 BCR B 619     -41.281 140.466   9.946  1.00 21.99    -0.062 C 
HETATM   18  C14 BCR B 619     -40.955 139.238  10.443  1.00 22.06     0.007 C 
HETATM   19  C15 BCR B 619     -40.191 138.162   9.780  1.00 21.97     0.001 C 
HETATM   20  C16 BCR B 619     -39.718 137.054  10.419  1.00 20.65     0.001 C 
HETATM   21  C17 BCR B 619     -38.936 136.042   9.703  1.00 23.36     0.007 C 
HETATM   22  C18 BCR B 619     -38.472 134.864  10.163  1.00 22.90    -0.062 C 
HETATM   23  C19 BCR B 619     -37.727 133.979   9.223  1.00 24.93     0.007 C 
HETATM   24  C20 BCR B 619     -37.055 132.886   9.638  1.00 23.33     0.001 C 
HETATM   25  C21 BCR B 619     -36.308 132.040   8.716  1.00 25.92     0.007 C 
HETATM   26  C22 BCR B 619     -35.651 130.873   8.989  1.00 29.58    -0.062 C 
HETATM   27  C23 BCR B 619     -35.004 130.183   7.831  1.00 30.44     0.007 C 
HETATM   28  C24 BCR B 619     -34.133 129.141   7.923  1.00 37.61     0.009 C 
HETATM   29  C25 BCR B 619     -33.472 128.384   6.781  1.00 35.86    -0.048 C 
HETATM   30  C26 BCR B 619     -32.500 128.920   6.007  1.00 38.98    -0.077 C 
HETATM   31  C27 BCR B 619     -31.849 128.141   4.891  1.00 37.08     0.034 C 
HETATM   32  C28 BCR B 619     -32.858 127.211   4.233  1.00 38.77     0.005 C 
HETATM   33  C29 BCR B 619     -33.289 126.225   5.306  1.00 41.75     0.014 C 
HETATM   34  C30 BCR B 619     -33.885 126.920   6.556  1.00 42.71    -0.020 C 
HETATM   35  C35 BCR B 619     -40.952 140.891   8.514  1.00 20.47     0.048 C 
HETATM   36  C36 BCR B 619     -38.624 134.403  11.625  1.00 21.73     0.048 C 
HETATM   37  C37 BCR B 619     -35.571 130.239  10.393  1.00 28.12     0.048 C 
HETATM   38  C38 BCR B 619     -32.009 130.338   6.156  1.00 37.79     0.044 C 
HETATM   39  C39 BCR B 619     -33.425 126.124   7.810  1.00 45.59     0.020 C 
HETATM   40  C40 BCR B 619     -35.389 126.827   6.419  1.00 39.52     0.020 C 
ENDROOT
TORSDOF 10
BEGIN_RES PHE A  61
REMARK  2 active torsions:
REMARK  status: ('A' for Active; 'I' for Inactive)
REMARK    1  A    between atoms: CA   and  CB  
REMARK    2  A    between atoms: CB   and  CG  
ROOT
ATOM      1  CA  PHE A  61     -36.237 128.293  12.768  1.00 39.40     0.164 C 
ENDROOT
BRANCH   1   2
ATOM      2  CB  PHE A  61     -36.813 128.951  11.509  1.00 39.41     0.058 C 
BRANCH   2   3
ATOM      3  CG  PHE A  61     -37.035 128.003  10.355  1.00 39.01    -0.020 A 
ATOM      4  CD2 PHE A  61     -38.047 128.226   9.435  1.00 40.32    -0.004 A 
ATOM      5  CE2 PHE A  61     -38.252 127.351   8.375  1.00 40.20    -0.000 A 
ATOM      6  CZ  PHE A  61     -37.446 126.246   8.222  1.00 40.34    -0.000 A 
ATOM      7  CE1 PHE A  61     -36.434 126.011   9.127  1.00 41.51    -0.000 A 
ATOM      8  CD1 PHE A  61     -36.233 126.882  10.190  1.00 39.94    -0.004 A 
ENDBRANCH   2   3
ENDBRANCH   1   2
END_RES PHE A  61
BEGIN_RES VAL A 134
REMARK  1 active torsions:
REMARK  status: ('A' for Active; 'I' for Inactive)
REMARK    3  A    between atoms: CA   and  CB  
ROOT
ATOM      9  CA  VAL A 134     -29.766 132.051   9.815  1.00 40.75     0.159 C 
ENDROOT
BRANCH   9  10
ATOM     10  CB  VAL A 134     -30.864 132.765   9.009  1.00 40.76     0.029 C 
ATOM     11  CG1 VAL A 134     -30.850 132.307   7.558  1.00 41.76     0.002 C 
ATOM     12  CG2 VAL A 134     -32.238 132.559   9.627  1.00 40.56     0.002 C 
ENDBRANCH   9  10
END_RES VAL A 134
BEGIN_RES TYR A 338
REMARK  3 active torsions:
REMARK  status: ('A' for Active; 'I' for Inactive)
REMARK    4  A    between atoms: CA   and  CB  
REMARK    5  A    between atoms: CB   and  CG  
REMARK    6  A    between atoms: CZ   and  OH  
ROOT
ATOM     13  CA  TYR A 338     -41.631 124.950   6.058  1.00 38.23     0.164 C 
ENDROOT
BRANCH  13  14
ATOM     14  CB  TYR A 338     -41.621 126.456   6.339  1.00 39.15     0.058 C 
BRANCH  14  15
ATOM     15  CG  TYR A 338     -40.397 127.204   5.864  1.00 39.03    -0.020 A 
ATOM     16  CD2 TYR A 338     -40.217 128.536   6.194  1.00 40.65    -0.002 A 
ATOM     17  CE2 TYR A 338     -39.115 129.257   5.763  1.00 40.91     0.024 A 
ATOM     18  CZ  TYR A 338     -38.157 128.643   4.978  1.00 42.33     0.089 A 
ATOM     19  CE1 TYR A 338     -38.312 127.310   4.638  1.00 40.63     0.024 A 
ATOM     20  CD1 TYR A 338     -39.429 126.611   5.069  1.00 39.27    -0.002 A 
BRANCH  18  21
ATOM     21  OH  TYR A 338     -37.064 129.343   4.550  1.00 43.36    -0.359 OA
ATOM     22  HH  TYR A 338     -37.114 129.883   3.770  1.00  0.00     0.217 HD
ENDBRANCH  18  21
ENDBRANCH  14  15
ENDBRANCH  13  14
END_RES TYR A 338
ENDMDL
MODEL 4
REMARK VINA RESULT:    -6.581      2.495     16.841
REMARK INTER + INTRA:         -12.625
REMARK INTER:                 -10.073
REMARK INTRA:                  -2.552
REMARK UNBOUND:                -6.044
REMARK  0 active torsions:
REMARK  status: ('A' for Active; 'I' for Inactive)
REMARK       I    between atoms: C6_6  and  C7_7 
REMARK       I    between atoms: C8_8  and  C9_9 
REMARK       I    between atoms: C10_10  and  C11_11 
REMARK       I    between atoms: C12_16  and  C13_17 
REMARK       I    between atoms: C14_18  and  C15_19 
REMARK       I    between atoms: C16_20  and  C17_21 
REMARK       I    between atoms: C18_22  and  C19_23 
REMARK       I    between atoms: C20_24  and  C21_25 
REMARK       I    between atoms: C22_26  and  C23_27 
REMARK       I    between atoms: C24_28  and  C25_29 
ROOT
HETATM    1  C1  BCR B 619     -46.249 149.083  11.249  1.00 28.89    -0.020 C 
HETATM    2  C2  BCR B 619     -47.495 149.800  11.804  1.00 28.87     0.014 C 
HETATM    3  C3  BCR B 619     -48.496 148.828  12.416  1.00 24.82     0.005 C 
HETATM    4  C4  BCR B 619     -47.861 147.974  13.533  1.00 26.55     0.034 C 
HETATM    5  C5  BCR B 619     -46.483 147.432  13.159  1.00 25.55    -0.077 C 
HETATM    6  C6  BCR B 619     -45.756 147.919  12.124  1.00 25.71    -0.048 C 
HETATM    7  C7  BCR B 619     -44.436 147.310  11.749  1.00 26.15     0.009 C 
HETATM    8  C8  BCR B 619     -44.325 145.976  11.523  1.00 24.62     0.007 C 
HETATM    9  C9  BCR B 619     -43.082 145.285  11.096  1.00 23.75    -0.062 C 
HETATM   10  C10 BCR B 619     -43.141 143.945  11.002  1.00 23.51     0.007 C 
HETATM   11  C11 BCR B 619     -42.002 143.102  10.560  1.00 22.91     0.001 C 
HETATM   12  C33 BCR B 619     -45.998 146.286  14.010  1.00 26.88     0.044 C 
HETATM   13  C31 BCR B 619     -45.178 150.176  11.158  1.00 28.47     0.020 C 
HETATM   14  C32 BCR B 619     -46.573 148.559   9.842  1.00 29.15     0.020 C 
HETATM   15  C34 BCR B 619     -41.830 146.101  10.714  1.00 23.47     0.048 C 
HETATM   16  C12 BCR B 619     -42.161 141.806  10.247  1.00 20.45     0.007 C 
HETATM   17  C13 BCR B 619     -41.087 140.921   9.762  1.00 21.99    -0.062 C 
HETATM   18  C14 BCR B 619     -41.316 139.584   9.624  1.00 22.06     0.007 C 
HETATM   19  C15 BCR B 619     -40.372 138.540   9.173  1.00 21.97     0.001 C 
HETATM   20  C16 BCR B 619     -40.608 137.201   9.273  1.00 20.65     0.001 C 
HETATM   21  C17 BCR B 619     -39.610 136.221   8.835  1.00 23.36     0.007 C 
HETATM   22  C18 BCR B 619     -39.719 134.879   8.790  1.00 22.90    -0.062 C 
HETATM   23  C19 BCR B 619     -38.568 134.091   8.264  1.00 24.93     0.007 C 
HETATM   24  C20 BCR B 619     -38.503 132.749   8.370  1.00 23.33     0.001 C 
HETATM   25  C21 BCR B 619     -37.363 131.987   7.876  1.00 25.92     0.007 C 
HETATM   26  C22 BCR B 619     -37.204 130.630   7.850  1.00 29.58    -0.062 C 
HETATM   27  C23 BCR B 619     -35.941 130.115   7.237  1.00 30.44     0.007 C 
HETATM   28  C24 BCR B 619     -35.499 128.830   7.307  1.00 37.61     0.009 C 
HETATM   29  C25 BCR B 619     -34.244 128.248   6.677  1.00 35.86    -0.048 C 
HETATM   30  C26 BCR B 619     -32.997 128.531   7.121  1.00 38.98    -0.077 C 
HETATM   31  C27 BCR B 619     -31.768 127.926   6.489  1.00 37.08     0.034 C 
HETATM   32  C28 BCR B 619     -31.973 127.751   4.991  1.00 38.77     0.005 C 
HETATM   33  C29 BCR B 619     -33.118 126.765   4.832  1.00 41.75     0.014 C 
HETATM   34  C30 BCR B 619     -34.418 127.234   5.533  1.00 42.71    -0.020 C 
HETATM   35  C35 BCR B 619     -39.764 141.578   9.360  1.00 20.47     0.048 C 
HETATM   36  C36 BCR B 619     -40.950 134.109   9.302  1.00 21.73     0.048 C 
HETATM   37  C37 BCR B 619     -38.250 129.632   8.387  1.00 28.12     0.048 C 
HETATM   38  C38 BCR B 619     -32.717 129.495   8.246  1.00 37.79     0.044 C 
HETATM   39  C39 BCR B 619     -35.111 125.983   6.141  1.00 45.59     0.020 C 
HETATM   40  C40 BCR B 619     -35.295 127.827   4.452  1.00 39.52     0.020 C 
ENDROOT
TORSDOF 10
BEGIN_RES PHE A  61
REMARK  2 active torsions:
REMARK  status: ('A' for Active; 'I' for Inactive)
REMARK    1  A    between atoms: CA   and  CB  
REMARK    2  A    between atoms: CB   and  CG  
ROOT
ATOM      1  CA  PHE A  61     -36.237 128.293  12.768  1.00 39.40     0.164 C 
ENDROOT
BRANCH   1   2
ATOM      2  CB  PHE A  61     -36.813 128.951  11.509  1.00 39.41     0.058 C 
BRANCH   2   3
ATOM      3  CG  PHE A  61     -36.238 130.312  11.197  1.00 39.01    -0.020 A 
ATOM      4  CD2 PHE A  61     -36.955 131.467  11.467  1.00 40.32    -0.004 A 
ATOM      5  CE2 PHE A  61     -36.426 132.718  11.176  1.00 40.20    -0.000 A 
ATOM      6  CZ  PHE A  61     -35.173 132.829  10.618  1.00 40.34    -0.000 A 
ATOM      7  CE1 PHE A  61     -34.446 131.691  10.346  1.00 41.51    -0.000 A 
ATOM      8  CD1 PHE A  61     -34.978 130.439  10.630  1.00 39.94    -0.004 A 
ENDBRANCH   2   3
ENDBRANCH   1   2
END_RES PHE A  61
BEGIN_RES VAL A 134
REMARK  1 active torsions:
REMARK  status: ('A' for Active; 'I' for Inactive)
REMARK    3  A    between atoms: CA   and  CB  
ROOT
ATOM      9  CA  VAL A 134     -29.766 132.051   9.815  1.00 40.75     0.159 C 
ENDROOT
BRANCH   9  10
ATOM     10  CB  VAL A 134     -30.864 132.765   9.009  1.00 40.76     0.029 C 
ATOM     11  CG1 VAL A 134     -31.226 131.965   7.766  1.00 41.76     0.002 C 
ATOM     12  CG2 VAL A 134     -32.098 133.034   9.857  1.00 40.56     0.002 C 
ENDBRANCH   9  10
END_RES VAL A 134
BEGIN_RES TYR A 338
REMARK  3 active torsions:
REMARK  status: ('A' for Active; 'I' for Inactive)
REMARK    4  A    between atoms: CA   and  CB  
REMARK    5  A    between atoms: CB   and  CG  
REMARK    6  A    between atoms: CZ   and  OH  
ROOT
ATOM     13  CA  TYR A 338     -41.631 124.950   6.058  1.00 38.23     0.164 C 
ENDROOT
BRANCH  13  14
ATOM     14  CB  TYR A 338     -41.621 126.456   6.339  1.00 39.15     0.058 C 
BRANCH  14  15
ATOM     15  CG  TYR A 338     -40.432 127.217   5.798  1.00 39.03    -0.020 A 
ATOM     16  CD2 TYR A 338     -40.351 128.590   5.950  1.00 40.65    -0.002 A 
ATOM     17  CE2 TYR A 338     -39.283 129.321   5.453  1.00 40.91     0.024 A 
ATOM     18  CZ  TYR A 338     -38.262 128.675   4.782  1.00 42.33     0.089 A 
ATOM     19  CE1 TYR A 338     -38.318 127.302   4.621  1.00 40.63     0.024 A 
ATOM     20  CD1 TYR A 338     -39.401 126.591   5.115  1.00 39.27    -0.002 A 
BRANCH  18  21
ATOM     21  OH  TYR A 338     -37.202 129.386   4.291  1.00 43.36    -0.359 OA
ATOM     22  HH  TYR A 338     -37.318 130.283   4.000  1.00  0.00     0.217 HD
ENDBRANCH  18  21
ENDBRANCH  14  15
ENDBRANCH  13  14
END_RES TYR A 338
ENDMDL
MODEL 5
REMARK VINA RESULT:    -6.409      0.496     16.712
REMARK INTER + INTRA:         -12.454
REMARK INTER:                  -7.388
REMARK INTRA:                  -5.066
REMARK UNBOUND:                -6.044
REMARK  0 active torsions:
REMARK  status: ('A' for Active; 'I' for Inactive)
REMARK       I    between atoms: C6_6  and  C7_7 
REMARK       I    between atoms: C8_8  and  C9_9 
REMARK       I    between atoms: C10_10  and  C11_11 
REMARK       I    between atoms: C12_16  and  C13_17 
REMARK       I    between atoms: C14_18  and  C15_19 
REMARK       I    between atoms: C16_20  and  C17_21 
REMARK       I    between atoms: C18_22  and  C19_23 
REMARK       I    between atoms: C20_24  and  C21_25 
REMARK       I    between atoms: C22_26  and  C23_27 
REMARK       I    between atoms: C24_28  and  C25_29 
ROOT
HETATM    1  C1  BCR B 619     -50.078 150.481   8.069  1.00 28.89    -0.020 C 
HETATM    2  C2  BCR B 619     -51.357 151.162   7.546  1.00 28.87     0.014 C 
HETATM    3  C3  BCR B 619     -52.215 150.218   6.713  1.00 24.82     0.005 C 
HETATM    4  C4  BCR B 619     -52.600 148.946   7.497  1.00 26.55     0.034 C 
HETATM    5  C5  BCR B 619     -51.428 148.344   8.271  1.00 25.55    -0.077 C 
HETATM    6  C6  BCR B 619     -50.285 149.026   8.521  1.00 25.71    -0.048 C 
HETATM    7  C7  BCR B 619     -49.131 148.372   9.225  1.00 26.15     0.009 C 
HETATM    8  C8  BCR B 619     -48.624 147.193   8.783  1.00 24.62     0.007 C 
HETATM    9  C9  BCR B 619     -47.455 146.493   9.372  1.00 23.75    -0.062 C 
HETATM   10  C10 BCR B 619     -47.148 145.291   8.853  1.00 23.51     0.007 C 
HETATM   11  C11 BCR B 619     -45.994 144.473   9.302  1.00 22.91     0.001 C 
HETATM   12  C33 BCR B 619     -51.624 146.916   8.710  1.00 26.88     0.044 C 
HETATM   13  C31 BCR B 619     -49.626 151.350   9.249  1.00 28.47     0.020 C 
HETATM   14  C32 BCR B 619     -49.014 150.521   6.960  1.00 29.15     0.020 C 
HETATM   15  C34 BCR B 619     -46.614 147.173  10.472  1.00 23.47     0.048 C 
HETATM   16  C12 BCR B 619     -45.574 143.403   8.608  1.00 20.45     0.007 C 
HETATM   17  C13 BCR B 619     -44.413 142.570   8.971  1.00 21.99    -0.062 C 
HETATM   18  C14 BCR B 619     -44.166 141.413   8.292  1.00 22.06     0.007 C 
HETATM   19  C15 BCR B 619     -43.074 140.443   8.513  1.00 21.97     0.001 C 
HETATM   20  C16 BCR B 619     -43.022 139.206   7.942  1.00 20.65     0.001 C 
HETATM   21  C17 BCR B 619     -41.922 138.282   8.235  1.00 23.36     0.007 C 
HETATM   22  C18 BCR B 619     -41.683 137.070   7.697  1.00 22.90    -0.062 C 
HETATM   23  C19 BCR B 619     -40.465 136.328   8.133  1.00 24.93     0.007 C 
HETATM   24  C20 BCR B 619     -40.251 135.038   7.809  1.00 23.33     0.001 C 
HETATM   25  C21 BCR B 619     -39.071 134.312   8.261  1.00 25.92     0.007 C 
HETATM   26  C22 BCR B 619     -38.696 133.036   7.946  1.00 29.58    -0.062 C 
HETATM   27  C23 BCR B 619     -37.400 132.558   8.518  1.00 30.44     0.007 C 
HETATM   28  C24 BCR B 619     -36.959 131.271   8.504  1.00 37.61     0.009 C 
HETATM   29  C25 BCR B 619     -35.640 130.738   9.041  1.00 35.86    -0.048 C 
HETATM   30  C26 BCR B 619     -35.366 130.648  10.364  1.00 38.98    -0.077 C 
HETATM   31  C27 BCR B 619     -34.055 130.098  10.870  1.00 37.08     0.034 C 
HETATM   32  C28 BCR B 619     -32.921 130.474   9.927  1.00 38.77     0.005 C 
HETATM   33  C29 BCR B 619     -33.232 129.800   8.601  1.00 41.75     0.014 C 
HETATM   34  C30 BCR B 619     -34.611 130.212   8.026  1.00 42.71    -0.020 C 
HETATM   35  C35 BCR B 619     -43.485 143.098  10.067  1.00 20.47     0.048 C 
HETATM   36  C36 BCR B 619     -42.627 136.384   6.692  1.00 21.73     0.048 C 
HETATM   37  C37 BCR B 619     -39.513 132.100   7.032  1.00 28.12     0.048 C 
HETATM   38  C38 BCR B 619     -36.311 131.117  11.440  1.00 37.79     0.044 C 
HETATM   39  C39 BCR B 619     -35.241 128.960   7.353  1.00 45.59     0.020 C 
HETATM   40  C40 BCR B 619     -34.338 131.269   6.978  1.00 39.52     0.020 C 
ENDROOT
TORSDOF 10
BEGIN_RES PHE A  61
REMARK  2 active torsions:
REMARK  status: ('A' for Active; 'I' for Inactive)
REMARK    1  A    between atoms: CA   and  CB  
REMARK    2  A    between atoms: CB   and  CG  
ROOT
ATOM      1  CA  PHE A  61     -36.237 128.293  12.768  1.00 39.40     0.164 C 
ENDROOT
BRANCH   1   2
ATOM      2  CB  PHE A  61     -36.813 128.951  11.509  1.00 39.41     0.058 C 
BRANCH   2   3
ATOM      3  CG  PHE A  61     -36.910 128.033  10.314  1.00 39.01    -0.020 A 
ATOM      4  CD2 PHE A  61     -35.912 127.111  10.042  1.00 40.32    -0.004 A 
ATOM      5  CE2 PHE A  61     -36.000 126.269   8.940  1.00 40.20    -0.000 A 
ATOM      6  CZ  PHE A  61     -37.089 126.338   8.101  1.00 40.34    -0.000 A 
ATOM      7  CE1 PHE A  61     -38.091 127.247   8.359  1.00 41.51    -0.000 A 
ATOM      8  CD1 PHE A  61     -37.999 128.093   9.456  1.00 39.94    -0.004 A 
ENDBRANCH   2   3
ENDBRANCH   1   2
END_RES PHE A  61
BEGIN_RES VAL A 134
REMARK  1 active torsions:
REMARK  status: ('A' for Active; 'I' for Inactive)
REMARK    3  A    between atoms: CA   and  CB  
ROOT
ATOM      9  CA  VAL A 134     -29.766 132.051   9.815  1.00 40.75     0.159 C 
ENDROOT
BRANCH   9  10
ATOM     10  CB  VAL A 134     -30.864 132.765   9.009  1.00 40.76     0.029 C 
ATOM     11  CG1 VAL A 134     -31.152 132.019   7.714  1.00 41.76     0.002 C 
ATOM     12  CG2 VAL A 134     -32.135 132.941   9.826  1.00 40.56     0.002 C 
ENDBRANCH   9  10
END_RES VAL A 134
BEGIN_RES TYR A 338
REMARK  3 active torsions:
REMARK  status: ('A' for Active; 'I' for Inactive)
REMARK    4  A    between atoms: CA   and  CB  
REMARK    5  A    between atoms: CB   and  CG  
REMARK    6  A    between atoms: CZ   and  OH  
ROOT
ATOM     13  CA  TYR A 338     -41.631 124.950   6.058  1.00 38.23     0.164 C 
ENDROOT
BRANCH  13  14
ATOM     14  CB  TYR A 338     -41.621 126.456   6.339  1.00 39.15     0.058 C 
BRANCH  14  15
ATOM     15  CG  TYR A 338     -40.396 127.204   5.864  1.00 39.03    -0.020 A 
ATOM     16  CD2 TYR A 338     -39.409 126.549   5.149  1.00 40.65    -0.002 A 
ATOM     17  CE2 TYR A 338     -38.265 127.199   4.712  1.00 40.91     0.024 A 
ATOM     18  CZ  TYR A 338     -38.090 128.542   4.991  1.00 42.33     0.089 A 
ATOM     19  CE1 TYR A 338     -39.066 129.220   5.700  1.00 40.63     0.024 A 
ATOM     20  CD1 TYR A 338     -40.196 128.548   6.140  1.00 39.27    -0.002 A 
BRANCH  18  21
ATOM     21  OH  TYR A 338     -36.969 129.195   4.561  1.00 43.36    -0.359 OA
ATOM     22  HH  TYR A 338     -36.313 128.736   4.049  1.00  0.00     0.217 HD
ENDBRANCH  18  21
ENDBRANCH  14  15
ENDBRANCH  13  14
END_RES TYR A 338
ENDMDL
