MODEL 1
REMARK VINA RESULT:   -10.942      0.000      0.000
REMARK INTER + INTRA:         -11.223
REMARK INTER:                 -10.942
REMARK INTRA:                  -0.281
REMARK UNBOUND:                -0.281
REMARK  0 active torsions:
REMARK  status: ('A' for Active; 'I' for Inactive)
REMARK       I    between atoms: C6_6  and  C7_7 
REMARK       I    between atoms: C8_8  and  C9_9 
REMARK       I    between atoms: C10_10  and  C11_11 
REMARK       I    between atoms: C12_16  and  C13_17 
REMARK       I    between atoms: C14_18  and  C15_19 
REMARK       I    between atoms: C16_20  and  C17_21 
REMARK       I    between atoms: C18_22  and  C19_23 
REMARK       I    between atoms: C20_24  and  C21_25 
REMARK       I    between atoms: C22_26  and  C23_27 
REMARK       I    between atoms: C24_28  and  C25_29 
ROOT
HETATM    1  C1  BCR F 101     -49.848 146.351   9.462  1.00 41.36    -0.020 C 
HETATM    2  C2  BCR F 101     -51.190 146.568  10.140  1.00 46.22     0.014 C 
HETATM    3  C3  BCR F 101     -52.173 145.487   9.816  1.00 40.40     0.005 C 
HETATM    4  C4  BCR F 101     -51.618 144.149  10.211  1.00 37.04     0.034 C 
HETATM    5  C5  BCR F 101     -50.293 143.925   9.586  1.00 43.37    -0.077 C 
HETATM    6  C6  BCR F 101     -49.477 144.927   9.256  1.00 36.67    -0.048 C 
HETATM    7  C7  BCR F 101     -48.186 144.711   8.632  1.00 37.51     0.009 C 
HETATM    8  C8  BCR F 101     -47.220 144.085   9.287  1.00 40.99     0.007 C 
HETATM    9  C9  BCR F 101     -45.972 143.737   8.648  1.00 37.99    -0.062 C 
HETATM   10  C10 BCR F 101     -45.199 142.819   9.242  1.00 32.67     0.007 C 
HETATM   11  C11 BCR F 101     -43.911 142.354   8.766  1.00 30.31     0.001 C 
HETATM   12  C33 BCR F 101     -49.961 142.484   9.336  1.00 36.33     0.044 C 
HETATM   13  C31 BCR F 101     -48.814 147.049  10.300  1.00 51.06     0.020 C 
HETATM   14  C32 BCR F 101     -49.875 147.093   8.139  1.00 43.35     0.020 C 
HETATM   15  C34 BCR F 101     -45.774 144.234   7.269  1.00 39.55     0.048 C 
HETATM   16  C12 BCR F 101     -43.298 141.357   9.431  1.00 29.21     0.007 C 
HETATM   17  C13 BCR F 101     -42.079 140.734   8.970  1.00 31.53    -0.062 C 
HETATM   18  C14 BCR F 101     -41.739 139.543   9.478  1.00 36.47     0.007 C 
HETATM   19  C15 BCR F 101     -40.481 138.861   9.253  1.00 33.10     0.001 C 
HETATM   20  C16 BCR F 101     -40.182 137.761   9.982  1.00 33.82     0.001 C 
HETATM   21  C17 BCR F 101     -39.116 136.879   9.539  1.00 36.91     0.007 C 
HETATM   22  C18 BCR F 101     -38.745 135.687  10.045  1.00 32.34    -0.062 C 
HETATM   23  C19 BCR F 101     -37.685 134.964   9.369  1.00 30.12     0.007 C 
HETATM   24  C20 BCR F 101     -37.257 133.759   9.764  1.00 37.50     0.001 C 
HETATM   25  C21 BCR F 101     -36.457 132.930   8.883  1.00 38.83     0.007 C 
HETATM   26  C22 BCR F 101     -35.763 131.833   9.250  1.00 38.49    -0.062 C 
HETATM   27  C23 BCR F 101     -34.823 131.245   8.323  1.00 39.36     0.007 C 
HETATM   28  C24 BCR F 101     -33.933 130.322   8.711  1.00 56.86     0.009 C 
HETATM   29  C25 BCR F 101     -33.212 129.424   7.813  1.00 57.44    -0.048 C 
HETATM   30  C26 BCR F 101     -33.460 128.119   7.811  1.00 61.92    -0.077 C 
HETATM   31  C27 BCR F 101     -32.799 127.154   6.930  1.00 63.69     0.034 C 
HETATM   32  C28 BCR F 101     -32.440 127.860   5.654  1.00 63.72     0.005 C 
HETATM   33  C29 BCR F 101     -31.520 128.989   6.009  1.00 59.25     0.014 C 
HETATM   34  C30 BCR F 101     -32.163 130.014   6.921  1.00 65.60    -0.020 C 
HETATM   35  C35 BCR F 101     -41.495 141.196   7.689  1.00 33.23     0.048 C 
HETATM   36  C36 BCR F 101     -39.469 134.977  11.112  1.00 21.57     0.048 C 
HETATM   37  C37 BCR F 101     -36.098 131.044  10.442  1.00 27.86     0.048 C 
HETATM   38  C38 BCR F 101     -34.464 127.482   8.685  1.00 68.49     0.044 C 
HETATM   39  C39 BCR F 101     -32.713 131.167   6.101  1.00 75.29     0.020 C 
HETATM   40  C40 BCR F 101     -31.009 130.573   7.749  1.00 67.84     0.020 C 
ENDROOT
TORSDOF 10
BEGIN_RES PHE A  61
REMARK  2 active torsions:
REMARK  status: ('A' for Active; 'I' for Inactive)
REMARK    1  A    between atoms: CA   and  CB  
REMARK    2  A    between atoms: CB   and  CG  
ROOT
ATOM      1  CA  PHE A  61     -36.237 128.293  12.768  1.00 39.40     0.164 C 
ENDROOT
BRANCH   1   2
ATOM      2  CB  PHE A  61     -36.813 128.951  11.509  1.00 39.41     0.058 C 
BRANCH   2   3
ATOM      3  CG  PHE A  61     -37.040 128.002  10.357  1.00 39.01    -0.020 A 
ATOM      4  CD2 PHE A  61     -36.332 126.814  10.263  1.00 40.32    -0.004 A 
ATOM      5  CE2 PHE A  61     -36.540 125.943   9.201  1.00 40.20    -0.000 A 
ATOM      6  CZ  PHE A  61     -37.460 126.247   8.224  1.00 40.34    -0.000 A 
ATOM      7  CE1 PHE A  61     -38.174 127.422   8.304  1.00 41.51    -0.000 A 
ATOM      8  CD1 PHE A  61     -37.961 128.297   9.362  1.00 39.94    -0.004 A 
ENDBRANCH   2   3
ENDBRANCH   1   2
END_RES PHE A  61
BEGIN_RES VAL A 134
REMARK  1 active torsions:
REMARK  status: ('A' for Active; 'I' for Inactive)
REMARK    3  A    between atoms: CA   and  CB  
ROOT
ATOM      9  CA  VAL A 134     -29.766 132.051   9.815  1.00 40.75     0.159 C 
ENDROOT
BRANCH   9  10
ATOM     10  CB  VAL A 134     -30.864 132.765   9.009  1.00 40.76     0.029 C 
ATOM     11  CG1 VAL A 134     -32.100 132.992   9.867  1.00 41.76     0.002 C 
ATOM     12  CG2 VAL A 134     -30.366 134.076   8.421  1.00 40.56     0.002 C 
ENDBRANCH   9  10
END_RES VAL A 134
BEGIN_RES TYR A 338
REMARK  3 active torsions:
REMARK  status: ('A' for Active; 'I' for Inactive)
REMARK    4  A    between atoms: CA   and  CB  
REMARK    5  A    between atoms: CB   and  CG  
REMARK    6  A    between atoms: CZ   and  OH  
ROOT
ATOM     13  CA  TYR A 338     -41.631 124.950   6.058  1.00 38.23     0.164 C 
ENDROOT
BRANCH  13  14
ATOM     14  CB  TYR A 338     -41.621 126.456   6.339  1.00 39.15     0.058 C 
BRANCH  14  15
ATOM     15  CG  TYR A 338     -40.391 127.202   5.875  1.00 39.03    -0.020 A 
ATOM     16  CD2 TYR A 338     -40.232 128.545   6.172  1.00 40.65    -0.002 A 
ATOM     17  CE2 TYR A 338     -39.125 129.263   5.750  1.00 40.91     0.024 A 
ATOM     18  CZ  TYR A 338     -38.142 128.636   5.007  1.00 42.33     0.089 A 
ATOM     19  CE1 TYR A 338     -38.276 127.294   4.701  1.00 40.63     0.024 A 
ATOM     20  CD1 TYR A 338     -39.397 126.596   5.122  1.00 39.27    -0.002 A 
BRANCH  18  21
ATOM     21  OH  TYR A 338     -37.043 129.334   4.589  1.00 43.36    -0.359 OA
ATOM     22  HH  TYR A 338     -36.560 129.054   3.820  1.00  0.00     0.217 HD
ENDBRANCH  18  21
ENDBRANCH  14  15
ENDBRANCH  13  14
END_RES TYR A 338
ENDMDL
MODEL 2
REMARK VINA RESULT:   -10.361      1.166     16.105
REMARK INTER + INTRA:         -10.642
REMARK INTER:                  -5.936
REMARK INTRA:                  -4.706
REMARK UNBOUND:                -0.281
REMARK  0 active torsions:
REMARK  status: ('A' for Active; 'I' for Inactive)
REMARK       I    between atoms: C6_6  and  C7_7 
REMARK       I    between atoms: C8_8  and  C9_9 
REMARK       I    between atoms: C10_10  and  C11_11 
REMARK       I    between atoms: C12_16  and  C13_17 
REMARK       I    between atoms: C14_18  and  C15_19 
REMARK       I    between atoms: C16_20  and  C17_21 
REMARK       I    between atoms: C18_22  and  C19_23 
REMARK       I    between atoms: C20_24  and  C21_25 
REMARK       I    between atoms: C22_26  and  C23_27 
REMARK       I    between atoms: C24_28  and  C25_29 
ROOT
HETATM    1  C1  BCR F 101     -33.293 129.236   8.635  1.00 41.36    -0.020 C 
HETATM    2  C2  BCR F 101     -32.521 128.414   7.617  1.00 46.22     0.014 C 
HETATM    3  C3  BCR F 101     -33.424 127.689   6.668  1.00 40.40     0.005 C 
HETATM    4  C4  BCR F 101     -34.315 128.666   5.957  1.00 37.04     0.034 C 
HETATM    5  C5  BCR F 101     -35.059 129.503   6.929  1.00 43.37    -0.077 C 
HETATM    6  C6  BCR F 101     -34.588 129.777   8.147  1.00 36.67    -0.048 C 
HETATM    7  C7  BCR F 101     -35.319 130.583   9.104  1.00 37.51     0.009 C 
HETATM    8  C8  BCR F 101     -35.554 131.864   8.863  1.00 40.99     0.007 C 
HETATM    9  C9  BCR F 101     -36.392 132.659   9.731  1.00 37.99    -0.062 C 
HETATM   10  C10 BCR F 101     -36.864 133.818   9.255  1.00 32.67     0.007 C 
HETATM   11  C11 BCR F 101     -37.702 134.756   9.977  1.00 30.31     0.001 C 
HETATM   12  C33 BCR F 101     -36.388 129.993   6.437  1.00 36.33     0.044 C 
HETATM   13  C31 BCR F 101     -32.389 130.352   9.075  1.00 51.06     0.020 C 
HETATM   14  C32 BCR F 101     -33.505 128.369   9.863  1.00 43.35     0.020 C 
HETATM   15  C34 BCR F 101     -36.861 132.009  10.973  1.00 39.55     0.048 C 
HETATM   16  C12 BCR F 101     -38.171 135.836   9.326  1.00 29.21     0.007 C 
HETATM   17  C13 BCR F 101     -39.113 136.763   9.911  1.00 31.53    -0.062 C 
HETATM   18  C14 BCR F 101     -39.790 137.583   9.099  1.00 36.47     0.007 C 
HETATM   19  C15 BCR F 101     -40.641 138.674   9.525  1.00 33.10     0.001 C 
HETATM   20  C16 BCR F 101     -41.108 139.551   8.607  1.00 33.82     0.001 C 
HETATM   21  C17 BCR F 101     -42.221 140.420   8.950  1.00 36.91     0.007 C 
HETATM   22  C18 BCR F 101     -42.904 141.266   8.155  1.00 32.34    -0.062 C 
HETATM   23  C19 BCR F 101     -44.032 141.975   8.730  1.00 30.12     0.007 C 
HETATM   24  C20 BCR F 101     -44.801 142.815   8.027  1.00 37.50     0.001 C 
HETATM   25  C21 BCR F 101     -46.097 143.229   8.527  1.00 38.83     0.007 C 
HETATM   26  C22 BCR F 101     -46.836 144.250   8.046  1.00 38.49    -0.062 C 
HETATM   27  C23 BCR F 101     -47.992 144.700   8.789  1.00 39.36     0.007 C 
HETATM   28  C24 BCR F 101     -48.610 145.854   8.501  1.00 56.86     0.009 C 
HETATM   29  C25 BCR F 101     -49.959 146.210   8.929  1.00 57.44    -0.048 C 
HETATM   30  C26 BCR F 101     -50.950 146.312   8.049  1.00 61.92    -0.077 C 
HETATM   31  C27 BCR F 101     -52.333 146.644   8.397  1.00 63.69     0.034 C 
HETATM   32  C28 BCR F 101     -52.600 146.129   9.783  1.00 63.72     0.005 C 
HETATM   33  C29 BCR F 101     -51.631 146.805  10.707  1.00 59.25     0.014 C 
HETATM   34  C30 BCR F 101     -50.185 146.491  10.384  1.00 65.60    -0.020 C 
HETATM   35  C35 BCR F 101     -39.606 136.490  11.282  1.00 33.23     0.048 C 
HETATM   36  C36 BCR F 101     -42.715 141.373   6.699  1.00 21.57     0.048 C 
HETATM   37  C37 BCR F 101     -46.689 144.761   6.677  1.00 27.86     0.048 C 
HETATM   38  C38 BCR F 101     -50.779 146.071   6.603  1.00 68.49     0.044 C 
HETATM   39  C39 BCR F 101     -49.695 145.347  11.253  1.00 75.29     0.020 C 
HETATM   40  C40 BCR F 101     -49.412 147.734  10.814  1.00 67.84     0.020 C 
ENDROOT
TORSDOF 10
BEGIN_RES PHE A  61
REMARK  2 active torsions:
REMARK  status: ('A' for Active; 'I' for Inactive)
REMARK    1  A    between atoms: CA   and  CB  
REMARK    2  A    between atoms: CB   and  CG  
ROOT
ATOM      1  CA  PHE A  61     -36.237 128.293  12.768  1.00 39.40     0.164 C 
ENDROOT
BRANCH   1   2
ATOM      2  CB  PHE A  61     -36.813 128.951  11.509  1.00 39.41     0.058 C 
BRANCH   2   3
ATOM      3  CG  PHE A  61     -36.853 128.051  10.297  1.00 39.01    -0.020 A 
ATOM      4  CD2 PHE A  61     -35.905 127.056  10.118  1.00 40.32    -0.004 A 
ATOM      5  CE2 PHE A  61     -35.941 126.231   9.001  1.00 40.20    -0.000 A 
ATOM      6  CZ  PHE A  61     -36.927 126.388   8.054  1.00 40.34    -0.000 A 
ATOM      7  CE1 PHE A  61     -37.878 127.371   8.218  1.00 41.51    -0.000 A 
ATOM      8  CD1 PHE A  61     -37.838 128.201   9.331  1.00 39.94    -0.004 A 
ENDBRANCH   2   3
ENDBRANCH   1   2
END_RES PHE A  61
BEGIN_RES VAL A 134
REMARK  1 active torsions:
REMARK  status: ('A' for Active; 'I' for Inactive)
REMARK    3  A    between atoms: CA   and  CB  
ROOT
ATOM      9  CA  VAL A 134     -29.766 132.051   9.815  1.00 40.75     0.159 C 
ENDROOT
BRANCH   9  10
ATOM     10  CB  VAL A 134     -30.864 132.765   9.009  1.00 40.76     0.029 C 
ATOM     11  CG1 VAL A 134     -31.109 132.054   7.686  1.00 41.76     0.002 C 
ATOM     12  CG2 VAL A 134     -32.155 132.887   9.804  1.00 40.56     0.002 C 
ENDBRANCH   9  10
END_RES VAL A 134
BEGIN_RES TYR A 338
REMARK  3 active torsions:
REMARK  status: ('A' for Active; 'I' for Inactive)
REMARK    4  A    between atoms: CA   and  CB  
REMARK    5  A    between atoms: CB   and  CG  
REMARK    6  A    between atoms: CZ   and  OH  
ROOT
ATOM     13  CA  TYR A 338     -41.631 124.950   6.058  1.00 38.23     0.164 C 
ENDROOT
BRANCH  13  14
ATOM     14  CB  TYR A 338     -41.621 126.456   6.339  1.00 39.15     0.058 C 
BRANCH  14  15
ATOM     15  CG  TYR A 338     -40.444 127.220   5.778  1.00 39.03    -0.020 A 
ATOM     16  CD2 TYR A 338     -39.477 126.569   5.031  1.00 40.65    -0.002 A 
ATOM     17  CE2 TYR A 338     -38.377 127.235   4.514  1.00 40.91     0.024 A 
ATOM     18  CZ  TYR A 338     -38.225 128.590   4.743  1.00 42.33     0.089 A 
ATOM     19  CE1 TYR A 338     -39.181 129.264   5.482  1.00 40.63     0.024 A 
ATOM     20  CD1 TYR A 338     -40.267 128.577   6.001  1.00 39.27    -0.002 A 
BRANCH  18  21
ATOM     21  OH  TYR A 338     -37.147 129.258   4.234  1.00 43.36    -0.359 OA
ATOM     22  HH  TYR A 338     -37.270 129.977   3.626  1.00  0.00     0.217 HD
ENDBRANCH  18  21
ENDBRANCH  14  15
ENDBRANCH  13  14
END_RES TYR A 338
ENDMDL
MODEL 3
REMARK VINA RESULT:   -10.346      2.257     16.182
REMARK INTER + INTRA:         -10.627
REMARK INTER:                  -9.443
REMARK INTRA:                  -1.184
REMARK UNBOUND:                -0.281
REMARK  0 active torsions:
REMARK  status: ('A' for Active; 'I' for Inactive)
REMARK       I    between atoms: C6_6  and  C7_7 
REMARK       I    between atoms: C8_8  and  C9_9 
REMARK       I    between atoms: C10_10  and  C11_11 
REMARK       I    between atoms: C12_16  and  C13_17 
REMARK       I    between atoms: C14_18  and  C15_19 
REMARK       I    between atoms: C16_20  and  C17_21 
REMARK       I    between atoms: C18_22  and  C19_23 
REMARK       I    between atoms: C20_24  and  C21_25 
REMARK       I    between atoms: C22_26  and  C23_27 
REMARK       I    between atoms: C24_28  and  C25_29 
ROOT
HETATM    1  C1  BCR F 101     -34.812 128.106   7.100  1.00 41.36    -0.020 C 
HETATM    2  C2  BCR F 101     -34.810 126.606   6.866  1.00 46.22     0.014 C 
HETATM    3  C3  BCR F 101     -35.396 125.850   8.018  1.00 40.40     0.005 C 
HETATM    4  C4  BCR F 101     -36.798 126.318   8.282  1.00 37.04     0.034 C 
HETATM    5  C5  BCR F 101     -36.832 127.787   8.484  1.00 43.37    -0.077 C 
HETATM    6  C6  BCR F 101     -35.936 128.607   7.934  1.00 36.67    -0.048 C 
HETATM    7  C7  BCR F 101     -35.958 130.041   8.141  1.00 37.51     0.009 C 
HETATM    8  C8  BCR F 101     -36.965 130.770   7.684  1.00 40.99     0.007 C 
HETATM    9  C9  BCR F 101     -37.084 132.177   7.989  1.00 37.99    -0.062 C 
HETATM   10  C10 BCR F 101     -38.274 132.760   7.799  1.00 32.67     0.007 C 
HETATM   11  C11 BCR F 101     -38.583 134.158   8.030  1.00 30.31     0.001 C 
HETATM   12  C33 BCR F 101     -37.940 128.265   9.374  1.00 36.33     0.044 C 
HETATM   13  C31 BCR F 101     -34.828 128.762   5.748  1.00 51.06     0.020 C 
HETATM   14  C32 BCR F 101     -33.478 128.478   7.722  1.00 43.35     0.020 C 
HETATM   15  C34 BCR F 101     -35.955 132.792   8.720  1.00 39.55     0.048 C 
HETATM   16  C12 BCR F 101     -39.855 134.572   7.880  1.00 29.21     0.007 C 
HETATM   17  C13 BCR F 101     -40.294 135.909   8.207  1.00 31.53    -0.062 C 
HETATM   18  C14 BCR F 101     -41.604 136.129   8.369  1.00 36.47     0.007 C 
HETATM   19  C15 BCR F 101     -42.225 137.427   8.535  1.00 33.10     0.001 C 
HETATM   20  C16 BCR F 101     -43.573 137.530   8.488  1.00 33.82     0.001 C 
HETATM   21  C17 BCR F 101     -44.215 138.732   8.993  1.00 36.91     0.007 C 
HETATM   22  C18 BCR F 101     -45.530 138.982   9.147  1.00 32.34    -0.062 C 
HETATM   23  C19 BCR F 101     -45.913 140.246   9.746  1.00 30.12     0.007 C 
HETATM   24  C20 BCR F 101     -47.187 140.588   9.976  1.00 37.50     0.001 C 
HETATM   25  C21 BCR F 101     -47.512 141.681  10.871  1.00 38.83     0.007 C 
HETATM   26  C22 BCR F 101     -48.717 142.275  10.982  1.00 38.49    -0.062 C 
HETATM   27  C23 BCR F 101     -48.837 143.503  11.737  1.00 39.36     0.007 C 
HETATM   28  C24 BCR F 101     -49.937 144.265  11.674  1.00 56.86     0.009 C 
HETATM   29  C25 BCR F 101     -50.299 145.293  12.645  1.00 57.44    -0.048 C 
HETATM   30  C26 BCR F 101     -51.347 145.136  13.446  1.00 61.92    -0.077 C 
HETATM   31  C27 BCR F 101     -51.766 146.107  14.459  1.00 63.69     0.034 C 
HETATM   32  C28 BCR F 101     -50.542 146.827  14.946  1.00 63.72     0.005 C 
HETATM   33  C29 BCR F 101     -49.923 147.511  13.763  1.00 59.25     0.014 C 
HETATM   34  C30 BCR F 101     -49.474 146.544  12.687  1.00 65.60    -0.020 C 
HETATM   35  C35 BCR F 101     -39.300 136.857   8.764  1.00 33.23     0.048 C 
HETATM   36  C36 BCR F 101     -46.594 137.987   8.937  1.00 21.57     0.048 C 
HETATM   37  C37 BCR F 101     -49.969 141.610  10.599  1.00 27.86     0.048 C 
HETATM   38  C38 BCR F 101     -52.208 143.937  13.431  1.00 68.49     0.044 C 
HETATM   39  C39 BCR F 101     -47.998 146.231  12.852  1.00 75.29     0.020 C 
HETATM   40  C40 BCR F 101     -49.617 147.323  11.383  1.00 67.84     0.020 C 
ENDROOT
TORSDOF 10
BEGIN_RES PHE A  61
REMARK  2 active torsions:
REMARK  status: ('A' for Active; 'I' for Inactive)
REMARK    1  A    between atoms: CA   and  CB  
REMARK    2  A    between atoms: CB   and  CG  
ROOT
ATOM      1  CA  PHE A  61     -36.237 128.293  12.768  1.00 39.40     0.164 C 
ENDROOT
BRANCH   1   2
ATOM      2  CB  PHE A  61     -36.813 128.951  11.509  1.00 39.41     0.058 C 
BRANCH   2   3
ATOM      3  CG  PHE A  61     -36.655 130.452  11.461  1.00 39.01    -0.020 A 
ATOM      4  CD2 PHE A  61     -35.399 131.033  11.384  1.00 40.32    -0.004 A 
ATOM      5  CE2 PHE A  61     -35.254 132.414  11.343  1.00 40.20    -0.000 A 
ATOM      6  CZ  PHE A  61     -36.363 133.229  11.376  1.00 40.34    -0.000 A 
ATOM      7  CE1 PHE A  61     -37.618 132.667  11.450  1.00 41.51    -0.000 A 
ATOM      8  CD1 PHE A  61     -37.763 131.286  11.497  1.00 39.94    -0.004 A 
ENDBRANCH   2   3
ENDBRANCH   1   2
END_RES PHE A  61
BEGIN_RES VAL A 134
REMARK  1 active torsions:
REMARK  status: ('A' for Active; 'I' for Inactive)
REMARK    3  A    between atoms: CA   and  CB  
ROOT
ATOM      9  CA  VAL A 134     -29.766 132.051   9.815  1.00 40.75     0.159 C 
ENDROOT
BRANCH   9  10
ATOM     10  CB  VAL A 134     -30.864 132.765   9.009  1.00 40.76     0.029 C 
ATOM     11  CG1 VAL A 134     -31.223 131.967   7.764  1.00 41.76     0.002 C 
ATOM     12  CG2 VAL A 134     -32.100 133.030   9.856  1.00 40.56     0.002 C 
ENDBRANCH   9  10
END_RES VAL A 134
BEGIN_RES TYR A 338
REMARK  3 active torsions:
REMARK  status: ('A' for Active; 'I' for Inactive)
REMARK    4  A    between atoms: CA   and  CB  
REMARK    5  A    between atoms: CB   and  CG  
REMARK    6  A    between atoms: CZ   and  OH  
ROOT
ATOM     13  CA  TYR A 338     -41.631 124.950   6.058  1.00 38.23     0.164 C 
ENDROOT
BRANCH  13  14
ATOM     14  CB  TYR A 338     -41.621 126.456   6.339  1.00 39.15     0.058 C 
BRANCH  14  15
ATOM     15  CG  TYR A 338     -40.394 127.203   5.868  1.00 39.03    -0.020 A 
ATOM     16  CD2 TYR A 338     -40.227 128.542   6.179  1.00 40.65    -0.002 A 
ATOM     17  CE2 TYR A 338     -39.123 129.262   5.751  1.00 40.91     0.024 A 
ATOM     18  CZ  TYR A 338     -38.151 128.640   4.989  1.00 42.33     0.089 A 
ATOM     19  CE1 TYR A 338     -38.293 127.301   4.670  1.00 40.63     0.024 A 
ATOM     20  CD1 TYR A 338     -39.412 126.602   5.097  1.00 39.27    -0.002 A 
BRANCH  18  21
ATOM     21  OH  TYR A 338     -37.056 129.339   4.565  1.00 43.36    -0.359 OA
ATOM     22  HH  TYR A 338     -36.297 128.882   4.222  1.00  0.00     0.217 HD
ENDBRANCH  18  21
ENDBRANCH  14  15
ENDBRANCH  13  14
END_RES TYR A 338
ENDMDL
MODEL 4
REMARK VINA RESULT:   -10.033      1.211      1.603
REMARK INTER + INTRA:         -10.314
REMARK INTER:                  -7.887
REMARK INTRA:                  -2.427
REMARK UNBOUND:                -0.281
REMARK  0 active torsions:
REMARK  status: ('A' for Active; 'I' for Inactive)
REMARK       I    between atoms: C6_6  and  C7_7 
REMARK       I    between atoms: C8_8  and  C9_9 
REMARK       I    between atoms: C10_10  and  C11_11 
REMARK       I    between atoms: C12_16  and  C13_17 
REMARK       I    between atoms: C14_18  and  C15_19 
REMARK       I    between atoms: C16_20  and  C17_21 
REMARK       I    between atoms: C18_22  and  C19_23 
REMARK       I    between atoms: C20_24  and  C21_25 
REMARK       I    between atoms: C22_26  and  C23_27 
REMARK       I    between atoms: C24_28  and  C25_29 
ROOT
HETATM    1  C1  BCR F 101     -49.086 145.808  11.221  1.00 41.36    -0.020 C 
HETATM    2  C2  BCR F 101     -50.110 146.212  12.267  1.00 46.22     0.014 C 
HETATM    3  C3  BCR F 101     -51.105 145.127  12.537  1.00 40.40     0.005 C 
HETATM    4  C4  BCR F 101     -50.399 143.877  12.978  1.00 37.04     0.034 C 
HETATM    5  C5  BCR F 101     -49.371 143.478  11.987  1.00 43.37    -0.077 C 
HETATM    6  C6  BCR F 101     -48.759 144.359  11.194  1.00 36.67    -0.048 C 
HETATM    7  C7  BCR F 101     -47.763 143.970  10.215  1.00 37.51     0.009 C 
HETATM    8  C8  BCR F 101     -46.607 143.454  10.603  1.00 40.99     0.007 C 
HETATM    9  C9  BCR F 101     -45.651 142.934   9.652  1.00 37.99    -0.062 C 
HETATM   10  C10 BCR F 101     -44.686 142.128  10.113  1.00 32.67     0.007 C 
HETATM   11  C11 BCR F 101     -43.631 141.525   9.321  1.00 30.31     0.001 C 
HETATM   12  C33 BCR F 101     -49.096 142.005  11.937  1.00 36.33     0.044 C 
HETATM   13  C31 BCR F 101     -47.849 146.622  11.481  1.00 51.06     0.020 C 
HETATM   14  C32 BCR F 101     -49.602 146.265   9.869  1.00 43.35     0.020 C 
HETATM   15  C34 BCR F 101     -45.968 143.131   8.222  1.00 39.55     0.048 C 
HETATM   16  C12 BCR F 101     -42.788 140.662   9.917  1.00 29.21     0.007 C 
HETATM   17  C13 BCR F 101     -41.786 139.911   9.196  1.00 31.53    -0.062 C 
HETATM   18  C14 BCR F 101     -41.247 138.837   9.785  1.00 36.47     0.007 C 
HETATM   19  C15 BCR F 101     -40.125 138.075   9.278  1.00 33.10     0.001 C 
HETATM   20  C16 BCR F 101     -39.550 137.136  10.064  1.00 33.82     0.001 C 
HETATM   21  C17 BCR F 101     -38.676 136.141   9.466  1.00 36.91     0.007 C 
HETATM   22  C18 BCR F 101     -38.108 135.065  10.043  1.00 32.34    -0.062 C 
HETATM   23  C19 BCR F 101     -37.327 134.178   9.201  1.00 30.12     0.007 C 
HETATM   24  C20 BCR F 101     -36.745 133.063   9.658  1.00 37.50     0.001 C 
HETATM   25  C21 BCR F 101     -36.276 132.041   8.743  1.00 38.83     0.007 C 
HETATM   26  C22 BCR F 101     -35.458 131.016   9.059  1.00 38.49    -0.062 C 
HETATM   27  C23 BCR F 101     -34.883 130.215   8.003  1.00 39.36     0.007 C 
HETATM   28  C24 BCR F 101     -33.880 129.357   8.234  1.00 56.86     0.009 C 
HETATM   29  C25 BCR F 101     -33.489 128.267   7.344  1.00 57.44    -0.048 C 
HETATM   30  C26 BCR F 101     -33.674 126.999   7.697  1.00 61.92    -0.077 C 
HETATM   31  C27 BCR F 101     -33.330 125.850   6.857  1.00 63.69     0.034 C 
HETATM   32  C28 BCR F 101     -33.469 126.266   5.421  1.00 63.72     0.005 C 
HETATM   33  C29 BCR F 101     -32.524 127.407   5.191  1.00 59.25     0.014 C 
HETATM   34  C30 BCR F 101     -32.842 128.621   6.040  1.00 65.60    -0.020 C 
HETATM   35  C35 BCR F 101     -41.707 140.079   7.726  1.00 33.23     0.048 C 
HETATM   36  C36 BCR F 101     -38.385 134.616  11.417  1.00 21.57     0.048 C 
HETATM   37  C37 BCR F 101     -35.325 130.500  10.428  1.00 27.86     0.048 C 
HETATM   38  C38 BCR F 101     -34.284 126.594   8.978  1.00 68.49     0.044 C 
HETATM   39  C39 BCR F 101     -33.686 129.602   5.248  1.00 75.29     0.020 C 
HETATM   40  C40 BCR F 101     -31.491 129.292   6.278  1.00 67.84     0.020 C 
ENDROOT
TORSDOF 10
BEGIN_RES PHE A  61
REMARK  2 active torsions:
REMARK  status: ('A' for Active; 'I' for Inactive)
REMARK    1  A    between atoms: CA   and  CB  
REMARK    2  A    between atoms: CB   and  CG  
ROOT
ATOM      1  CA  PHE A  61     -36.237 128.293  12.768  1.00 39.40     0.164 C 
ENDROOT
BRANCH   1   2
ATOM      2  CB  PHE A  61     -36.813 128.951  11.509  1.00 39.41     0.058 C 
BRANCH   2   3
ATOM      3  CG  PHE A  61     -37.077 127.995  10.370  1.00 39.01    -0.020 A 
ATOM      4  CD2 PHE A  61     -37.940 128.335   9.341  1.00 40.32    -0.004 A 
ATOM      5  CE2 PHE A  61     -38.184 127.454   8.295  1.00 40.20    -0.000 A 
ATOM      6  CZ  PHE A  61     -37.566 126.224   8.266  1.00 40.34    -0.000 A 
ATOM      7  CE1 PHE A  61     -36.704 125.872   9.280  1.00 41.51    -0.000 A 
ATOM      8  CD1 PHE A  61     -36.464 126.751  10.329  1.00 39.94    -0.004 A 
ENDBRANCH   2   3
ENDBRANCH   1   2
END_RES PHE A  61
BEGIN_RES VAL A 134
REMARK  1 active torsions:
REMARK  status: ('A' for Active; 'I' for Inactive)
REMARK    3  A    between atoms: CA   and  CB  
ROOT
ATOM      9  CA  VAL A 134     -29.766 132.051   9.815  1.00 40.75     0.159 C 
ENDROOT
BRANCH   9  10
ATOM     10  CB  VAL A 134     -30.864 132.765   9.009  1.00 40.76     0.029 C 
ATOM     11  CG1 VAL A 134     -31.036 132.118   7.643  1.00 41.76     0.002 C 
ATOM     12  CG2 VAL A 134     -32.185 132.794   9.763  1.00 40.56     0.002 C 
ENDBRANCH   9  10
END_RES VAL A 134
BEGIN_RES TYR A 338
REMARK  3 active torsions:
REMARK  status: ('A' for Active; 'I' for Inactive)
REMARK    4  A    between atoms: CA   and  CB  
REMARK    5  A    between atoms: CB   and  CG  
REMARK    6  A    between atoms: CZ   and  OH  
ROOT
ATOM     13  CA  TYR A 338     -41.631 124.950   6.058  1.00 38.23     0.164 C 
ENDROOT
BRANCH  13  14
ATOM     14  CB  TYR A 338     -41.621 126.456   6.339  1.00 39.15     0.058 C 
BRANCH  14  15
ATOM     15  CG  TYR A 338     -40.394 127.203   5.870  1.00 39.03    -0.020 A 
ATOM     16  CD2 TYR A 338     -40.221 128.539   6.190  1.00 40.65    -0.002 A 
ATOM     17  CE2 TYR A 338     -39.116 129.259   5.764  1.00 40.91     0.024 A 
ATOM     18  CZ  TYR A 338     -38.149 128.639   4.994  1.00 42.33     0.089 A 
ATOM     19  CE1 TYR A 338     -38.296 127.303   4.666  1.00 40.63     0.024 A 
ATOM     20  CD1 TYR A 338     -39.415 126.605   5.091  1.00 39.27    -0.002 A 
BRANCH  18  21
ATOM     21  OH  TYR A 338     -37.052 129.338   4.572  1.00 43.36    -0.359 OA
ATOM     22  HH  TYR A 338     -37.129 130.255   4.335  1.00  0.00     0.217 HD
ENDBRANCH  18  21
ENDBRANCH  14  15
ENDBRANCH  13  14
END_RES TYR A 338
ENDMDL
MODEL 5
REMARK VINA RESULT:    -9.997      1.895     16.108
REMARK INTER + INTRA:         -10.278
REMARK INTER:                  -8.514
REMARK INTRA:                  -1.764
REMARK UNBOUND:                -0.281
REMARK  0 active torsions:
REMARK  status: ('A' for Active; 'I' for Inactive)
REMARK       I    between atoms: C6_6  and  C7_7 
REMARK       I    between atoms: C8_8  and  C9_9 
REMARK       I    between atoms: C10_10  and  C11_11 
REMARK       I    between atoms: C12_16  and  C13_17 
REMARK       I    between atoms: C14_18  and  C15_19 
REMARK       I    between atoms: C16_20  and  C17_21 
REMARK       I    between atoms: C18_22  and  C19_23 
REMARK       I    between atoms: C20_24  and  C21_25 
REMARK       I    between atoms: C22_26  and  C23_27 
REMARK       I    between atoms: C24_28  and  C25_29 
ROOT
HETATM    1  C1  BCR F 101     -33.640 129.206   8.040  1.00 41.36    -0.020 C 
HETATM    2  C2  BCR F 101     -32.167 128.842   7.978  1.00 46.22     0.014 C 
HETATM    3  C3  BCR F 101     -31.455 129.539   6.861  1.00 40.40     0.005 C 
HETATM    4  C4  BCR F 101     -31.602 131.027   7.004  1.00 37.04     0.034 C 
HETATM    5  C5  BCR F 101     -33.033 131.406   7.097  1.00 43.37    -0.077 C 
HETATM    6  C6  BCR F 101     -33.963 130.583   7.583  1.00 36.67    -0.048 C 
HETATM    7  C7  BCR F 101     -35.364 130.946   7.662  1.00 37.51     0.009 C 
HETATM    8  C8  BCR F 101     -35.759 131.928   8.458  1.00 40.99     0.007 C 
HETATM    9  C9  BCR F 101     -37.124 132.402   8.459  1.00 37.99    -0.062 C 
HETATM   10  C10 BCR F 101     -37.371 133.596   9.012  1.00 32.67     0.007 C 
HETATM   11  C11 BCR F 101     -38.671 134.230   9.124  1.00 30.31     0.001 C 
HETATM   12  C33 BCR F 101     -33.345 132.778   6.579  1.00 36.33     0.044 C 
HETATM   13  C31 BCR F 101     -34.084 129.007   9.462  1.00 51.06     0.020 C 
HETATM   14  C32 BCR F 101     -34.404 128.180   7.223  1.00 43.35     0.020 C 
HETATM   15  C34 BCR F 101     -38.086 131.646   7.629  1.00 39.55     0.048 C 
HETATM   16  C12 BCR F 101     -38.741 135.476   9.625  1.00 29.21     0.007 C 
HETATM   17  C13 BCR F 101     -39.964 136.245   9.662  1.00 31.53    -0.062 C 
HETATM   18  C14 BCR F 101     -39.881 137.569   9.836  1.00 36.47     0.007 C 
HETATM   19  C15 BCR F 101     -41.001 138.460  10.059  1.00 33.10     0.001 C 
HETATM   20  C16 BCR F 101     -40.768 139.743  10.419  1.00 33.82     0.001 C 
HETATM   21  C17 BCR F 101     -41.836 140.722  10.305  1.00 36.91     0.007 C 
HETATM   22  C18 BCR F 101     -41.779 142.054  10.493  1.00 32.34    -0.062 C 
HETATM   23  C19 BCR F 101     -42.983 142.825  10.244  1.00 30.12     0.007 C 
HETATM   24  C20 BCR F 101     -43.034 144.157  10.368  1.00 37.50     0.001 C 
HETATM   25  C21 BCR F 101     -44.127 144.914   9.789  1.00 38.83     0.007 C 
HETATM   26  C22 BCR F 101     -44.423 146.202  10.060  1.00 38.49    -0.062 C 
HETATM   27  C23 BCR F 101     -45.675 146.756   9.597  1.00 39.36     0.007 C 
HETATM   28  C24 BCR F 101     -46.134 147.933  10.043  1.00 56.86     0.009 C 
HETATM   29  C25 BCR F 101     -47.166 148.731   9.388  1.00 57.44    -0.048 C 
HETATM   30  C26 BCR F 101     -46.870 149.896   8.821  1.00 61.92    -0.077 C 
HETATM   31  C27 BCR F 101     -47.838 150.748   8.127  1.00 63.69     0.034 C 
HETATM   32  C28 BCR F 101     -48.892 149.860   7.530  1.00 63.72     0.005 C 
HETATM   33  C29 BCR F 101     -49.538 149.110   8.656  1.00 59.25     0.014 C 
HETATM   34  C30 BCR F 101     -48.572 148.214   9.404  1.00 65.60    -0.020 C 
HETATM   35  C35 BCR F 101     -41.190 135.639   9.091  1.00 33.23     0.048 C 
HETATM   36  C36 BCR F 101     -40.538 142.806  10.739  1.00 21.57     0.048 C 
HETATM   37  C37 BCR F 101     -43.429 147.153  10.575  1.00 27.86     0.048 C 
HETATM   38  C38 BCR F 101     -45.508 150.465   8.797  1.00 68.49     0.044 C 
HETATM   39  C39 BCR F 101     -48.650 146.799   8.863  1.00 75.29     0.020 C 
HETATM   40  C40 BCR F 101     -49.109 148.172  10.832  1.00 67.84     0.020 C 
ENDROOT
TORSDOF 10
BEGIN_RES PHE A  61
REMARK  2 active torsions:
REMARK  status: ('A' for Active; 'I' for Inactive)
REMARK    1  A    between atoms: CA   and  CB  
REMARK    2  A    between atoms: CB   and  CG  
ROOT
ATOM      1  CA  PHE A  61     -36.237 128.293  12.768  1.00 39.40     0.164 C 
ENDROOT
BRANCH   1   2
ATOM      2  CB  PHE A  61     -36.813 128.951  11.509  1.00 39.41     0.058 C 
BRANCH   2   3
ATOM      3  CG  PHE A  61     -36.895 128.038  10.310  1.00 39.01    -0.020 A 
ATOM      4  CD2 PHE A  61     -36.063 126.935  10.196  1.00 40.32    -0.004 A 
ATOM      5  CE2 PHE A  61     -36.138 126.097   9.090  1.00 40.20    -0.000 A 
ATOM      6  CZ  PHE A  61     -37.047 126.350   8.089  1.00 40.34    -0.000 A 
ATOM      7  CE1 PHE A  61     -37.883 127.440   8.187  1.00 41.51    -0.000 A 
ATOM      8  CD1 PHE A  61     -37.804 128.282   9.289  1.00 39.94    -0.004 A 
ENDBRANCH   2   3
ENDBRANCH   1   2
END_RES PHE A  61
BEGIN_RES VAL A 134
REMARK  1 active torsions:
REMARK  status: ('A' for Active; 'I' for Inactive)
REMARK    3  A    between atoms: CA   and  CB  
ROOT
ATOM      9  CA  VAL A 134     -29.766 132.051   9.815  1.00 40.75     0.159 C 
ENDROOT
BRANCH   9  10
ATOM     10  CB  VAL A 134     -30.864 132.765   9.009  1.00 40.76     0.029 C 
ATOM     11  CG1 VAL A 134     -32.111 132.964   9.858  1.00 41.76     0.002 C 
ATOM     12  CG2 VAL A 134     -30.375 134.092   8.448  1.00 40.56     0.002 C 
ENDBRANCH   9  10
END_RES VAL A 134
BEGIN_RES TYR A 338
REMARK  3 active torsions:
REMARK  status: ('A' for Active; 'I' for Inactive)
REMARK    4  A    between atoms: CA   and  CB  
REMARK    5  A    between atoms: CB   and  CG  
REMARK    6  A    between atoms: CZ   and  OH  
ROOT
ATOM     13  CA  TYR A 338     -41.631 124.950   6.058  1.00 38.23     0.164 C 
ENDROOT
BRANCH  13  14
ATOM     14  CB  TYR A 338     -41.621 126.456   6.339  1.00 39.15     0.058 C 
BRANCH  14  15
ATOM     15  CG  TYR A 338     -40.391 127.202   5.875  1.00 39.03    -0.020 A 
ATOM     16  CD2 TYR A 338     -40.232 128.545   6.173  1.00 40.65    -0.002 A 
ATOM     17  CE2 TYR A 338     -39.124 129.263   5.750  1.00 40.91     0.024 A 
ATOM     18  CZ  TYR A 338     -38.142 128.636   5.008  1.00 42.33     0.089 A 
ATOM     19  CE1 TYR A 338     -38.275 127.293   4.702  1.00 40.63     0.024 A 
ATOM     20  CD1 TYR A 338     -39.397 126.595   5.123  1.00 39.27    -0.002 A 
BRANCH  18  21
ATOM     21  OH  TYR A 338     -37.043 129.334   4.590  1.00 43.36    -0.359 OA
ATOM     22  HH  TYR A 338     -36.597 129.928   5.182  1.00  0.00     0.217 HD
ENDBRANCH  18  21
ENDBRANCH  14  15
ENDBRANCH  13  14
END_RES TYR A 338
ENDMDL
MODEL 6
REMARK VINA RESULT:    -9.566      2.463     16.097
REMARK INTER + INTRA:          -9.847
REMARK INTER:                  -8.170
REMARK INTRA:                  -1.677
REMARK UNBOUND:                -0.281
REMARK  0 active torsions:
REMARK  status: ('A' for Active; 'I' for Inactive)
REMARK       I    between atoms: C6_6  and  C7_7 
REMARK       I    between atoms: C8_8  and  C9_9 
REMARK       I    between atoms: C10_10  and  C11_11 
REMARK       I    between atoms: C12_16  and  C13_17 
REMARK       I    between atoms: C14_18  and  C15_19 
REMARK       I    between atoms: C16_20  and  C17_21 
REMARK       I    between atoms: C18_22  and  C19_23 
REMARK       I    between atoms: C20_24  and  C21_25 
REMARK       I    between atoms: C22_26  and  C23_27 
REMARK       I    between atoms: C24_28  and  C25_29 
ROOT
HETATM    1  C1  BCR F 101     -34.745 128.157   7.625  1.00 41.36    -0.020 C 
HETATM    2  C2  BCR F 101     -33.329 127.609   7.646  1.00 46.22     0.014 C 
HETATM    3  C3  BCR F 101     -32.442 128.286   6.648  1.00 40.40     0.005 C 
HETATM    4  C4  BCR F 101     -32.415 129.765   6.903  1.00 37.04     0.034 C 
HETATM    5  C5  BCR F 101     -33.789 130.321   6.918  1.00 43.37    -0.077 C 
HETATM    6  C6  BCR F 101     -34.853 129.594   7.261  1.00 36.67    -0.048 C 
HETATM    7  C7  BCR F 101     -36.199 130.130   7.263  1.00 37.51     0.009 C 
HETATM    8  C8  BCR F 101     -36.536 131.095   8.106  1.00 40.99     0.007 C 
HETATM    9  C9  BCR F 101     -37.826 131.742   8.043  1.00 37.99    -0.062 C 
HETATM   10  C10 BCR F 101     -37.969 132.915   8.673  1.00 32.67     0.007 C 
HETATM   11  C11 BCR F 101     -39.185 133.703   8.738  1.00 30.31     0.001 C 
HETATM   12  C33 BCR F 101     -33.882 131.756   6.494  1.00 36.33     0.044 C 
HETATM   13  C31 BCR F 101     -35.330 127.914   8.987  1.00 51.06     0.020 C 
HETATM   14  C32 BCR F 101     -35.557 127.302   6.670  1.00 43.35     0.020 C 
HETATM   15  C34 BCR F 101     -38.800 131.182   7.082  1.00 39.55     0.048 C 
HETATM   16  C12 BCR F 101     -39.142 134.909   9.334  1.00 29.21     0.007 C 
HETATM   17  C13 BCR F 101     -40.259 135.826   9.342  1.00 31.53    -0.062 C 
HETATM   18  C14 BCR F 101     -40.026 137.111   9.631  1.00 36.47     0.007 C 
HETATM   19  C15 BCR F 101     -41.042 138.123   9.842  1.00 33.10     0.001 C 
HETATM   20  C16 BCR F 101     -40.683 139.335  10.324  1.00 33.82     0.001 C 
HETATM   21  C17 BCR F 101     -41.606 140.450  10.211  1.00 36.91     0.007 C 
HETATM   22  C18 BCR F 101     -41.401 141.747  10.513  1.00 32.34    -0.062 C 
HETATM   23  C19 BCR F 101     -42.473 142.685  10.238  1.00 30.12     0.007 C 
HETATM   24  C20 BCR F 101     -42.369 143.999  10.468  1.00 37.50     0.001 C 
HETATM   25  C21 BCR F 101     -43.305 144.933   9.873  1.00 38.83     0.007 C 
HETATM   26  C22 BCR F 101     -43.460 146.225  10.227  1.00 38.49    -0.062 C 
HETATM   27  C23 BCR F 101     -44.589 146.971   9.718  1.00 39.36     0.007 C 
HETATM   28  C24 BCR F 101     -44.934 148.162  10.224  1.00 56.86     0.009 C 
HETATM   29  C25 BCR F 101     -45.798 149.134   9.561  1.00 57.44    -0.048 C 
HETATM   30  C26 BCR F 101     -45.312 150.289   9.117  1.00 61.92    -0.077 C 
HETATM   31  C27 BCR F 101     -46.103 151.308   8.425  1.00 63.69     0.034 C 
HETATM   32  C28 BCR F 101     -47.204 150.612   7.677  1.00 63.72     0.005 C 
HETATM   33  C29 BCR F 101     -48.033 149.872   8.685  1.00 59.25     0.014 C 
HETATM   34  C30 BCR F 101     -47.254 148.806   9.427  1.00 65.60    -0.020 C 
HETATM   35  C35 BCR F 101     -41.497 135.429   8.631  1.00 33.23     0.048 C 
HETATM   36  C36 BCR F 101     -40.101 142.310  10.914  1.00 21.57     0.048 C 
HETATM   37  C37 BCR F 101     -42.403 146.998  10.893  1.00 27.86     0.048 C 
HETATM   38  C38 BCR F 101     -43.892 150.674   9.244  1.00 68.49     0.044 C 
HETATM   39  C39 BCR F 101     -47.461 147.456   8.766  1.00 75.29     0.020 C 
HETATM   40  C40 BCR F 101     -47.913 148.731  10.801  1.00 67.84     0.020 C 
ENDROOT
TORSDOF 10
BEGIN_RES PHE A  61
REMARK  2 active torsions:
REMARK  status: ('A' for Active; 'I' for Inactive)
REMARK    1  A    between atoms: CA   and  CB  
REMARK    2  A    between atoms: CB   and  CG  
ROOT
ATOM      1  CA  PHE A  61     -36.237 128.293  12.768  1.00 39.40     0.164 C 
ENDROOT
BRANCH   1   2
ATOM      2  CB  PHE A  61     -36.813 128.951  11.509  1.00 39.41     0.058 C 
BRANCH   2   3
ATOM      3  CG  PHE A  61     -36.424 130.399  11.328  1.00 39.01    -0.020 A 
ATOM      4  CD2 PHE A  61     -35.185 130.744  10.813  1.00 40.32    -0.004 A 
ATOM      5  CE2 PHE A  61     -34.828 132.077  10.650  1.00 40.20    -0.000 A 
ATOM      6  CZ  PHE A  61     -35.706 133.078  10.997  1.00 40.34    -0.000 A 
ATOM      7  CE1 PHE A  61     -36.942 132.752  11.508  1.00 41.51    -0.000 A 
ATOM      8  CD1 PHE A  61     -37.298 131.419  11.677  1.00 39.94    -0.004 A 
ENDBRANCH   2   3
ENDBRANCH   1   2
END_RES PHE A  61
BEGIN_RES VAL A 134
REMARK  1 active torsions:
REMARK  status: ('A' for Active; 'I' for Inactive)
REMARK    3  A    between atoms: CA   and  CB  
ROOT
ATOM      9  CA  VAL A 134     -29.766 132.051   9.815  1.00 40.75     0.159 C 
ENDROOT
BRANCH   9  10
ATOM     10  CB  VAL A 134     -30.864 132.765   9.009  1.00 40.76     0.029 C 
ATOM     11  CG1 VAL A 134     -30.821 132.341   7.548  1.00 41.76     0.002 C 
ATOM     12  CG2 VAL A 134     -32.243 132.522   9.602  1.00 40.56     0.002 C 
ENDBRANCH   9  10
END_RES VAL A 134
BEGIN_RES TYR A 338
REMARK  3 active torsions:
REMARK  status: ('A' for Active; 'I' for Inactive)
REMARK    4  A    between atoms: CA   and  CB  
REMARK    5  A    between atoms: CB   and  CG  
REMARK    6  A    between atoms: CZ   and  OH  
ROOT
ATOM     13  CA  TYR A 338     -41.631 124.950   6.058  1.00 38.23     0.164 C 
ENDROOT
BRANCH  13  14
ATOM     14  CB  TYR A 338     -41.621 126.456   6.339  1.00 39.15     0.058 C 
BRANCH  14  15
ATOM     15  CG  TYR A 338     -40.425 127.214   5.811  1.00 39.03    -0.020 A 
ATOM     16  CD2 TYR A 338     -39.450 126.561   5.077  1.00 40.65    -0.002 A 
ATOM     17  CE2 TYR A 338     -38.332 127.221   4.590  1.00 40.91     0.024 A 
ATOM     18  CZ  TYR A 338     -38.171 128.571   4.838  1.00 42.33     0.089 A 
ATOM     19  CE1 TYR A 338     -39.134 129.247   5.565  1.00 40.63     0.024 A 
ATOM     20  CD1 TYR A 338     -40.238 128.566   6.054  1.00 39.27    -0.002 A 
BRANCH  18  21
ATOM     21  OH  TYR A 338     -37.075 129.234   4.360  1.00 43.36    -0.359 OA
ATOM     22  HH  TYR A 338     -36.469 128.798   3.771  1.00  0.00     0.217 HD
ENDBRANCH  18  21
ENDBRANCH  14  15
ENDBRANCH  13  14
END_RES TYR A 338
ENDMDL
MODEL 7
REMARK VINA RESULT:    -9.144      2.325      4.641
REMARK INTER + INTRA:          -9.425
REMARK INTER:                  -2.124
REMARK INTRA:                  -7.301
REMARK UNBOUND:                -0.281
REMARK  0 active torsions:
REMARK  status: ('A' for Active; 'I' for Inactive)
REMARK       I    between atoms: C6_6  and  C7_7 
REMARK       I    between atoms: C8_8  and  C9_9 
REMARK       I    between atoms: C10_10  and  C11_11 
REMARK       I    between atoms: C12_16  and  C13_17 
REMARK       I    between atoms: C14_18  and  C15_19 
REMARK       I    between atoms: C16_20  and  C17_21 
REMARK       I    between atoms: C18_22  and  C19_23 
REMARK       I    between atoms: C20_24  and  C21_25 
REMARK       I    between atoms: C22_26  and  C23_27 
REMARK       I    between atoms: C24_28  and  C25_29 
ROOT
HETATM    1  C1  BCR F 101     -51.690 150.249   7.426  1.00 41.36    -0.020 C 
HETATM    2  C2  BCR F 101     -52.600 150.897   6.397  1.00 46.22     0.014 C 
HETATM    3  C3  BCR F 101     -51.876 151.240   5.133  1.00 40.40     0.005 C 
HETATM    4  C4  BCR F 101     -51.249 150.008   4.547  1.00 37.04     0.034 C 
HETATM    5  C5  BCR F 101     -50.377 149.339   5.543  1.00 43.37    -0.077 C 
HETATM    6  C6  BCR F 101     -50.585 149.435   6.856  1.00 36.67    -0.048 C 
HETATM    7  C7  BCR F 101     -49.727 148.793   7.832  1.00 37.51     0.009 C 
HETATM    8  C8  BCR F 101     -49.657 147.472   7.899  1.00 40.99     0.007 C 
HETATM    9  C9  BCR F 101     -48.714 146.804   8.766  1.00 37.99    -0.062 C 
HETATM   10  C10 BCR F 101     -48.455 145.511   8.532  1.00 32.67     0.007 C 
HETATM   11  C11 BCR F 101     -47.557 144.670   9.301  1.00 30.31     0.001 C 
HETATM   12  C33 BCR F 101     -49.237 148.568   4.949  1.00 36.33     0.044 C 
HETATM   13  C31 BCR F 101     -52.561 149.406   8.315  1.00 51.06     0.020 C 
HETATM   14  C32 BCR F 101     -51.139 151.350   8.314  1.00 43.35     0.020 C 
HETATM   15  C34 BCR F 101     -47.927 147.666   9.675  1.00 39.55     0.048 C 
HETATM   16  C12 BCR F 101     -47.334 143.412   8.881  1.00 29.21     0.007 C 
HETATM   17  C13 BCR F 101     -46.364 142.535   9.496  1.00 31.53    -0.062 C 
HETATM   18  C14 BCR F 101     -45.955 141.458   8.816  1.00 36.47     0.007 C 
HETATM   19  C15 BCR F 101     -45.122 140.397   9.342  1.00 33.10     0.001 C 
HETATM   20  C16 BCR F 101     -44.945 139.269   8.616  1.00 33.82     0.001 C 
HETATM   21  C17 BCR F 101     -43.858 138.365   8.955  1.00 36.91     0.007 C 
HETATM   22  C18 BCR F 101     -43.441 137.267   8.295  1.00 32.34    -0.062 C 
HETATM   23  C19 BCR F 101     -42.275 136.572   8.807  1.00 30.12     0.007 C 
HETATM   24  C20 BCR F 101     -41.754 135.490   8.216  1.00 37.50     0.001 C 
HETATM   25  C21 BCR F 101     -40.416 135.036   8.546  1.00 38.83     0.007 C 
HETATM   26  C22 BCR F 101     -39.889 133.839   8.219  1.00 38.49    -0.062 C 
HETATM   27  C23 BCR F 101     -38.637 133.428   8.815  1.00 39.36     0.007 C 
HETATM   28  C24 BCR F 101     -38.195 132.167   8.729  1.00 56.86     0.009 C 
HETATM   29  C25 BCR F 101     -36.818 131.745   8.965  1.00 57.44    -0.048 C 
HETATM   30  C26 BCR F 101     -36.060 131.298   7.968  1.00 61.92    -0.077 C 
HETATM   31  C27 BCR F 101     -34.666 130.876   8.115  1.00 63.69     0.034 C 
HETATM   32  C28 BCR F 101     -34.056 131.669   9.234  1.00 63.72     0.005 C 
HETATM   33  C29 BCR F 101     -34.845 131.375  10.475  1.00 59.25     0.014 C 
HETATM   34  C30 BCR F 101     -36.297 131.796  10.369  1.00 65.60    -0.020 C 
HETATM   35  C35 BCR F 101     -45.557 143.062  10.622  1.00 33.23     0.048 C 
HETATM   36  C36 BCR F 101     -43.959 136.838   6.986  1.00 21.57     0.048 C 
HETATM   37  C37 BCR F 101     -40.379 133.036   7.091  1.00 27.86     0.048 C 
HETATM   38  C38 BCR F 101     -36.530 131.203   6.572  1.00 68.49     0.044 C 
HETATM   39  C39 BCR F 101     -36.484 133.172  10.981  1.00 75.29     0.020 C 
HETATM   40  C40 BCR F 101     -37.052 130.811  11.256  1.00 67.84     0.020 C 
ENDROOT
TORSDOF 10
BEGIN_RES PHE A  61
REMARK  2 active torsions:
REMARK  status: ('A' for Active; 'I' for Inactive)
REMARK    1  A    between atoms: CA   and  CB  
REMARK    2  A    between atoms: CB   and  CG  
ROOT
ATOM      1  CA  PHE A  61     -36.237 128.293  12.768  1.00 39.40     0.164 C 
ENDROOT
BRANCH   1   2
ATOM      2  CB  PHE A  61     -36.813 128.951  11.509  1.00 39.41     0.058 C 
BRANCH   2   3
ATOM      3  CG  PHE A  61     -36.503 128.219  10.225  1.00 39.01    -0.020 A 
ATOM      4  CD2 PHE A  61     -35.224 127.754   9.961  1.00 40.32    -0.004 A 
ATOM      5  CE2 PHE A  61     -34.940 127.084   8.778  1.00 40.20    -0.000 A 
ATOM      6  CZ  PHE A  61     -35.931 126.867   7.848  1.00 40.34    -0.000 A 
ATOM      7  CE1 PHE A  61     -37.208 127.321   8.096  1.00 41.51    -0.000 A 
ATOM      8  CD1 PHE A  61     -37.491 127.997   9.276  1.00 39.94    -0.004 A 
ENDBRANCH   2   3
ENDBRANCH   1   2
END_RES PHE A  61
BEGIN_RES VAL A 134
REMARK  1 active torsions:
REMARK  status: ('A' for Active; 'I' for Inactive)
REMARK    3  A    between atoms: CA   and  CB  
ROOT
ATOM      9  CA  VAL A 134     -29.766 132.051   9.815  1.00 40.75     0.159 C 
ENDROOT
BRANCH   9  10
ATOM     10  CB  VAL A 134     -30.864 132.765   9.009  1.00 40.76     0.029 C 
ATOM     11  CG1 VAL A 134     -31.280 131.928   7.808  1.00 41.76     0.002 C 
ATOM     12  CG2 VAL A 134     -32.067 133.102   9.876  1.00 40.56     0.002 C 
ENDBRANCH   9  10
END_RES VAL A 134
BEGIN_RES TYR A 338
REMARK  3 active torsions:
REMARK  status: ('A' for Active; 'I' for Inactive)
REMARK    4  A    between atoms: CA   and  CB  
REMARK    5  A    between atoms: CB   and  CG  
REMARK    6  A    between atoms: CZ   and  OH  
ROOT
ATOM     13  CA  TYR A 338     -41.631 124.950   6.058  1.00 38.23     0.164 C 
ENDROOT
BRANCH  13  14
ATOM     14  CB  TYR A 338     -41.621 126.456   6.339  1.00 39.15     0.058 C 
BRANCH  14  15
ATOM     15  CG  TYR A 338     -40.395 127.203   5.867  1.00 39.03    -0.020 A 
ATOM     16  CD2 TYR A 338     -39.433 126.562   5.106  1.00 40.65    -0.002 A 
ATOM     17  CE2 TYR A 338     -38.289 127.212   4.670  1.00 40.91     0.024 A 
ATOM     18  CZ  TYR A 338     -38.087 128.539   4.996  1.00 42.33     0.089 A 
ATOM     19  CE1 TYR A 338     -39.037 129.204   5.752  1.00 40.63     0.024 A 
ATOM     20  CD1 TYR A 338     -40.168 128.532   6.190  1.00 39.27    -0.002 A 
BRANCH  18  21
ATOM     21  OH  TYR A 338     -36.965 129.192   4.568  1.00 43.36    -0.359 OA
ATOM     22  HH  TYR A 338     -37.025 129.862   3.897  1.00  0.00     0.217 HD
ENDBRANCH  18  21
ENDBRANCH  14  15
ENDBRANCH  13  14
END_RES TYR A 338
ENDMDL
MODEL 8
REMARK VINA RESULT:    -8.442      1.446      2.301
REMARK INTER + INTRA:          -8.723
REMARK INTER:                  -4.510
REMARK INTRA:                  -4.213
REMARK UNBOUND:                -0.281
REMARK  0 active torsions:
REMARK  status: ('A' for Active; 'I' for Inactive)
REMARK       I    between atoms: C6_6  and  C7_7 
REMARK       I    between atoms: C8_8  and  C9_9 
REMARK       I    between atoms: C10_10  and  C11_11 
REMARK       I    between atoms: C12_16  and  C13_17 
REMARK       I    between atoms: C14_18  and  C15_19 
REMARK       I    between atoms: C16_20  and  C17_21 
REMARK       I    between atoms: C18_22  and  C19_23 
REMARK       I    between atoms: C20_24  and  C21_25 
REMARK       I    between atoms: C22_26  and  C23_27 
REMARK       I    between atoms: C24_28  and  C25_29 
ROOT
HETATM    1  C1  BCR F 101     -49.531 147.117   8.940  1.00 41.36    -0.020 C 
HETATM    2  C2  BCR F 101     -50.822 147.499   9.641  1.00 46.22     0.014 C 
HETATM    3  C3  BCR F 101     -51.947 146.569   9.310  1.00 40.40     0.005 C 
HETATM    4  C4  BCR F 101     -51.574 145.159   9.670  1.00 37.04     0.034 C 
HETATM    5  C5  BCR F 101     -50.298 144.771   9.021  1.00 43.37    -0.077 C 
HETATM    6  C6  BCR F 101     -49.358 145.661   8.700  1.00 36.67    -0.048 C 
HETATM    7  C7  BCR F 101     -48.116 145.286   8.053  1.00 37.51     0.009 C 
HETATM    8  C8  BCR F 101     -47.236 144.521   8.681  1.00 40.99     0.007 C 
HETATM    9  C9  BCR F 101     -46.055 144.021   8.017  1.00 37.99    -0.062 C 
HETATM   10  C10 BCR F 101     -45.406 142.995   8.582  1.00 32.67     0.007 C 
HETATM   11  C11 BCR F 101     -44.198 142.370   8.078  1.00 30.31     0.001 C 
HETATM   12  C33 BCR F 101     -50.168 143.305   8.738  1.00 36.33     0.044 C 
HETATM   13  C31 BCR F 101     -48.402 147.650   9.776  1.00 51.06     0.020 C 
HETATM   14  C32 BCR F 101     -49.472 147.884   7.632  1.00 43.35     0.020 C 
HETATM   15  C34 BCR F 101     -45.807 144.517   6.646  1.00 39.55     0.048 C 
HETATM   16  C12 BCR F 101     -43.719 141.285   8.714  1.00 29.21     0.007 C 
HETATM   17  C13 BCR F 101     -42.600 140.513   8.224  1.00 31.53    -0.062 C 
HETATM   18  C14 BCR F 101     -42.419 139.277   8.703  1.00 36.47     0.007 C 
HETATM   19  C15 BCR F 101     -41.268 138.435   8.446  1.00 33.10     0.001 C 
HETATM   20  C16 BCR F 101     -41.113 137.290   9.148  1.00 33.82     0.001 C 
HETATM   21  C17 BCR F 101     -40.181 136.281   8.672  1.00 36.91     0.007 C 
HETATM   22  C18 BCR F 101     -39.969 135.040   9.149  1.00 32.34    -0.062 C 
HETATM   23  C19 BCR F 101     -39.025 134.194   8.443  1.00 30.12     0.007 C 
HETATM   24  C20 BCR F 101     -38.760 132.934   8.808  1.00 37.50     0.001 C 
HETATM   25  C21 BCR F 101     -38.090 132.024   7.899  1.00 38.83     0.007 C 
HETATM   26  C22 BCR F 101     -37.547 130.836   8.234  1.00 38.49    -0.062 C 
HETATM   27  C23 BCR F 101     -36.706 130.146   7.282  1.00 39.36     0.007 C 
HETATM   28  C24 BCR F 101     -35.944 129.103   7.639  1.00 56.86     0.009 C 
HETATM   29  C25 BCR F 101     -35.363 128.136   6.712  1.00 57.44    -0.048 C 
HETATM   30  C26 BCR F 101     -35.785 126.876   6.687  1.00 61.92    -0.077 C 
HETATM   31  C27 BCR F 101     -35.271 125.850   5.778  1.00 63.69     0.034 C 
HETATM   32  C28 BCR F 101     -34.835 126.529   4.511  1.00 63.72     0.005 C 
HETATM   33  C29 BCR F 101     -33.766 127.516   4.876  1.00 59.25     0.014 C 
HETATM   34  C30 BCR F 101     -34.253 128.598   5.817  1.00 65.60    -0.020 C 
HETATM   35  C35 BCR F 101     -41.974 140.920   6.943  1.00 33.23     0.048 C 
HETATM   36  C36 BCR F 101     -40.770 134.410  10.212  1.00 21.57     0.048 C 
HETATM   37  C37 BCR F 101     -37.972 130.073   9.415  1.00 27.86     0.048 C 
HETATM   38  C38 BCR F 101     -36.856 126.362   7.563  1.00 68.49     0.044 C 
HETATM   39  C39 BCR F 101     -34.652 129.831   5.029  1.00 75.29     0.020 C 
HETATM   40  C40 BCR F 101     -33.025 128.977   6.640  1.00 67.84     0.020 C 
ENDROOT
TORSDOF 10
BEGIN_RES PHE A  61
REMARK  2 active torsions:
REMARK  status: ('A' for Active; 'I' for Inactive)
REMARK    1  A    between atoms: CA   and  CB  
REMARK    2  A    between atoms: CB   and  CG  
ROOT
ATOM      1  CA  PHE A  61     -36.237 128.293  12.768  1.00 39.40     0.164 C 
ENDROOT
BRANCH   1   2
ATOM      2  CB  PHE A  61     -36.813 128.951  11.509  1.00 39.41     0.058 C 
BRANCH   2   3
ATOM      3  CG  PHE A  61     -35.960 130.058  10.937  1.00 39.01    -0.020 A 
ATOM      4  CD2 PHE A  61     -34.749 129.778  10.323  1.00 40.32    -0.004 A 
ATOM      5  CE2 PHE A  61     -33.964 130.798   9.800  1.00 40.20    -0.000 A 
ATOM      6  CZ  PHE A  61     -34.381 132.107   9.883  1.00 40.34    -0.000 A 
ATOM      7  CE1 PHE A  61     -35.582 132.401  10.488  1.00 41.51    -0.000 A 
ATOM      8  CD1 PHE A  61     -36.365 131.383  11.017  1.00 39.94    -0.004 A 
ENDBRANCH   2   3
ENDBRANCH   1   2
END_RES PHE A  61
BEGIN_RES VAL A 134
REMARK  1 active torsions:
REMARK  status: ('A' for Active; 'I' for Inactive)
REMARK    3  A    between atoms: CA   and  CB  
ROOT
ATOM      9  CA  VAL A 134     -29.766 132.051   9.815  1.00 40.75     0.159 C 
ENDROOT
BRANCH   9  10
ATOM     10  CB  VAL A 134     -30.864 132.765   9.009  1.00 40.76     0.029 C 
ATOM     11  CG1 VAL A 134     -31.473 131.825   7.979  1.00 41.76     0.002 C 
ATOM     12  CG2 VAL A 134     -31.940 133.343   9.916  1.00 40.56     0.002 C 
ENDBRANCH   9  10
END_RES VAL A 134
BEGIN_RES TYR A 338
REMARK  3 active torsions:
REMARK  status: ('A' for Active; 'I' for Inactive)
REMARK    4  A    between atoms: CA   and  CB  
REMARK    5  A    between atoms: CB   and  CG  
REMARK    6  A    between atoms: CZ   and  OH  
ROOT
ATOM     13  CA  TYR A 338     -41.631 124.950   6.058  1.00 38.23     0.164 C 
ENDROOT
BRANCH  13  14
ATOM     14  CB  TYR A 338     -41.621 126.456   6.339  1.00 39.15     0.058 C 
BRANCH  14  15
ATOM     15  CG  TYR A 338     -40.441 127.220   5.782  1.00 39.03    -0.020 A 
ATOM     16  CD2 TYR A 338     -40.242 128.547   6.122  1.00 40.65    -0.002 A 
ATOM     17  CE2 TYR A 338     -39.181 129.282   5.617  1.00 40.91     0.024 A 
ATOM     18  CZ  TYR A 338     -38.286 128.687   4.748  1.00 42.33     0.089 A 
ATOM     19  CE1 TYR A 338     -38.461 127.360   4.397  1.00 40.63     0.024 A 
ATOM     20  CD1 TYR A 338     -39.537 126.646   4.902  1.00 39.27    -0.002 A 
BRANCH  18  21
ATOM     21  OH  TYR A 338     -37.233 129.401   4.248  1.00 43.36    -0.359 OA
ATOM     22  HH  TYR A 338     -37.057 130.281   4.560  1.00  0.00     0.217 HD
ENDBRANCH  18  21
ENDBRANCH  14  15
ENDBRANCH  13  14
END_RES TYR A 338
ENDMDL
