MODEL 1
REMARK VINA RESULT:    -9.172      0.000      0.000
REMARK INTER + INTRA:         -15.771
REMARK INTER:                  -9.172
REMARK INTRA:                  -6.599
REMARK UNBOUND:                -6.599
REMARK  0 active torsions:
REMARK  status: ('A' for Active; 'I' for Inactive)
REMARK       I    between atoms: C6_6  and  C7_7 
REMARK       I    between atoms: C8_8  and  C9_9 
REMARK       I    between atoms: C10_10  and  C11_11 
REMARK       I    between atoms: C12_16  and  C13_17 
REMARK       I    between atoms: C14_18  and  C15_19 
REMARK       I    between atoms: C16_20  and  C17_21 
REMARK       I    between atoms: C18_22  and  C19_23 
REMARK       I    between atoms: C20_24  and  C21_25 
REMARK       I    between atoms: C22_26  and  C23_27 
REMARK       I    between atoms: C24_28  and  C25_29 
ROOT
HETATM    1  C1  BCR B 618     -34.966 130.708   8.157  1.00 18.61    -0.020 C 
HETATM    2  C2  BCR B 618     -33.842 129.843   8.680  1.00 18.63     0.014 C 
HETATM    3  C3  BCR B 618     -33.239 130.453   9.909  1.00 18.62     0.005 C 
HETATM    4  C4  BCR B 618     -34.264 130.565  11.006  1.00 18.60     0.034 C 
HETATM    5  C5  BCR B 618     -35.587 131.030  10.522  1.00 18.57    -0.077 C 
HETATM    6  C6  BCR B 618     -35.937 131.113   9.224  1.00 18.52    -0.048 C 
HETATM    7  C7  BCR B 618     -37.264 131.563   8.773  1.00 18.34     0.009 C 
HETATM    8  C8  BCR B 618     -37.629 132.846   8.739  1.00 18.07     0.007 C 
HETATM    9  C9  BCR B 618     -38.928 133.366   8.364  1.00 17.93    -0.062 C 
HETATM   10  C10 BCR B 618     -39.226 134.618   8.743  1.00 17.77     0.007 C 
HETATM   11  C11 BCR B 618     -40.271 135.426   8.167  1.00 17.60     0.001 C 
HETATM   12  C33 BCR B 618     -36.493 131.394  11.633  1.00 18.57     0.044 C 
HETATM   13  C31 BCR B 618     -35.637 129.912   7.058  1.00 18.66     0.020 C 
HETATM   14  C32 BCR B 618     -34.326 131.937   7.542  1.00 18.64     0.020 C 
HETATM   15  C34 BCR B 618     -39.604 132.741   7.213  1.00 17.92     0.048 C 
HETATM   16  C12 BCR B 618     -40.464 136.678   8.608  1.00 17.46     0.007 C 
HETATM   17  C13 BCR B 618     -41.618 137.488   8.297  1.00 17.39    -0.062 C 
HETATM   18  C14 BCR B 618     -41.663 138.753   8.743  1.00 17.35     0.007 C 
HETATM   19  C15 BCR B 618     -42.691 139.696   8.401  1.00 17.33     0.001 C 
HETATM   20  C16 BCR B 618     -42.676 140.938   8.904  1.00 17.39     0.001 C 
HETATM   21  C17 BCR B 618     -43.841 141.772   8.764  1.00 17.40     0.007 C 
HETATM   22  C18 BCR B 618     -43.969 143.038   9.181  1.00 17.49    -0.062 C 
HETATM   23  C19 BCR B 618     -45.152 143.758   8.767  1.00 17.57     0.007 C 
HETATM   24  C20 BCR B 618     -45.538 144.918   9.289  1.00 17.71     0.001 C 
HETATM   25  C21 BCR B 618     -46.710 145.564   8.765  1.00 17.85     0.007 C 
HETATM   26  C22 BCR B 618     -47.269 146.680   9.241  1.00 18.00    -0.062 C 
HETATM   27  C23 BCR B 618     -48.355 147.263   8.479  1.00 18.11     0.007 C 
HETATM   28  C24 BCR B 618     -49.093 148.272   8.950  1.00 18.27     0.009 C 
HETATM   29  C25 BCR B 618     -50.195 148.955   8.272  1.00 18.38    -0.048 C 
HETATM   30  C26 BCR B 618     -51.417 148.427   8.120  1.00 18.39    -0.077 C 
HETATM   31  C27 BCR B 618     -52.583 149.045   7.447  1.00 18.43     0.034 C 
HETATM   32  C28 BCR B 618     -52.302 150.389   6.819  1.00 18.45     0.005 C 
HETATM   33  C29 BCR B 618     -50.837 150.643   6.584  1.00 18.46     0.014 C 
HETATM   34  C30 BCR B 618     -49.946 150.342   7.771  1.00 18.45    -0.020 C 
HETATM   35  C35 BCR B 618     -42.563 137.040   7.255  1.00 17.31     0.048 C 
HETATM   36  C36 BCR B 618     -43.215 143.547  10.344  1.00 17.49     0.048 C 
HETATM   37  C37 BCR B 618     -46.679 147.451  10.356  1.00 18.00     0.048 C 
HETATM   38  C38 BCR B 618     -51.808 147.079   8.571  1.00 18.43     0.044 C 
HETATM   39  C39 BCR B 618     -50.131 151.350   8.894  1.00 18.49     0.020 C 
HETATM   40  C40 BCR B 618     -48.534 150.562   7.262  1.00 18.48     0.020 C 
ENDROOT
TORSDOF 10
BEGIN_RES PHE A  61
REMARK  2 active torsions:
REMARK  status: ('A' for Active; 'I' for Inactive)
REMARK    1  A    between atoms: CA   and  CB  
REMARK    2  A    between atoms: CB   and  CG  
ROOT
ATOM      1  CA  PHE A  61     -36.237 128.293  12.768  1.00 39.40     0.164 C 
ENDROOT
BRANCH   1   2
ATOM      2  CB  PHE A  61     -36.813 128.951  11.509  1.00 39.41     0.058 C 
BRANCH   2   3
ATOM      3  CG  PHE A  61     -36.720 128.103  10.263  1.00 39.01    -0.020 A 
ATOM      4  CD2 PHE A  61     -37.780 128.025   9.374  1.00 40.32    -0.004 A 
ATOM      5  CE2 PHE A  61     -37.693 127.242   8.230  1.00 40.20    -0.000 A 
ATOM      6  CZ  PHE A  61     -36.546 126.531   7.960  1.00 40.34    -0.000 A 
ATOM      7  CE1 PHE A  61     -35.483 126.599   8.833  1.00 41.51    -0.000 A 
ATOM      8  CD1 PHE A  61     -35.571 127.377   9.980  1.00 39.94    -0.004 A 
ENDBRANCH   2   3
ENDBRANCH   1   2
END_RES PHE A  61
BEGIN_RES VAL A 134
REMARK  1 active torsions:
REMARK  status: ('A' for Active; 'I' for Inactive)
REMARK    3  A    between atoms: CA   and  CB  
ROOT
ATOM      9  CA  VAL A 134     -29.766 132.051   9.815  1.00 40.75     0.159 C 
ENDROOT
BRANCH   9  10
ATOM     10  CB  VAL A 134     -30.864 132.765   9.009  1.00 40.76     0.029 C 
ATOM     11  CG1 VAL A 134     -31.226 131.965   7.766  1.00 41.76     0.002 C 
ATOM     12  CG2 VAL A 134     -32.098 133.034   9.857  1.00 40.56     0.002 C 
ENDBRANCH   9  10
END_RES VAL A 134
BEGIN_RES TYR A 338
REMARK  3 active torsions:
REMARK  status: ('A' for Active; 'I' for Inactive)
REMARK    4  A    between atoms: CA   and  CB  
REMARK    5  A    between atoms: CB   and  CG  
REMARK    6  A    between atoms: CZ   and  OH  
ROOT
ATOM     13  CA  TYR A 338     -41.631 124.950   6.058  1.00 38.23     0.164 C 
ENDROOT
BRANCH  13  14
ATOM     14  CB  TYR A 338     -41.621 126.456   6.339  1.00 39.15     0.058 C 
BRANCH  14  15
ATOM     15  CG  TYR A 338     -40.402 127.206   5.853  1.00 39.03    -0.020 A 
ATOM     16  CD2 TYR A 338     -40.223 128.539   6.181  1.00 40.65    -0.002 A 
ATOM     17  CE2 TYR A 338     -39.125 129.262   5.739  1.00 40.91     0.024 A 
ATOM     18  CZ  TYR A 338     -38.174 128.649   4.946  1.00 42.33     0.089 A 
ATOM     19  CE1 TYR A 338     -38.328 127.316   4.609  1.00 40.63     0.024 A 
ATOM     20  CD1 TYR A 338     -39.440 126.614   5.050  1.00 39.27    -0.002 A 
BRANCH  18  21
ATOM     21  OH  TYR A 338     -37.085 129.351   4.509  1.00 43.36    -0.359 OA
ATOM     22  HH  TYR A 338     -36.236 128.929   4.445  1.00  0.00     0.217 HD
ENDBRANCH  18  21
ENDBRANCH  14  15
ENDBRANCH  13  14
END_RES TYR A 338
ENDMDL
MODEL 2
REMARK VINA RESULT:    -8.503      2.815      4.988
REMARK INTER + INTRA:         -15.103
REMARK INTER:                 -12.435
REMARK INTRA:                  -2.668
REMARK UNBOUND:                -6.599
REMARK  0 active torsions:
REMARK  status: ('A' for Active; 'I' for Inactive)
REMARK       I    between atoms: C6_6  and  C7_7 
REMARK       I    between atoms: C8_8  and  C9_9 
REMARK       I    between atoms: C10_10  and  C11_11 
REMARK       I    between atoms: C12_16  and  C13_17 
REMARK       I    between atoms: C14_18  and  C15_19 
REMARK       I    between atoms: C16_20  and  C17_21 
REMARK       I    between atoms: C18_22  and  C19_23 
REMARK       I    between atoms: C20_24  and  C21_25 
REMARK       I    between atoms: C22_26  and  C23_27 
REMARK       I    between atoms: C24_28  and  C25_29 
ROOT
HETATM    1  C1  BCR B 618     -33.869 126.988   6.945  1.00 18.61    -0.020 C 
HETATM    2  C2  BCR B 618     -32.994 126.126   6.064  1.00 18.63     0.014 C 
HETATM    3  C3  BCR B 618     -32.724 126.813   4.760  1.00 18.62     0.005 C 
HETATM    4  C4  BCR B 618     -31.995 128.111   4.982  1.00 18.60     0.034 C 
HETATM    5  C5  BCR B 618     -32.522 128.886   6.131  1.00 18.57    -0.077 C 
HETATM    6  C6  BCR B 618     -33.386 128.403   7.044  1.00 18.52    -0.048 C 
HETATM    7  C7  BCR B 618     -33.881 129.191   8.185  1.00 18.34     0.009 C 
HETATM    8  C8  BCR B 618     -34.835 130.116   8.075  1.00 18.07     0.007 C 
HETATM    9  C9  BCR B 618     -35.337 130.972   9.132  1.00 17.93    -0.062 C 
HETATM   10  C10 BCR B 618     -36.009 132.074   8.770  1.00 17.77     0.007 C 
HETATM   11  C11 BCR B 618     -36.884 132.827   9.633  1.00 17.60     0.001 C 
HETATM   12  C33 BCR B 618     -31.986 130.265   6.170  1.00 18.57     0.044 C 
HETATM   13  C31 BCR B 618     -33.907 126.310   8.298  1.00 18.66     0.020 C 
HETATM   14  C32 BCR B 618     -35.263 126.954   6.349  1.00 18.64     0.020 C 
HETATM   15  C34 BCR B 618     -35.538 130.364  10.460  1.00 17.92     0.048 C 
HETATM   16  C12 BCR B 618     -37.527 133.902   9.155  1.00 17.46     0.007 C 
HETATM   17  C13 BCR B 618     -38.221 134.872   9.970  1.00 17.39    -0.062 C 
HETATM   18  C14 BCR B 618     -38.885 135.870   9.367  1.00 17.35     0.007 C 
HETATM   19  C15 BCR B 618     -39.714 136.822  10.053  1.00 17.33     0.001 C 
HETATM   20  C16 BCR B 618     -40.330 137.804   9.382  1.00 17.39     0.001 C 
HETATM   21  C17 BCR B 618     -40.931 138.890  10.110  1.00 17.40     0.007 C 
HETATM   22  C18 BCR B 618     -41.606 139.922   9.588  1.00 17.49    -0.062 C 
HETATM   23  C19 BCR B 618     -42.295 140.798  10.507  1.00 17.57     0.007 C 
HETATM   24  C20 BCR B 618     -42.797 141.983  10.172  1.00 17.71     0.001 C 
HETATM   25  C21 BCR B 618     -43.503 142.749  11.162  1.00 17.85     0.007 C 
HETATM   26  C22 BCR B 618     -43.981 143.985  11.003  1.00 18.00    -0.062 C 
HETATM   27  C23 BCR B 618     -44.802 144.529  12.067  1.00 18.11     0.007 C 
HETATM   28  C24 BCR B 618     -45.185 145.808  12.086  1.00 18.27     0.009 C 
HETATM   29  C25 BCR B 618     -46.027 146.466  13.088  1.00 18.38    -0.048 C 
HETATM   30  C26 BCR B 618     -45.598 146.807  14.311  1.00 18.39    -0.077 C 
HETATM   31  C27 BCR B 618     -46.380 147.468  15.381  1.00 18.43     0.034 C 
HETATM   32  C28 BCR B 618     -47.831 147.705  15.039  1.00 18.45     0.005 C 
HETATM   33  C29 BCR B 618     -48.326 146.844  13.909  1.00 18.46     0.014 C 
HETATM   34  C30 BCR B 618     -47.424 146.819  12.693  1.00 18.45    -0.020 C 
HETATM   35  C35 BCR B 618     -38.457 134.587  11.399  1.00 17.31     0.048 C 
HETATM   36  C36 BCR B 618     -41.318 140.424   8.229  1.00 17.49     0.048 C 
HETATM   37  C37 BCR B 618     -43.906 144.707   9.713  1.00 18.00     0.048 C 
HETATM   38  C38 BCR B 618     -44.246 146.531  14.831  1.00 18.43     0.044 C 
HETATM   39  C39 BCR B 618     -47.443 148.140  11.941  1.00 18.49     0.020 C 
HETATM   40  C40 BCR B 618     -48.066 145.813  11.754  1.00 18.48     0.020 C 
ENDROOT
TORSDOF 10
BEGIN_RES PHE A  61
REMARK  2 active torsions:
REMARK  status: ('A' for Active; 'I' for Inactive)
REMARK    1  A    between atoms: CA   and  CB  
REMARK    2  A    between atoms: CB   and  CG  
ROOT
ATOM      1  CA  PHE A  61     -36.237 128.293  12.768  1.00 39.40     0.164 C 
ENDROOT
BRANCH   1   2
ATOM      2  CB  PHE A  61     -36.813 128.951  11.509  1.00 39.41     0.058 C 
BRANCH   2   3
ATOM      3  CG  PHE A  61     -37.059 127.998  10.364  1.00 39.01    -0.020 A 
ATOM      4  CD2 PHE A  61     -36.376 126.795  10.280  1.00 40.32    -0.004 A 
ATOM      5  CE2 PHE A  61     -36.602 125.921   9.224  1.00 40.20    -0.000 A 
ATOM      6  CZ  PHE A  61     -37.514 126.237   8.244  1.00 40.34    -0.000 A 
ATOM      7  CE1 PHE A  61     -38.203 127.428   8.314  1.00 41.51    -0.000 A 
ATOM      8  CD1 PHE A  61     -37.973 128.305   9.366  1.00 39.94    -0.004 A 
ENDBRANCH   2   3
ENDBRANCH   1   2
END_RES PHE A  61
BEGIN_RES VAL A 134
REMARK  1 active torsions:
REMARK  status: ('A' for Active; 'I' for Inactive)
REMARK    3  A    between atoms: CA   and  CB  
ROOT
ATOM      9  CA  VAL A 134     -29.766 132.051   9.815  1.00 40.75     0.159 C 
ENDROOT
BRANCH   9  10
ATOM     10  CB  VAL A 134     -30.864 132.765   9.009  1.00 40.76     0.029 C 
ATOM     11  CG1 VAL A 134     -30.868 132.287   7.564  1.00 41.76     0.002 C 
ATOM     12  CG2 VAL A 134     -32.234 132.582   9.643  1.00 40.56     0.002 C 
ENDBRANCH   9  10
END_RES VAL A 134
BEGIN_RES TYR A 338
REMARK  3 active torsions:
REMARK  status: ('A' for Active; 'I' for Inactive)
REMARK    4  A    between atoms: CA   and  CB  
REMARK    5  A    between atoms: CB   and  CG  
REMARK    6  A    between atoms: CZ   and  OH  
ROOT
ATOM     13  CA  TYR A 338     -41.631 124.950   6.058  1.00 38.23     0.164 C 
ENDROOT
BRANCH  13  14
ATOM     14  CB  TYR A 338     -41.621 126.456   6.339  1.00 39.15     0.058 C 
BRANCH  14  15
ATOM     15  CG  TYR A 338     -40.400 127.205   5.856  1.00 39.03    -0.020 A 
ATOM     16  CD2 TYR A 338     -40.229 128.542   6.172  1.00 40.65    -0.002 A 
ATOM     17  CE2 TYR A 338     -39.130 129.265   5.733  1.00 40.91     0.024 A 
ATOM     18  CZ  TYR A 338     -38.169 128.647   4.956  1.00 42.33     0.089 A 
ATOM     19  CE1 TYR A 338     -38.316 127.310   4.631  1.00 40.63     0.024 A 
ATOM     20  CD1 TYR A 338     -39.429 126.609   5.068  1.00 39.27    -0.002 A 
BRANCH  18  21
ATOM     21  OH  TYR A 338     -37.078 129.348   4.521  1.00 43.36    -0.359 OA
ATOM     22  HH  TYR A 338     -37.180 130.055   3.895  1.00  0.00     0.217 HD
ENDBRANCH  18  21
ENDBRANCH  14  15
ENDBRANCH  13  14
END_RES TYR A 338
ENDMDL
MODEL 3
REMARK VINA RESULT:    -6.620      1.781      3.606
REMARK INTER + INTRA:         -13.219
REMARK INTER:                 -12.590
REMARK INTRA:                  -0.629
REMARK UNBOUND:                -6.599
REMARK  0 active torsions:
REMARK  status: ('A' for Active; 'I' for Inactive)
REMARK       I    between atoms: C6_6  and  C7_7 
REMARK       I    between atoms: C8_8  and  C9_9 
REMARK       I    between atoms: C10_10  and  C11_11 
REMARK       I    between atoms: C12_16  and  C13_17 
REMARK       I    between atoms: C14_18  and  C15_19 
REMARK       I    between atoms: C16_20  and  C17_21 
REMARK       I    between atoms: C18_22  and  C19_23 
REMARK       I    between atoms: C20_24  and  C21_25 
REMARK       I    between atoms: C22_26  and  C23_27 
REMARK       I    between atoms: C24_28  and  C25_29 
ROOT
HETATM    1  C1  BCR B 618     -33.723 128.128   7.503  1.00 18.61    -0.020 C 
HETATM    2  C2  BCR B 618     -32.581 127.381   6.853  1.00 18.63     0.014 C 
HETATM    3  C3  BCR B 618     -32.140 128.082   5.604  1.00 18.62     0.005 C 
HETATM    4  C4  BCR B 618     -31.647 129.469   5.916  1.00 18.60     0.034 C 
HETATM    5  C5  BCR B 618     -32.496 130.180   6.903  1.00 18.57    -0.077 C 
HETATM    6  C6  BCR B 618     -33.459 129.596   7.641  1.00 18.52    -0.048 C 
HETATM    7  C7  BCR B 618     -34.276 130.324   8.626  1.00 18.34     0.009 C 
HETATM    8  C8  BCR B 618     -35.300 131.110   8.289  1.00 18.07     0.007 C 
HETATM    9  C9  BCR B 618     -36.114 131.903   9.187  1.00 17.93    -0.062 C 
HETATM   10  C10 BCR B 618     -36.835 132.900   8.653  1.00 17.77     0.007 C 
HETATM   11  C11 BCR B 618     -37.959 133.537   9.291  1.00 17.60     0.001 C 
HETATM   12  C33 BCR B 618     -32.164 131.619   6.994  1.00 18.57     0.044 C 
HETATM   13  C31 BCR B 618     -33.950 127.467   8.847  1.00 18.66     0.020 C 
HETATM   14  C32 BCR B 618     -34.948 127.897   6.640  1.00 18.64     0.020 C 
HETATM   15  C34 BCR B 618     -36.503 131.290  10.471  1.00 17.92     0.048 C 
HETATM   16  C12 BCR B 618     -38.624 134.509   8.650  1.00 17.46     0.007 C 
HETATM   17  C13 BCR B 618     -39.591 135.386   9.268  1.00 17.39    -0.062 C 
HETATM   18  C14 BCR B 618     -40.241 136.278   8.504  1.00 17.35     0.007 C 
HETATM   19  C15 BCR B 618     -41.310 137.117   8.971  1.00 17.33     0.001 C 
HETATM   20  C16 BCR B 618     -41.897 137.998   8.149  1.00 17.39     0.001 C 
HETATM   21  C17 BCR B 618     -42.771 139.002   8.697  1.00 17.40     0.007 C 
HETATM   22  C18 BCR B 618     -43.453 139.925   8.008  1.00 17.49    -0.062 C 
HETATM   23  C19 BCR B 618     -44.424 140.712   8.734  1.00 17.57     0.007 C 
HETATM   24  C20 BCR B 618     -44.996 141.814   8.257  1.00 17.71     0.001 C 
HETATM   25  C21 BCR B 618     -45.983 142.490   9.052  1.00 17.85     0.007 C 
HETATM   26  C22 BCR B 618     -46.576 143.648   8.750  1.00 18.00    -0.062 C 
HETATM   27  C23 BCR B 618     -47.661 144.088   9.604  1.00 18.11     0.007 C 
HETATM   28  C24 BCR B 618     -48.204 145.304   9.494  1.00 18.27     0.009 C 
HETATM   29  C25 BCR B 618     -49.311 145.854  10.278  1.00 18.38    -0.048 C 
HETATM   30  C26 BCR B 618     -49.191 146.266  11.548  1.00 18.39    -0.077 C 
HETATM   31  C27 BCR B 618     -50.255 146.828  12.410  1.00 18.43     0.034 C 
HETATM   32  C28 BCR B 618     -51.623 146.862  11.774  1.00 18.45     0.005 C 
HETATM   33  C29 BCR B 618     -51.759 145.927  10.602  1.00 18.46     0.014 C 
HETATM   34  C30 BCR B 618     -50.631 146.009   9.596  1.00 18.45    -0.020 C 
HETATM   35  C35 BCR B 618     -40.077 135.090  10.630  1.00 17.31     0.048 C 
HETATM   36  C36 BCR B 618     -42.960 140.445   6.717  1.00 17.49     0.048 C 
HETATM   37  C37 BCR B 618     -46.332 144.356   7.475  1.00 18.00     0.048 C 
HETATM   38  C38 BCR B 618     -47.951 146.182  12.341  1.00 18.43     0.044 C 
HETATM   39  C39 BCR B 618     -50.667 147.306   8.803  1.00 18.49     0.020 C 
HETATM   40  C40 BCR B 618     -50.930 144.914   8.588  1.00 18.48     0.020 C 
ENDROOT
TORSDOF 10
BEGIN_RES PHE A  61
REMARK  2 active torsions:
REMARK  status: ('A' for Active; 'I' for Inactive)
REMARK    1  A    between atoms: CA   and  CB  
REMARK    2  A    between atoms: CB   and  CG  
ROOT
ATOM      1  CA  PHE A  61     -36.237 128.293  12.768  1.00 39.40     0.164 C 
ENDROOT
BRANCH   1   2
ATOM      2  CB  PHE A  61     -36.813 128.951  11.509  1.00 39.41     0.058 C 
BRANCH   2   3
ATOM      3  CG  PHE A  61     -37.006 128.009  10.345  1.00 39.01    -0.020 A 
ATOM      4  CD2 PHE A  61     -37.905 128.304   9.332  1.00 40.32    -0.004 A 
ATOM      5  CE2 PHE A  61     -38.084 127.434   8.263  1.00 40.20    -0.000 A 
ATOM      6  CZ  PHE A  61     -37.365 126.263   8.194  1.00 40.34    -0.000 A 
ATOM      7  CE1 PHE A  61     -36.467 125.956   9.192  1.00 41.51    -0.000 A 
ATOM      8  CD1 PHE A  61     -36.292 126.822  10.264  1.00 39.94    -0.004 A 
ENDBRANCH   2   3
ENDBRANCH   1   2
END_RES PHE A  61
BEGIN_RES VAL A 134
REMARK  1 active torsions:
REMARK  status: ('A' for Active; 'I' for Inactive)
REMARK    3  A    between atoms: CA   and  CB  
ROOT
ATOM      9  CA  VAL A 134     -29.766 132.051   9.815  1.00 40.75     0.159 C 
ENDROOT
BRANCH   9  10
ATOM     10  CB  VAL A 134     -30.864 132.765   9.009  1.00 40.76     0.029 C 
ATOM     11  CG1 VAL A 134     -32.125 132.930   9.845  1.00 41.76     0.002 C 
ATOM     12  CG2 VAL A 134     -30.388 134.109   8.480  1.00 40.56     0.002 C 
ENDBRANCH   9  10
END_RES VAL A 134
BEGIN_RES TYR A 338
REMARK  3 active torsions:
REMARK  status: ('A' for Active; 'I' for Inactive)
REMARK    4  A    between atoms: CA   and  CB  
REMARK    5  A    between atoms: CB   and  CG  
REMARK    6  A    between atoms: CZ   and  OH  
ROOT
ATOM     13  CA  TYR A 338     -41.631 124.950   6.058  1.00 38.23     0.164 C 
ENDROOT
BRANCH  13  14
ATOM     14  CB  TYR A 338     -41.621 126.456   6.339  1.00 39.15     0.058 C 
BRANCH  14  15
ATOM     15  CG  TYR A 338     -40.402 127.206   5.853  1.00 39.03    -0.020 A 
ATOM     16  CD2 TYR A 338     -40.246 128.551   6.141  1.00 40.65    -0.002 A 
ATOM     17  CE2 TYR A 338     -39.149 129.274   5.698  1.00 40.91     0.024 A 
ATOM     18  CZ  TYR A 338     -38.174 128.648   4.944  1.00 42.33     0.089 A 
ATOM     19  CE1 TYR A 338     -38.305 127.303   4.648  1.00 40.63     0.024 A 
ATOM     20  CD1 TYR A 338     -39.416 126.601   5.089  1.00 39.27    -0.002 A 
BRANCH  18  21
ATOM     21  OH  TYR A 338     -37.086 129.350   4.506  1.00 43.36    -0.359 OA
ATOM     22  HH  TYR A 338     -36.946 130.246   4.789  1.00  0.00     0.217 HD
ENDBRANCH  18  21
ENDBRANCH  14  15
ENDBRANCH  13  14
END_RES TYR A 338
ENDMDL
MODEL 4
REMARK VINA RESULT:    -6.178      0.480     16.327
REMARK INTER + INTRA:         -12.777
REMARK INTER:                  -7.283
REMARK INTRA:                  -5.494
REMARK UNBOUND:                -6.599
REMARK  0 active torsions:
REMARK  status: ('A' for Active; 'I' for Inactive)
REMARK       I    between atoms: C6_6  and  C7_7 
REMARK       I    between atoms: C8_8  and  C9_9 
REMARK       I    between atoms: C10_10  and  C11_11 
REMARK       I    between atoms: C12_16  and  C13_17 
REMARK       I    between atoms: C14_18  and  C15_19 
REMARK       I    between atoms: C16_20  and  C17_21 
REMARK       I    between atoms: C18_22  and  C19_23 
REMARK       I    between atoms: C20_24  and  C21_25 
REMARK       I    between atoms: C22_26  and  C23_27 
REMARK       I    between atoms: C24_28  and  C25_29 
ROOT
HETATM    1  C1  BCR B 618     -49.967 150.486   7.907  1.00 18.61    -0.020 C 
HETATM    2  C2  BCR B 618     -51.194 151.286   7.534  1.00 18.63     0.014 C 
HETATM    3  C3  BCR B 618     -52.122 150.462   6.694  1.00 18.62     0.005 C 
HETATM    4  C4  BCR B 618     -52.592 149.249   7.451  1.00 18.60     0.034 C 
HETATM    5  C5  BCR B 618     -51.511 148.590   8.224  1.00 18.57    -0.077 C 
HETATM    6  C6  BCR B 618     -50.296 149.127   8.445  1.00 18.52    -0.048 C 
HETATM    7  C7  BCR B 618     -49.248 148.456   9.230  1.00 18.34     0.009 C 
HETATM    8  C8  BCR B 618     -48.494 147.466   8.749  1.00 18.07     0.007 C 
HETATM    9  C9  BCR B 618     -47.484 146.718   9.470  1.00 17.93    -0.062 C 
HETATM   10  C10 BCR B 618     -47.102 145.539   8.956  1.00 17.77     0.007 C 
HETATM   11  C11 BCR B 618     -45.887 144.845   9.300  1.00 17.60     0.001 C 
HETATM   12  C33 BCR B 618     -51.918 147.262   8.736  1.00 18.57     0.044 C 
HETATM   13  C31 BCR B 618     -49.207 151.322   8.915  1.00 18.66     0.020 C 
HETATM   14  C32 BCR B 618     -49.126 150.359   6.652  1.00 18.64     0.020 C 
HETATM   15  C34 BCR B 618     -46.600 147.470  10.379  1.00 17.92     0.048 C 
HETATM   16  C12 BCR B 618     -45.593 143.681   8.703  1.00 17.46     0.007 C 
HETATM   17  C13 BCR B 618     -44.552 142.778   9.135  1.00 17.39    -0.062 C 
HETATM   18  C14 BCR B 618     -44.310 141.673   8.411  1.00 17.35     0.007 C 
HETATM   19  C15 BCR B 618     -43.227 140.764   8.661  1.00 17.33     0.001 C 
HETATM   20  C16 BCR B 618     -43.062 139.670   7.904  1.00 17.39     0.001 C 
HETATM   21  C17 BCR B 618     -42.145 138.646   8.331  1.00 17.40     0.007 C 
HETATM   22  C18 BCR B 618     -41.849 137.518   7.673  1.00 17.49    -0.062 C 
HETATM   23  C19 BCR B 618     -40.757 136.720   8.182  1.00 17.57     0.007 C 
HETATM   24  C20 BCR B 618     -40.502 135.473   7.795  1.00 17.71     0.001 C 
HETATM   25  C21 BCR B 618     -39.359 134.793   8.337  1.00 17.85     0.007 C 
HETATM   26  C22 BCR B 618     -39.026 133.519   8.115  1.00 18.00    -0.062 C 
HETATM   27  C23 BCR B 618     -37.749 133.060   8.626  1.00 18.11     0.007 C 
HETATM   28  C24 BCR B 618     -37.399 131.771   8.609  1.00 18.27     0.009 C 
HETATM   29  C25 BCR B 618     -36.137 131.191   9.073  1.00 18.38    -0.048 C 
HETATM   30  C26 BCR B 618     -35.824 131.030  10.366  1.00 18.39    -0.077 C 
HETATM   31  C27 BCR B 618     -34.575 130.458  10.920  1.00 18.43     0.034 C 
HETATM   32  C28 BCR B 618     -33.542 130.091   9.882  1.00 18.45     0.005 C 
HETATM   33  C29 BCR B 618     -33.757 130.774   8.559  1.00 18.46     0.014 C 
HETATM   34  C30 BCR B 618     -35.176 130.706   8.037  1.00 18.45    -0.020 C 
HETATM   35  C35 BCR B 618     -43.579 143.221  10.151  1.00 17.31     0.048 C 
HETATM   36  C36 BCR B 618     -42.824 136.872   6.772  1.00 17.49     0.048 C 
HETATM   37  C37 BCR B 618     -39.782 132.651   7.186  1.00 18.00     0.048 C 
HETATM   38  C38 BCR B 618     -36.677 131.451  11.493  1.00 18.43     0.044 C 
HETATM   39  C39 BCR B 618     -35.551 129.304   7.584  1.00 18.49     0.020 C 
HETATM   40  C40 BCR B 618     -35.166 131.546   6.773  1.00 18.48     0.020 C 
ENDROOT
TORSDOF 10
BEGIN_RES PHE A  61
REMARK  2 active torsions:
REMARK  status: ('A' for Active; 'I' for Inactive)
REMARK    1  A    between atoms: CA   and  CB  
REMARK    2  A    between atoms: CB   and  CG  
ROOT
ATOM      1  CA  PHE A  61     -36.237 128.293  12.768  1.00 39.40     0.164 C 
ENDROOT
BRANCH   1   2
ATOM      2  CB  PHE A  61     -36.813 128.951  11.509  1.00 39.41     0.058 C 
BRANCH   2   3
ATOM      3  CG  PHE A  61     -36.875 128.044  10.303  1.00 39.01    -0.020 A 
ATOM      4  CD2 PHE A  61     -37.977 128.050   9.464  1.00 40.32    -0.004 A 
ATOM      5  CE2 PHE A  61     -38.034 127.213   8.357  1.00 40.20    -0.000 A 
ATOM      6  CZ  PHE A  61     -36.988 126.363   8.075  1.00 40.34    -0.000 A 
ATOM      7  CE1 PHE A  61     -35.885 126.347   8.898  1.00 41.51    -0.000 A 
ATOM      8  CD1 PHE A  61     -35.830 127.179  10.009  1.00 39.94    -0.004 A 
ENDBRANCH   2   3
ENDBRANCH   1   2
END_RES PHE A  61
BEGIN_RES VAL A 134
REMARK  1 active torsions:
REMARK  status: ('A' for Active; 'I' for Inactive)
REMARK    3  A    between atoms: CA   and  CB  
ROOT
ATOM      9  CA  VAL A 134     -29.766 132.051   9.815  1.00 40.75     0.159 C 
ENDROOT
BRANCH   9  10
ATOM     10  CB  VAL A 134     -30.864 132.765   9.009  1.00 40.76     0.029 C 
ATOM     11  CG1 VAL A 134     -31.226 131.965   7.766  1.00 41.76     0.002 C 
ATOM     12  CG2 VAL A 134     -32.098 133.033   9.857  1.00 40.56     0.002 C 
ENDBRANCH   9  10
END_RES VAL A 134
BEGIN_RES TYR A 338
REMARK  3 active torsions:
REMARK  status: ('A' for Active; 'I' for Inactive)
REMARK    4  A    between atoms: CA   and  CB  
REMARK    5  A    between atoms: CB   and  CG  
REMARK    6  A    between atoms: CZ   and  OH  
ROOT
ATOM     13  CA  TYR A 338     -41.631 124.950   6.058  1.00 38.23     0.164 C 
ENDROOT
BRANCH  13  14
ATOM     14  CB  TYR A 338     -41.621 126.456   6.339  1.00 39.15     0.058 C 
BRANCH  14  15
ATOM     15  CG  TYR A 338     -40.390 127.201   5.877  1.00 39.03    -0.020 A 
ATOM     16  CD2 TYR A 338     -40.210 128.532   6.213  1.00 40.65    -0.002 A 
ATOM     17  CE2 TYR A 338     -39.101 129.251   5.794  1.00 40.91     0.024 A 
ATOM     18  CZ  TYR A 338     -38.138 128.636   5.016  1.00 42.33     0.089 A 
ATOM     19  CE1 TYR A 338     -38.293 127.304   4.672  1.00 40.63     0.024 A 
ATOM     20  CD1 TYR A 338     -39.416 126.607   5.090  1.00 39.27    -0.002 A 
BRANCH  18  21
ATOM     21  OH  TYR A 338     -37.038 129.333   4.601  1.00 43.36    -0.359 OA
ATOM     22  HH  TYR A 338     -37.138 130.155   4.134  1.00  0.00     0.217 HD
ENDBRANCH  18  21
ENDBRANCH  14  15
ENDBRANCH  13  14
END_RES TYR A 338
ENDMDL
