MODEL 1
REMARK VINA RESULT:    -8.792      0.000      0.000
REMARK INTER + INTRA:         -15.438
REMARK INTER:                  -8.792
REMARK INTRA:                  -6.646
REMARK UNBOUND:                -6.646
REMARK  0 active torsions:
REMARK  status: ('A' for Active; 'I' for Inactive)
REMARK       I    between atoms: C6_6  and  C7_7 
REMARK       I    between atoms: C8_8  and  C9_9 
REMARK       I    between atoms: C10_10  and  C11_11 
REMARK       I    between atoms: C12_16  and  C13_17 
REMARK       I    between atoms: C14_18  and  C15_19 
REMARK       I    between atoms: C16_20  and  C17_21 
REMARK       I    between atoms: C18_22  and  C19_23 
REMARK       I    between atoms: C20_24  and  C21_25 
REMARK       I    between atoms: C22_26  and  C23_27 
REMARK       I    between atoms: C24_28  and  C25_29 
ROOT
HETATM    1  C1  BCR B 617     -34.957 130.785   8.106  1.00 26.29    -0.020 C 
HETATM    2  C2  BCR B 617     -33.925 129.818   8.665  1.00 24.49     0.014 C 
HETATM    3  C3  BCR B 617     -33.310 130.353   9.938  1.00 22.61     0.005 C 
HETATM    4  C4  BCR B 617     -34.347 130.605  11.004  1.00 25.50     0.034 C 
HETATM    5  C5  BCR B 617     -35.710 130.935  10.461  1.00 27.16    -0.077 C 
HETATM    6  C6  BCR B 617     -35.954 131.158   9.160  1.00 26.27    -0.048 C 
HETATM    7  C7  BCR B 617     -37.205 131.777   8.691  1.00 19.27     0.009 C 
HETATM    8  C8  BCR B 617     -37.476 133.059   8.931  1.00 21.60     0.007 C 
HETATM    9  C9  BCR B 617     -38.717 133.704   8.456  1.00 23.86    -0.062 C 
HETATM   10  C10 BCR B 617     -39.051 134.899   8.949  1.00 19.60     0.007 C 
HETATM   11  C11 BCR B 617     -40.236 135.651   8.573  1.00 18.33     0.001 C 
HETATM   12  C33 BCR B 617     -36.806 131.013  11.475  1.00 29.92     0.044 C 
HETATM   13  C31 BCR B 617     -35.673 130.123   6.940  1.00 24.31     0.020 C 
HETATM   14  C32 BCR B 617     -34.283 132.077   7.672  1.00 18.56     0.020 C 
HETATM   15  C34 BCR B 617     -39.569 133.033   7.427  1.00 23.81     0.048 C 
HETATM   16  C12 BCR B 617     -40.235 136.965   8.799  1.00 17.62     0.007 C 
HETATM   17  C13 BCR B 617     -41.367 137.845   8.474  1.00 18.11    -0.062 C 
HETATM   18  C14 BCR B 617     -41.339 139.133   8.884  1.00 18.92     0.007 C 
HETATM   19  C15 BCR B 617     -42.428 140.075   8.618  1.00 19.09     0.001 C 
HETATM   20  C16 BCR B 617     -42.569 141.224   9.286  1.00 23.01     0.001 C 
HETATM   21  C17 BCR B 617     -43.687 142.110   8.962  1.00 24.11     0.007 C 
HETATM   22  C18 BCR B 617     -43.940 143.306   9.522  1.00 19.95    -0.062 C 
HETATM   23  C19 BCR B 617     -45.102 144.062   9.065  1.00 21.01     0.007 C 
HETATM   24  C20 BCR B 617     -45.430 145.239   9.586  1.00 25.10     0.001 C 
HETATM   25  C21 BCR B 617     -46.596 145.906   9.017  1.00 22.05     0.007 C 
HETATM   26  C22 BCR B 617     -47.177 146.990   9.525  1.00 21.59    -0.062 C 
HETATM   27  C23 BCR B 617     -48.342 147.544   8.828  1.00 25.46     0.007 C 
HETATM   28  C24 BCR B 617     -49.093 148.483   9.391  1.00 27.51     0.009 C 
HETATM   29  C25 BCR B 617     -50.263 149.108   8.738  1.00 24.70    -0.048 C 
HETATM   30  C26 BCR B 617     -51.410 148.463   8.551  1.00 30.61    -0.077 C 
HETATM   31  C27 BCR B 617     -52.600 149.179   7.981  1.00 27.25     0.034 C 
HETATM   32  C28 BCR B 617     -52.061 149.958   6.806  1.00 25.90     0.005 C 
HETATM   33  C29 BCR B 617     -51.125 151.032   7.316  1.00 30.03     0.014 C 
HETATM   34  C30 BCR B 617     -50.112 150.552   8.346  1.00 27.09    -0.020 C 
HETATM   35  C35 BCR B 617     -42.533 137.319   7.698  1.00 15.67     0.048 C 
HETATM   36  C36 BCR B 617     -43.080 143.888  10.585  1.00 21.62     0.048 C 
HETATM   37  C37 BCR B 617     -46.661 147.654  10.762  1.00 24.04     0.048 C 
HETATM   38  C38 BCR B 617     -51.555 147.014   8.878  1.00 30.71     0.044 C 
HETATM   39  C39 BCR B 617     -50.237 151.350   9.631  1.00 28.41     0.020 C 
HETATM   40  C40 BCR B 617     -48.732 150.786   7.762  1.00 28.54     0.020 C 
ENDROOT
TORSDOF 10
BEGIN_RES PHE A  61
REMARK  2 active torsions:
REMARK  status: ('A' for Active; 'I' for Inactive)
REMARK    1  A    between atoms: CA   and  CB  
REMARK    2  A    between atoms: CB   and  CG  
ROOT
ATOM      1  CA  PHE A  61     -36.237 128.293  12.768  1.00 39.40     0.164 C 
ENDROOT
BRANCH   1   2
ATOM      2  CB  PHE A  61     -36.813 128.951  11.509  1.00 39.41     0.058 C 
BRANCH   2   3
ATOM      3  CG  PHE A  61     -36.691 128.116  10.257  1.00 39.01    -0.020 A 
ATOM      4  CD2 PHE A  61     -37.716 128.079   9.324  1.00 40.32    -0.004 A 
ATOM      5  CE2 PHE A  61     -37.604 127.307   8.174  1.00 40.20    -0.000 A 
ATOM      6  CZ  PHE A  61     -36.466 126.568   7.943  1.00 40.34    -0.000 A 
ATOM      7  CE1 PHE A  61     -35.439 126.595   8.859  1.00 41.51    -0.000 A 
ATOM      8  CD1 PHE A  61     -35.553 127.361  10.012  1.00 39.94    -0.004 A 
ENDBRANCH   2   3
ENDBRANCH   1   2
END_RES PHE A  61
BEGIN_RES VAL A 134
REMARK  1 active torsions:
REMARK  status: ('A' for Active; 'I' for Inactive)
REMARK    3  A    between atoms: CA   and  CB  
ROOT
ATOM      9  CA  VAL A 134     -29.766 132.051   9.815  1.00 40.75     0.159 C 
ENDROOT
BRANCH   9  10
ATOM     10  CB  VAL A 134     -30.864 132.765   9.009  1.00 40.76     0.029 C 
ATOM     11  CG1 VAL A 134     -31.225 131.965   7.766  1.00 41.76     0.002 C 
ATOM     12  CG2 VAL A 134     -32.098 133.033   9.857  1.00 40.56     0.002 C 
ENDBRANCH   9  10
END_RES VAL A 134
BEGIN_RES TYR A 338
REMARK  3 active torsions:
REMARK  status: ('A' for Active; 'I' for Inactive)
REMARK    4  A    between atoms: CA   and  CB  
REMARK    5  A    between atoms: CB   and  CG  
REMARK    6  A    between atoms: CZ   and  OH  
ROOT
ATOM     13  CA  TYR A 338     -41.631 124.950   6.058  1.00 38.23     0.164 C 
ENDROOT
BRANCH  13  14
ATOM     14  CB  TYR A 338     -41.621 126.456   6.339  1.00 39.15     0.058 C 
BRANCH  14  15
ATOM     15  CG  TYR A 338     -40.408 127.208   5.842  1.00 39.03    -0.020 A 
ATOM     16  CD2 TYR A 338     -39.446 126.563   5.084  1.00 40.65    -0.002 A 
ATOM     17  CE2 TYR A 338     -38.313 127.218   4.625  1.00 40.91     0.024 A 
ATOM     18  CZ  TYR A 338     -38.123 128.554   4.925  1.00 42.33     0.089 A 
ATOM     19  CE1 TYR A 338     -39.074 129.221   5.677  1.00 40.63     0.024 A 
ATOM     20  CD1 TYR A 338     -40.193 128.545   6.138  1.00 39.27    -0.002 A 
BRANCH  18  21
ATOM     21  OH  TYR A 338     -37.013 129.210   4.474  1.00 43.36    -0.359 OA
ATOM     22  HH  TYR A 338     -36.730 130.017   4.888  1.00  0.00     0.217 HD
ENDBRANCH  18  21
ENDBRANCH  14  15
ENDBRANCH  13  14
END_RES TYR A 338
ENDMDL
MODEL 2
REMARK VINA RESULT:    -8.246      2.846      5.081
REMARK INTER + INTRA:         -14.892
REMARK INTER:                 -12.839
REMARK INTRA:                  -2.052
REMARK UNBOUND:                -6.646
REMARK  0 active torsions:
REMARK  status: ('A' for Active; 'I' for Inactive)
REMARK       I    between atoms: C6_6  and  C7_7 
REMARK       I    between atoms: C8_8  and  C9_9 
REMARK       I    between atoms: C10_10  and  C11_11 
REMARK       I    between atoms: C12_16  and  C13_17 
REMARK       I    between atoms: C14_18  and  C15_19 
REMARK       I    between atoms: C16_20  and  C17_21 
REMARK       I    between atoms: C18_22  and  C19_23 
REMARK       I    between atoms: C20_24  and  C21_25 
REMARK       I    between atoms: C22_26  and  C23_27 
REMARK       I    between atoms: C24_28  and  C25_29 
ROOT
HETATM    1  C1  BCR B 617     -34.029 126.871   6.984  1.00 26.29    -0.020 C 
HETATM    2  C2  BCR B 617     -33.099 126.021   6.132  1.00 24.49     0.014 C 
HETATM    3  C3  BCR B 617     -32.860 126.659   4.783  1.00 22.61     0.005 C 
HETATM    4  C4  BCR B 617     -32.257 128.036   4.909  1.00 25.50     0.034 C 
HETATM    5  C5  BCR B 617     -32.623 128.746   6.182  1.00 27.16    -0.077 C 
HETATM    6  C6  BCR B 617     -33.535 128.284   7.052  1.00 26.27    -0.048 C 
HETATM    7  C7  BCR B 617     -34.102 129.127   8.118  1.00 19.27     0.009 C 
HETATM    8  C8  BCR B 617     -34.924 130.136   7.839  1.00 21.60     0.007 C 
HETATM    9  C9  BCR B 617     -35.516 130.985   8.893  1.00 23.86    -0.062 C 
HETATM   10  C10 BCR B 617     -36.110 132.128   8.542  1.00 19.60     0.007 C 
HETATM   11  C11 BCR B 617     -36.736 133.057   9.467  1.00 18.33     0.001 C 
HETATM   12  C33 BCR B 617     -31.904 130.034   6.433  1.00 29.92     0.044 C 
HETATM   13  C31 BCR B 617     -34.089 126.285   8.385  1.00 24.31     0.020 C 
HETATM   14  C32 BCR B 617     -35.411 126.926   6.354  1.00 18.56     0.020 C 
HETATM   15  C34 BCR B 617     -35.467 130.554  10.323  1.00 23.81     0.048 C 
HETATM   16  C12 BCR B 617     -37.636 133.910   8.976  1.00 17.62     0.007 C 
HETATM   17  C13 BCR B 617     -38.341 134.907   9.796  1.00 18.11    -0.062 C 
HETATM   18  C14 BCR B 617     -39.114 135.832   9.186  1.00 18.92     0.007 C 
HETATM   19  C15 BCR B 617     -39.840 136.870   9.922  1.00 19.09     0.001 C 
HETATM   20  C16 BCR B 617     -40.324 137.968   9.335  1.00 23.01     0.001 C 
HETATM   21  C17 BCR B 617     -41.036 138.960  10.141  1.00 24.11     0.007 C 
HETATM   22  C18 BCR B 617     -41.602 140.092   9.689  1.00 19.95    -0.062 C 
HETATM   23  C19 BCR B 617     -42.284 140.963  10.641  1.00 21.01     0.007 C 
HETATM   24  C20 BCR B 617     -42.847 142.108  10.275  1.00 25.10     0.001 C 
HETATM   25  C21 BCR B 617     -43.525 142.870  11.319  1.00 22.05     0.007 C 
HETATM   26  C22 BCR B 617     -43.982 144.112  11.181  1.00 21.59    -0.062 C 
HETATM   27  C23 BCR B 617     -44.648 144.738  12.328  1.00 25.46     0.007 C 
HETATM   28  C24 BCR B 617     -44.931 146.035  12.330  1.00 27.51     0.009 C 
HETATM   29  C25 BCR B 617     -45.625 146.727  13.437  1.00 24.70    -0.048 C 
HETATM   30  C26 BCR B 617     -45.047 146.967  14.609  1.00 30.61    -0.077 C 
HETATM   31  C27 BCR B 617     -45.760 147.770  15.658  1.00 27.25     0.034 C 
HETATM   32  C28 BCR B 617     -47.160 147.206  15.696  1.00 25.90     0.005 C 
HETATM   33  C29 BCR B 617     -47.850 147.515  14.386  1.00 30.03     0.014 C 
HETATM   34  C30 BCR B 617     -47.020 147.211  13.146  1.00 27.09    -0.020 C 
HETATM   35  C35 BCR B 617     -38.204 134.891  11.286  1.00 15.67     0.048 C 
HETATM   36  C36 BCR B 617     -41.564 140.488   8.257  1.00 21.62     0.048 C 
HETATM   37  C37 BCR B 617     -43.850 144.862   9.893  1.00 24.04     0.048 C 
HETATM   38  C38 BCR B 617     -43.689 146.440  14.933  1.00 30.71     0.044 C 
HETATM   39  C39 BCR B 617     -46.861 148.455  12.291  1.00 28.41     0.020 C 
HETATM   40  C40 BCR B 617     -47.773 146.165  12.346  1.00 28.54     0.020 C 
ENDROOT
TORSDOF 10
BEGIN_RES PHE A  61
REMARK  2 active torsions:
REMARK  status: ('A' for Active; 'I' for Inactive)
REMARK    1  A    between atoms: CA   and  CB  
REMARK    2  A    between atoms: CB   and  CG  
ROOT
ATOM      1  CA  PHE A  61     -36.237 128.293  12.768  1.00 39.40     0.164 C 
ENDROOT
BRANCH   1   2
ATOM      2  CB  PHE A  61     -36.813 128.951  11.509  1.00 39.41     0.058 C 
BRANCH   2   3
ATOM      3  CG  PHE A  61     -37.092 127.993  10.376  1.00 39.01    -0.020 A 
ATOM      4  CD2 PHE A  61     -36.466 126.757  10.318  1.00 40.32    -0.004 A 
ATOM      5  CE2 PHE A  61     -36.721 125.878   9.273  1.00 40.20    -0.000 A 
ATOM      6  CZ  PHE A  61     -37.606 126.222   8.278  1.00 40.34    -0.000 A 
ATOM      7  CE1 PHE A  61     -38.238 127.445   8.322  1.00 41.51    -0.000 A 
ATOM      8  CD1 PHE A  61     -37.979 128.327   9.362  1.00 39.94    -0.004 A 
ENDBRANCH   2   3
ENDBRANCH   1   2
END_RES PHE A  61
BEGIN_RES VAL A 134
REMARK  1 active torsions:
REMARK  status: ('A' for Active; 'I' for Inactive)
REMARK    3  A    between atoms: CA   and  CB  
ROOT
ATOM      9  CA  VAL A 134     -29.766 132.051   9.815  1.00 40.75     0.159 C 
ENDROOT
BRANCH   9  10
ATOM     10  CB  VAL A 134     -30.864 132.765   9.009  1.00 40.76     0.029 C 
ATOM     11  CG1 VAL A 134     -30.849 132.308   7.558  1.00 41.76     0.002 C 
ATOM     12  CG2 VAL A 134     -32.238 132.558   9.627  1.00 40.56     0.002 C 
ENDBRANCH   9  10
END_RES VAL A 134
BEGIN_RES TYR A 338
REMARK  3 active torsions:
REMARK  status: ('A' for Active; 'I' for Inactive)
REMARK    4  A    between atoms: CA   and  CB  
REMARK    5  A    between atoms: CB   and  CG  
REMARK    6  A    between atoms: CZ   and  OH  
ROOT
ATOM     13  CA  TYR A 338     -41.631 124.950   6.058  1.00 38.23     0.164 C 
ENDROOT
BRANCH  13  14
ATOM     14  CB  TYR A 338     -41.621 126.456   6.339  1.00 39.15     0.058 C 
BRANCH  14  15
ATOM     15  CG  TYR A 338     -40.403 127.206   5.851  1.00 39.03    -0.020 A 
ATOM     16  CD2 TYR A 338     -40.229 128.542   6.169  1.00 40.65    -0.002 A 
ATOM     17  CE2 TYR A 338     -39.133 129.266   5.726  1.00 40.91     0.024 A 
ATOM     18  CZ  TYR A 338     -38.177 128.650   4.940  1.00 42.33     0.089 A 
ATOM     19  CE1 TYR A 338     -38.326 127.314   4.612  1.00 40.63     0.024 A 
ATOM     20  CD1 TYR A 338     -39.437 126.612   5.055  1.00 39.27    -0.002 A 
BRANCH  18  21
ATOM     21  OH  TYR A 338     -37.089 129.352   4.500  1.00 43.36    -0.359 OA
ATOM     22  HH  TYR A 338     -37.092 129.752   3.639  1.00  0.00     0.217 HD
ENDBRANCH  18  21
ENDBRANCH  14  15
ENDBRANCH  13  14
END_RES TYR A 338
ENDMDL
MODEL 3
REMARK VINA RESULT:    -7.276      1.815      3.952
REMARK INTER + INTRA:         -13.922
REMARK INTER:                 -11.356
REMARK INTRA:                  -2.565
REMARK UNBOUND:                -6.646
REMARK  0 active torsions:
REMARK  status: ('A' for Active; 'I' for Inactive)
REMARK       I    between atoms: C6_6  and  C7_7 
REMARK       I    between atoms: C8_8  and  C9_9 
REMARK       I    between atoms: C10_10  and  C11_11 
REMARK       I    between atoms: C12_16  and  C13_17 
REMARK       I    between atoms: C14_18  and  C15_19 
REMARK       I    between atoms: C16_20  and  C17_21 
REMARK       I    between atoms: C18_22  and  C19_23 
REMARK       I    between atoms: C20_24  and  C21_25 
REMARK       I    between atoms: C22_26  and  C23_27 
REMARK       I    between atoms: C24_28  and  C25_29 
ROOT
HETATM    1  C1  BCR B 617     -34.439 127.278   6.262  1.00 26.29    -0.020 C 
HETATM    2  C2  BCR B 617     -33.097 126.586   6.079  1.00 24.49     0.014 C 
HETATM    3  C3  BCR B 617     -32.023 127.574   5.684  1.00 22.61     0.005 C 
HETATM    4  C4  BCR B 617     -31.855 128.665   6.712  1.00 25.50     0.034 C 
HETATM    5  C5  BCR B 617     -33.105 128.966   7.491  1.00 27.16    -0.077 C 
HETATM    6  C6  BCR B 617     -34.306 128.444   7.193  1.00 26.27    -0.048 C 
HETATM    7  C7  BCR B 617     -35.556 128.980   7.758  1.00 19.27     0.009 C 
HETATM    8  C8  BCR B 617     -36.021 130.176   7.400  1.00 21.60     0.007 C 
HETATM    9  C9  BCR B 617     -37.280 130.725   7.942  1.00 23.86    -0.062 C 
HETATM   10  C10 BCR B 617     -37.552 132.019   7.754  1.00 19.60     0.007 C 
HETATM   11  C11 BCR B 617     -38.750 132.694   8.225  1.00 18.33     0.001 C 
HETATM   12  C33 BCR B 617     -32.939 129.908   8.640  1.00 29.92     0.044 C 
HETATM   13  C31 BCR B 617     -35.434 126.281   6.835  1.00 24.31     0.020 C 
HETATM   14  C32 BCR B 617     -34.925 127.837   4.935  1.00 18.56     0.020 C 
HETATM   15  C34 BCR B 617     -38.239 129.838   8.668  1.00 23.81     0.048 C 
HETATM   16  C12 BCR B 617     -39.096 133.834   7.626  1.00 17.62     0.007 C 
HETATM   17  C13 BCR B 617     -40.278 134.622   8.005  1.00 18.11    -0.062 C 
HETATM   18  C14 BCR B 617     -40.460 135.842   7.452  1.00 18.92     0.007 C 
HETATM   19  C15 BCR B 617     -41.599 136.701   7.781  1.00 19.09     0.001 C 
HETATM   20  C16 BCR B 617     -41.620 138.009   7.511  1.00 23.01     0.001 C 
HETATM   21  C17 BCR B 617     -42.796 138.800   7.875  1.00 24.11     0.007 C 
HETATM   22  C18 BCR B 617     -42.974 140.111   7.642  1.00 19.95    -0.062 C 
HETATM   23  C19 BCR B 617     -44.223 140.736   8.068  1.00 21.01     0.007 C 
HETATM   24  C20 BCR B 617     -44.463 142.030   7.892  1.00 25.10     0.001 C 
HETATM   25  C21 BCR B 617     -45.764 142.522   8.334  1.00 22.05     0.007 C 
HETATM   26  C22 BCR B 617     -46.109 143.805   8.407  1.00 21.59    -0.062 C 
HETATM   27  C23 BCR B 617     -47.462 144.135   8.867  1.00 25.46     0.007 C 
HETATM   28  C24 BCR B 617     -47.795 145.384   9.168  1.00 27.51     0.009 C 
HETATM   29  C25 BCR B 617     -49.146 145.795   9.609  1.00 24.70    -0.048 C 
HETATM   30  C26 BCR B 617     -49.630 145.497  10.810  1.00 30.61    -0.077 C 
HETATM   31  C27 BCR B 617     -50.963 146.032  11.246  1.00 27.25     0.034 C 
HETATM   32  C28 BCR B 617     -51.880 145.802  10.069  1.00 25.90     0.005 C 
HETATM   33  C29 BCR B 617     -51.430 146.675   8.918  1.00 30.03     0.014 C 
HETATM   34  C30 BCR B 617     -49.933 146.636   8.641  1.00 27.09    -0.020 C 
HETATM   35  C35 BCR B 617     -41.266 134.077   8.988  1.00 15.67     0.048 C 
HETATM   36  C36 BCR B 617     -41.951 140.948   6.962  1.00 21.62     0.048 C 
HETATM   37  C37 BCR B 617     -45.165 144.898   8.017  1.00 24.04     0.048 C 
HETATM   38  C38 BCR B 617     -48.887 144.613  11.756  1.00 30.71     0.044 C 
HETATM   39  C39 BCR B 617     -49.339 148.030   8.718  1.00 28.41     0.020 C 
HETATM   40  C40 BCR B 617     -49.750 146.107   7.231  1.00 28.54     0.020 C 
ENDROOT
TORSDOF 10
BEGIN_RES PHE A  61
REMARK  2 active torsions:
REMARK  status: ('A' for Active; 'I' for Inactive)
REMARK    1  A    between atoms: CA   and  CB  
REMARK    2  A    between atoms: CB   and  CG  
ROOT
ATOM      1  CA  PHE A  61     -36.237 128.293  12.768  1.00 39.40     0.164 C 
ENDROOT
BRANCH   1   2
ATOM      2  CB  PHE A  61     -36.813 128.951  11.509  1.00 39.41     0.058 C 
BRANCH   2   3
ATOM      3  CG  PHE A  61     -36.377 130.381  11.297  1.00 39.01    -0.020 A 
ATOM      4  CD2 PHE A  61     -35.088 130.678  10.882  1.00 40.32    -0.004 A 
ATOM      5  CE2 PHE A  61     -34.687 131.994  10.691  1.00 40.20    -0.000 A 
ATOM      6  CZ  PHE A  61     -35.570 133.027  10.908  1.00 40.34    -0.000 A 
ATOM      7  CE1 PHE A  61     -36.855 132.749  11.318  1.00 41.51    -0.000 A 
ATOM      8  CD1 PHE A  61     -37.254 131.433  11.516  1.00 39.94    -0.004 A 
ENDBRANCH   2   3
ENDBRANCH   1   2
END_RES PHE A  61
BEGIN_RES VAL A 134
REMARK  1 active torsions:
REMARK  status: ('A' for Active; 'I' for Inactive)
REMARK    3  A    between atoms: CA   and  CB  
ROOT
ATOM      9  CA  VAL A 134     -29.766 132.051   9.815  1.00 40.75     0.159 C 
ENDROOT
BRANCH   9  10
ATOM     10  CB  VAL A 134     -30.864 132.765   9.009  1.00 40.76     0.029 C 
ATOM     11  CG1 VAL A 134     -31.142 132.027   7.707  1.00 41.76     0.002 C 
ATOM     12  CG2 VAL A 134     -32.140 132.928   9.821  1.00 40.56     0.002 C 
ENDBRANCH   9  10
END_RES VAL A 134
BEGIN_RES TYR A 338
REMARK  3 active torsions:
REMARK  status: ('A' for Active; 'I' for Inactive)
REMARK    4  A    between atoms: CA   and  CB  
REMARK    5  A    between atoms: CB   and  CG  
REMARK    6  A    between atoms: CZ   and  OH  
ROOT
ATOM     13  CA  TYR A 338     -41.631 124.950   6.058  1.00 38.23     0.164 C 
ENDROOT
BRANCH  13  14
ATOM     14  CB  TYR A 338     -41.621 126.456   6.339  1.00 39.15     0.058 C 
BRANCH  14  15
ATOM     15  CG  TYR A 338     -40.411 127.209   5.836  1.00 39.03    -0.020 A 
ATOM     16  CD2 TYR A 338     -40.294 128.572   6.052  1.00 40.65    -0.002 A 
ATOM     17  CE2 TYR A 338     -39.206 129.297   5.592  1.00 40.91     0.024 A 
ATOM     18  CZ  TYR A 338     -38.200 128.656   4.893  1.00 42.33     0.089 A 
ATOM     19  CE1 TYR A 338     -38.292 127.294   4.668  1.00 40.63     0.024 A 
ATOM     20  CD1 TYR A 338     -39.395 126.589   5.126  1.00 39.27    -0.002 A 
BRANCH  18  21
ATOM     21  OH  TYR A 338     -37.121 129.360   4.438  1.00 43.36    -0.359 OA
ATOM     22  HH  TYR A 338     -37.029 130.284   4.641  1.00  0.00     0.217 HD
ENDBRANCH  18  21
ENDBRANCH  14  15
ENDBRANCH  13  14
END_RES TYR A 338
ENDMDL
MODEL 4
REMARK VINA RESULT:    -5.947      1.899      4.185
REMARK INTER + INTRA:         -12.593
REMARK INTER:                 -10.797
REMARK INTRA:                  -1.795
REMARK UNBOUND:                -6.646
REMARK  0 active torsions:
REMARK  status: ('A' for Active; 'I' for Inactive)
REMARK       I    between atoms: C6_6  and  C7_7 
REMARK       I    between atoms: C8_8  and  C9_9 
REMARK       I    between atoms: C10_10  and  C11_11 
REMARK       I    between atoms: C12_16  and  C13_17 
REMARK       I    between atoms: C14_18  and  C15_19 
REMARK       I    between atoms: C16_20  and  C17_21 
REMARK       I    between atoms: C18_22  and  C19_23 
REMARK       I    between atoms: C20_24  and  C21_25 
REMARK       I    between atoms: C22_26  and  C23_27 
REMARK       I    between atoms: C24_28  and  C25_29 
ROOT
HETATM    1  C1  BCR B 617     -34.010 127.119   7.201  1.00 26.29    -0.020 C 
HETATM    2  C2  BCR B 617     -32.920 126.327   6.496  1.00 24.49     0.014 C 
HETATM    3  C3  BCR B 617     -32.659 126.873   5.111  1.00 22.61     0.005 C 
HETATM    4  C4  BCR B 617     -32.242 128.323   5.145  1.00 25.50     0.034 C 
HETATM    5  C5  BCR B 617     -32.789 129.086   6.319  1.00 27.16    -0.077 C 
HETATM    6  C6  BCR B 617     -33.701 128.585   7.167  1.00 26.27    -0.048 C 
HETATM    7  C7  BCR B 617     -34.447 129.435   8.110  1.00 19.27     0.009 C 
HETATM    8  C8  BCR B 617     -35.365 130.302   7.683  1.00 21.60     0.007 C 
HETATM    9  C9  BCR B 617     -36.136 131.153   8.611  1.00 23.86    -0.062 C 
HETATM   10  C10 BCR B 617     -36.837 132.176   8.116  1.00 19.60     0.007 C 
HETATM   11  C11 BCR B 617     -37.642 133.091   8.906  1.00 18.33     0.001 C 
HETATM   12  C33 BCR B 617     -32.256 130.472   6.492  1.00 29.92     0.044 C 
HETATM   13  C31 BCR B 617     -34.105 126.652   8.644  1.00 24.31     0.020 C 
HETATM   14  C32 BCR B 617     -35.337 126.941   6.480  1.00 18.56     0.020 C 
HETATM   15  C34 BCR B 617     -36.143 130.856  10.076  1.00 23.81     0.048 C 
HETATM   16  C12 BCR B 617     -38.600 133.775   8.279  1.00 17.62     0.007 C 
HETATM   17  C13 BCR B 617     -39.484 134.738   8.953  1.00 18.11    -0.062 C 
HETATM   18  C14 BCR B 617     -40.316 135.500   8.210  1.00 18.92     0.007 C 
HETATM   19  C15 BCR B 617     -41.219 136.493   8.796  1.00 19.09     0.001 C 
HETATM   20  C16 BCR B 617     -41.788 137.465   8.077  1.00 23.01     0.001 C 
HETATM   21  C17 BCR B 617     -42.677 138.422   8.738  1.00 24.11     0.007 C 
HETATM   22  C18 BCR B 617     -43.342 139.428   8.144  1.00 19.95    -0.062 C 
HETATM   23  C19 BCR B 617     -44.197 140.281   8.963  1.00 21.01     0.007 C 
HETATM   24  C20 BCR B 617     -44.868 141.308   8.454  1.00 25.10     0.001 C 
HETATM   25  C21 BCR B 617     -45.712 142.062   9.376  1.00 22.05     0.007 C 
HETATM   26  C22 BCR B 617     -46.307 143.217   9.091  1.00 21.59    -0.062 C 
HETATM   27  C23 BCR B 617     -47.131 143.847  10.128  1.00 25.46     0.007 C 
HETATM   28  C24 BCR B 617     -47.571 145.092   9.989  1.00 27.51     0.009 C 
HETATM   29  C25 BCR B 617     -48.428 145.781  10.978  1.00 24.70    -0.048 C 
HETATM   30  C26 BCR B 617     -47.975 146.194  12.157  1.00 30.61    -0.077 C 
HETATM   31  C27 BCR B 617     -48.860 146.983  13.076  1.00 27.25     0.034 C 
HETATM   32  C28 BCR B 617     -50.178 146.248  13.077  1.00 25.90     0.005 C 
HETATM   33  C29 BCR B 617     -50.799 146.351  11.701  1.00 30.03     0.014 C 
HETATM   34  C30 BCR B 617     -49.845 146.053  10.552  1.00 27.09    -0.020 C 
HETATM   35  C35 BCR B 617     -39.460 134.868  10.444  1.00 15.67     0.048 C 
HETATM   36  C36 BCR B 617     -43.244 139.701   6.687  1.00 21.62     0.048 C 
HETATM   37  C37 BCR B 617     -46.170 143.865   7.750  1.00 24.04     0.048 C 
HETATM   38  C38 BCR B 617     -46.591 145.877  12.616  1.00 30.71     0.044 C 
HETATM   39  C39 BCR B 617     -49.777 147.229   9.596  1.00 28.41     0.020 C 
HETATM   40  C40 BCR B 617     -50.400 144.853   9.807  1.00 28.54     0.020 C 
ENDROOT
TORSDOF 10
BEGIN_RES PHE A  61
REMARK  2 active torsions:
REMARK  status: ('A' for Active; 'I' for Inactive)
REMARK    1  A    between atoms: CA   and  CB  
REMARK    2  A    between atoms: CB   and  CG  
ROOT
ATOM      1  CA  PHE A  61     -36.237 128.293  12.768  1.00 39.40     0.164 C 
ENDROOT
BRANCH   1   2
ATOM      2  CB  PHE A  61     -36.813 128.951  11.509  1.00 39.41     0.058 C 
BRANCH   2   3
ATOM      3  CG  PHE A  61     -37.109 127.990  10.383  1.00 39.01    -0.020 A 
ATOM      4  CD2 PHE A  61     -38.026 128.312   9.395  1.00 40.32    -0.004 A 
ATOM      5  CE2 PHE A  61     -38.301 127.426   8.361  1.00 40.20    -0.000 A 
ATOM      6  CZ  PHE A  61     -37.658 126.210   8.301  1.00 40.34    -0.000 A 
ATOM      7  CE1 PHE A  61     -36.743 125.876   9.273  1.00 41.51    -0.000 A 
ATOM      8  CD1 PHE A  61     -36.473 126.759  10.311  1.00 39.94    -0.004 A 
ENDBRANCH   2   3
ENDBRANCH   1   2
END_RES PHE A  61
BEGIN_RES VAL A 134
REMARK  1 active torsions:
REMARK  status: ('A' for Active; 'I' for Inactive)
REMARK    3  A    between atoms: CA   and  CB  
ROOT
ATOM      9  CA  VAL A 134     -29.766 132.051   9.815  1.00 40.75     0.159 C 
ENDROOT
BRANCH   9  10
ATOM     10  CB  VAL A 134     -30.864 132.765   9.009  1.00 40.76     0.029 C 
ATOM     11  CG1 VAL A 134     -30.814 132.350   7.546  1.00 41.76     0.002 C 
ATOM     12  CG2 VAL A 134     -32.245 132.512   9.595  1.00 40.56     0.002 C 
ENDBRANCH   9  10
END_RES VAL A 134
BEGIN_RES TYR A 338
REMARK  3 active torsions:
REMARK  status: ('A' for Active; 'I' for Inactive)
REMARK    4  A    between atoms: CA   and  CB  
REMARK    5  A    between atoms: CB   and  CG  
REMARK    6  A    between atoms: CZ   and  OH  
ROOT
ATOM     13  CA  TYR A 338     -41.631 124.950   6.058  1.00 38.23     0.164 C 
ENDROOT
BRANCH  13  14
ATOM     14  CB  TYR A 338     -41.621 126.456   6.339  1.00 39.15     0.058 C 
BRANCH  14  15
ATOM     15  CG  TYR A 338     -40.398 127.205   5.860  1.00 39.03    -0.020 A 
ATOM     16  CD2 TYR A 338     -40.230 128.543   6.171  1.00 40.65    -0.002 A 
ATOM     17  CE2 TYR A 338     -39.129 129.265   5.736  1.00 40.91     0.024 A 
ATOM     18  CZ  TYR A 338     -38.163 128.644   4.967  1.00 42.33     0.089 A 
ATOM     19  CE1 TYR A 338     -38.306 127.306   4.648  1.00 40.63     0.024 A 
ATOM     20  CD1 TYR A 338     -39.421 126.605   5.082  1.00 39.27    -0.002 A 
BRANCH  18  21
ATOM     21  OH  TYR A 338     -37.071 129.345   4.536  1.00 43.36    -0.359 OA
ATOM     22  HH  TYR A 338     -36.195 129.008   4.684  1.00  0.00     0.217 HD
ENDBRANCH  18  21
ENDBRANCH  14  15
ENDBRANCH  13  14
END_RES TYR A 338
ENDMDL
MODEL 5
REMARK VINA RESULT:    -5.851      2.694     16.587
REMARK INTER + INTRA:         -12.497
REMARK INTER:                  -8.983
REMARK INTRA:                  -3.514
REMARK UNBOUND:                -6.646
REMARK  0 active torsions:
REMARK  status: ('A' for Active; 'I' for Inactive)
REMARK       I    between atoms: C6_6  and  C7_7 
REMARK       I    between atoms: C8_8  and  C9_9 
REMARK       I    between atoms: C10_10  and  C11_11 
REMARK       I    between atoms: C12_16  and  C13_17 
REMARK       I    between atoms: C14_18  and  C15_19 
REMARK       I    between atoms: C16_20  and  C17_21 
REMARK       I    between atoms: C18_22  and  C19_23 
REMARK       I    between atoms: C20_24  and  C21_25 
REMARK       I    between atoms: C22_26  and  C23_27 
REMARK       I    between atoms: C24_28  and  C25_29 
ROOT
HETATM    1  C1  BCR B 617     -46.536 147.608  12.072  1.00 26.29    -0.020 C 
HETATM    2  C2  BCR B 617     -47.155 148.655  12.986  1.00 24.49     0.014 C 
HETATM    3  C3  BCR B 617     -47.142 148.196  14.427  1.00 22.61     0.005 C 
HETATM    4  C4  BCR B 617     -45.744 147.910  14.916  1.00 25.50     0.034 C 
HETATM    5  C5  BCR B 617     -44.796 147.479  13.831  1.00 27.16    -0.077 C 
HETATM    6  C6  BCR B 617     -45.184 147.203  12.576  1.00 26.27    -0.048 C 
HETATM    7  C7  BCR B 617     -44.314 146.494  11.623  1.00 19.27     0.009 C 
HETATM    8  C8  BCR B 617     -44.020 145.204  11.782  1.00 21.60     0.007 C 
HETATM    9  C9  BCR B 617     -43.162 144.469  10.831  1.00 23.86    -0.062 C 
HETATM   10  C10 BCR B 617     -42.692 143.270  11.182  1.00 19.60     0.007 C 
HETATM   11  C11 BCR B 617     -41.843 142.434  10.349  1.00 18.33     0.001 C 
HETATM   12  C33 BCR B 617     -43.362 147.361  14.237  1.00 29.92     0.044 C 
HETATM   13  C31 BCR B 617     -46.405 148.190  10.674  1.00 24.31     0.020 C 
HETATM   14  C32 BCR B 617     -47.389 146.350  12.064  1.00 18.56     0.020 C 
HETATM   15  C34 BCR B 617     -42.848 145.055   9.492  1.00 23.81     0.048 C 
HETATM   16  C12 BCR B 617     -41.798 141.130  10.622  1.00 17.62     0.007 C 
HETATM   17  C13 BCR B 617     -40.979 140.171   9.866  1.00 18.11    -0.062 C 
HETATM   18  C14 BCR B 617     -40.872 138.900  10.313  1.00 18.92     0.007 C 
HETATM   19  C15 BCR B 617     -40.067 137.884   9.632  1.00 19.09     0.001 C 
HETATM   20  C16 BCR B 617     -39.686 136.748  10.224  1.00 23.01     0.001 C 
HETATM   21  C17 BCR B 617     -38.879 135.783   9.475  1.00 24.11     0.007 C 
HETATM   22  C18 BCR B 617     -38.450 134.591   9.923  1.00 19.95    -0.062 C 
HETATM   23  C19 BCR B 617     -37.660 133.750   9.030  1.00 21.01     0.007 C 
HETATM   24  C20 BCR B 617     -37.181 132.570   9.407  1.00 25.10     0.001 C 
HETATM   25  C21 BCR B 617     -36.434 131.815   8.406  1.00 22.05     0.007 C 
HETATM   26  C22 BCR B 617     -35.732 130.711   8.653  1.00 21.59    -0.062 C 
HETATM   27  C23 BCR B 617     -35.041 130.065   7.533  1.00 25.46     0.007 C 
HETATM   28  C24 BCR B 617     -34.157 129.097   7.743  1.00 27.51     0.009 C 
HETATM   29  C25 BCR B 617     -33.443 128.381   6.663  1.00 24.70    -0.048 C 
HETATM   30  C26 BCR B 617     -32.482 128.946   5.940  1.00 30.61    -0.077 C 
HETATM   31  C27 BCR B 617     -31.717 128.140   4.931  1.00 27.25     0.034 C 
HETATM   32  C28 BCR B 617     -32.767 127.363   4.175  1.00 25.90     0.005 C 
HETATM   33  C29 BCR B 617     -33.411 126.365   5.112  1.00 30.03     0.014 C 
HETATM   34  C30 BCR B 617     -33.819 126.938   6.463  1.00 27.09    -0.020 C 
HETATM   35  C35 BCR B 617     -40.276 140.599   8.616  1.00 15.67     0.048 C 
HETATM   36  C36 BCR B 617     -38.753 134.095  11.291  1.00 21.62     0.048 C 
HETATM   37  C37 BCR B 617     -35.653 130.117  10.023  1.00 24.04     0.048 C 
HETATM   38  C38 BCR B 617     -32.142 130.392   6.086  1.00 30.71     0.044 C 
HETATM   39  C39 BCR B 617     -33.154 126.171   7.591  1.00 28.41     0.020 C 
HETATM   40  C40 BCR B 617     -35.322 126.775   6.585  1.00 28.54     0.020 C 
ENDROOT
TORSDOF 10
BEGIN_RES PHE A  61
REMARK  2 active torsions:
REMARK  status: ('A' for Active; 'I' for Inactive)
REMARK    1  A    between atoms: CA   and  CB  
REMARK    2  A    between atoms: CB   and  CG  
ROOT
ATOM      1  CA  PHE A  61     -36.237 128.293  12.768  1.00 39.40     0.164 C 
ENDROOT
BRANCH   1   2
ATOM      2  CB  PHE A  61     -36.813 128.951  11.509  1.00 39.41     0.058 C 
BRANCH   2   3
ATOM      3  CG  PHE A  61     -37.019 128.006  10.350  1.00 39.01    -0.020 A 
ATOM      4  CD2 PHE A  61     -36.170 126.929  10.150  1.00 40.32    -0.004 A 
ATOM      5  CE2 PHE A  61     -36.359 126.062   9.081  1.00 40.20    -0.000 A 
ATOM      6  CZ  PHE A  61     -37.400 126.259   8.203  1.00 40.34    -0.000 A 
ATOM      7  CE1 PHE A  61     -38.254 127.324   8.389  1.00 41.51    -0.000 A 
ATOM      8  CD1 PHE A  61     -38.062 128.195   9.453  1.00 39.94    -0.004 A 
ENDBRANCH   2   3
ENDBRANCH   1   2
END_RES PHE A  61
BEGIN_RES VAL A 134
REMARK  1 active torsions:
REMARK  status: ('A' for Active; 'I' for Inactive)
REMARK    3  A    between atoms: CA   and  CB  
ROOT
ATOM      9  CA  VAL A 134     -29.766 132.051   9.815  1.00 40.75     0.159 C 
ENDROOT
BRANCH   9  10
ATOM     10  CB  VAL A 134     -30.864 132.765   9.009  1.00 40.76     0.029 C 
ATOM     11  CG1 VAL A 134     -30.850 132.307   7.558  1.00 41.76     0.002 C 
ATOM     12  CG2 VAL A 134     -32.238 132.559   9.628  1.00 40.56     0.002 C 
ENDBRANCH   9  10
END_RES VAL A 134
BEGIN_RES TYR A 338
REMARK  3 active torsions:
REMARK  status: ('A' for Active; 'I' for Inactive)
REMARK    4  A    between atoms: CA   and  CB  
REMARK    5  A    between atoms: CB   and  CG  
REMARK    6  A    between atoms: CZ   and  OH  
ROOT
ATOM     13  CA  TYR A 338     -41.631 124.950   6.058  1.00 38.23     0.164 C 
ENDROOT
BRANCH  13  14
ATOM     14  CB  TYR A 338     -41.621 126.456   6.339  1.00 39.15     0.058 C 
BRANCH  14  15
ATOM     15  CG  TYR A 338     -40.391 127.202   5.875  1.00 39.03    -0.020 A 
ATOM     16  CD2 TYR A 338     -40.221 128.539   6.193  1.00 40.65    -0.002 A 
ATOM     17  CE2 TYR A 338     -39.113 129.258   5.771  1.00 40.91     0.024 A 
ATOM     18  CZ  TYR A 338     -38.141 128.636   5.010  1.00 42.33     0.089 A 
ATOM     19  CE1 TYR A 338     -38.286 127.299   4.684  1.00 40.63     0.024 A 
ATOM     20  CD1 TYR A 338     -39.408 126.602   5.104  1.00 39.27    -0.002 A 
BRANCH  18  21
ATOM     21  OH  TYR A 338     -37.042 129.334   4.592  1.00 43.36    -0.359 OA
ATOM     22  HH  TYR A 338     -36.960 129.604   3.685  1.00  0.00     0.217 HD
ENDBRANCH  18  21
ENDBRANCH  14  15
ENDBRANCH  13  14
END_RES TYR A 338
ENDMDL
