MODEL 1
REMARK VINA RESULT:    -8.998      0.000      0.000
REMARK INTER + INTRA:         -11.714
REMARK INTER:                  -8.998
REMARK INTRA:                  -2.716
REMARK UNBOUND:                -2.716
REMARK  0 active torsions:
REMARK  status: ('A' for Active; 'I' for Inactive)
REMARK       I    between atoms: C6_6  and  C7_7 
REMARK       I    between atoms: C8_8  and  C9_9 
REMARK       I    between atoms: C10_10  and  C11_11 
REMARK       I    between atoms: C12_16  and  C13_17 
REMARK       I    between atoms: C14_18  and  C15_19 
REMARK       I    between atoms: C16_20  and  C17_21 
REMARK       I    between atoms: C18_22  and  C19_23 
REMARK       I    between atoms: C20_24  and  C21_25 
REMARK       I    between atoms: C22_26  and  C23_27 
REMARK       I    between atoms: C24_28  and  C25_29 
ROOT
HETATM    1  C1  BCR B 617     -32.377 129.921   7.601  1.00 16.64    -0.020 C 
HETATM    2  C2  BCR B 617     -31.539 128.916   6.838  1.00 16.66     0.014 C 
HETATM    3  C3  BCR B 617     -32.130 128.633   5.493  1.00 16.67     0.005 C 
HETATM    4  C4  BCR B 617     -33.512 128.062   5.639  1.00 16.65     0.034 C 
HETATM    5  C5  BCR B 617     -34.335 128.819   6.608  1.00 16.64    -0.077 C 
HETATM    6  C6  BCR B 617     -33.850 129.688   7.502  1.00 16.61    -0.048 C 
HETATM    7  C7  BCR B 617     -34.710 130.406   8.461  1.00 16.52     0.009 C 
HETATM    8  C8  BCR B 617     -35.304 131.570   8.190  1.00 16.42     0.007 C 
HETATM    9  C9  BCR B 617     -36.054 132.342   9.163  1.00 16.35    -0.062 C 
HETATM   10  C10 BCR B 617     -36.702 133.449   8.779  1.00 16.25     0.007 C 
HETATM   11  C11 BCR B 617     -37.742 134.110   9.530  1.00 16.13     0.001 C 
HETATM   12  C33 BCR B 617     -35.772 128.529   6.474  1.00 16.67     0.044 C 
HETATM   13  C31 BCR B 617     -31.968 131.283   7.077  1.00 16.64     0.020 C 
HETATM   14  C32 BCR B 617     -31.954 129.819   9.049  1.00 16.66     0.020 C 
HETATM   15  C34 BCR B 617     -36.021 131.904  10.566  1.00 16.38     0.048 C 
HETATM   16  C12 BCR B 617     -38.057 135.387   9.260  1.00 15.96     0.007 C 
HETATM   17  C13 BCR B 617     -39.174 136.103   9.834  1.00 15.83    -0.062 C 
HETATM   18  C14 BCR B 617     -39.543 137.278   9.298  1.00 15.70     0.007 C 
HETATM   19  C15 BCR B 617     -40.801 137.944   9.520  1.00 15.54     0.001 C 
HETATM   20  C16 BCR B 617     -41.092 139.103   8.910  1.00 15.40     0.001 C 
HETATM   21  C17 BCR B 617     -42.246 139.862   9.331  1.00 15.27     0.007 C 
HETATM   22  C18 BCR B 617     -42.807 140.929   8.742  1.00 15.19    -0.062 C 
HETATM   23  C19 BCR B 617     -43.945 141.563   9.390  1.00 15.12     0.007 C 
HETATM   24  C20 BCR B 617     -44.637 142.571   8.857  1.00 15.10     0.001 C 
HETATM   25  C21 BCR B 617     -45.833 143.024   9.520  1.00 15.07     0.007 C 
HETATM   26  C22 BCR B 617     -46.685 143.978   9.122  1.00 15.07    -0.062 C 
HETATM   27  C23 BCR B 617     -47.578 144.522  10.125  1.00 15.08     0.007 C 
HETATM   28  C24 BCR B 617     -48.768 145.090   9.899  1.00 15.19     0.009 C 
HETATM   29  C25 BCR B 617     -49.614 145.780  10.882  1.00 15.27    -0.048 C 
HETATM   30  C26 BCR B 617     -50.315 145.138  11.832  1.00 15.33    -0.077 C 
HETATM   31  C27 BCR B 617     -51.186 145.776  12.840  1.00 15.37     0.034 C 
HETATM   32  C28 BCR B 617     -50.770 147.197  13.110  1.00 15.36     0.005 C 
HETATM   33  C29 BCR B 617     -50.567 147.943  11.820  1.00 15.31     0.014 C 
HETATM   34  C30 BCR B 617     -49.680 147.286  10.780  1.00 15.29    -0.020 C 
HETATM   35  C35 BCR B 617     -39.778 135.611  11.082  1.00 15.82     0.048 C 
HETATM   36  C36 BCR B 617     -42.395 141.434   7.415  1.00 15.16     0.048 C 
HETATM   37  C37 BCR B 617     -46.909 144.301   7.700  1.00 15.01     0.048 C 
HETATM   38  C38 BCR B 617     -50.342 143.669  12.034  1.00 15.36     0.044 C 
HETATM   39  C39 BCR B 617     -48.297 147.923  10.804  1.00 15.27     0.020 C 
HETATM   40  C40 BCR B 617     -50.318 147.721   9.470  1.00 15.28     0.020 C 
ENDROOT
TORSDOF 10
BEGIN_RES PHE A  61
REMARK  2 active torsions:
REMARK  status: ('A' for Active; 'I' for Inactive)
REMARK    1  A    between atoms: CA   and  CB  
REMARK    2  A    between atoms: CB   and  CG  
ROOT
ATOM      1  CA  PHE A  61     -36.237 128.293  12.768  1.00 39.40     0.164 C 
ENDROOT
BRANCH   1   2
ATOM      2  CB  PHE A  61     -36.813 128.951  11.509  1.00 39.41     0.058 C 
BRANCH   2   3
ATOM      3  CG  PHE A  61     -36.810 128.066  10.285  1.00 39.01    -0.020 A 
ATOM      4  CD2 PHE A  61     -37.885 128.057   9.411  1.00 40.32    -0.004 A 
ATOM      5  CE2 PHE A  61     -37.883 127.240   8.287  1.00 40.20    -0.000 A 
ATOM      6  CZ  PHE A  61     -36.805 126.427   8.024  1.00 40.34    -0.000 A 
ATOM      7  CE1 PHE A  61     -35.727 126.425   8.882  1.00 41.51    -0.000 A 
ATOM      8  CD1 PHE A  61     -35.732 127.237  10.009  1.00 39.94    -0.004 A 
ENDBRANCH   2   3
ENDBRANCH   1   2
END_RES PHE A  61
BEGIN_RES VAL A 134
REMARK  1 active torsions:
REMARK  status: ('A' for Active; 'I' for Inactive)
REMARK    3  A    between atoms: CA   and  CB  
ROOT
ATOM      9  CA  VAL A 134     -29.766 132.051   9.815  1.00 40.75     0.159 C 
ENDROOT
BRANCH   9  10
ATOM     10  CB  VAL A 134     -30.864 132.765   9.009  1.00 40.76     0.029 C 
ATOM     11  CG1 VAL A 134     -32.101 132.990   9.866  1.00 41.76     0.002 C 
ATOM     12  CG2 VAL A 134     -30.367 134.077   8.423  1.00 40.56     0.002 C 
ENDBRANCH   9  10
END_RES VAL A 134
BEGIN_RES TYR A 338
REMARK  3 active torsions:
REMARK  status: ('A' for Active; 'I' for Inactive)
REMARK    4  A    between atoms: CA   and  CB  
REMARK    5  A    between atoms: CB   and  CG  
REMARK    6  A    between atoms: CZ   and  OH  
ROOT
ATOM     13  CA  TYR A 338     -41.631 124.950   6.058  1.00 38.23     0.164 C 
ENDROOT
BRANCH  13  14
ATOM     14  CB  TYR A 338     -41.621 126.456   6.339  1.00 39.15     0.058 C 
BRANCH  14  15
ATOM     15  CG  TYR A 338     -40.423 127.213   5.814  1.00 39.03    -0.020 A 
ATOM     16  CD2 TYR A 338     -40.255 128.555   6.114  1.00 40.65    -0.002 A 
ATOM     17  CE2 TYR A 338     -39.177 129.284   5.637  1.00 40.91     0.024 A 
ATOM     18  CZ  TYR A 338     -38.234 128.669   4.836  1.00 42.33     0.089 A 
ATOM     19  CE1 TYR A 338     -38.377 127.328   4.526  1.00 40.63     0.024 A 
ATOM     20  CD1 TYR A 338     -39.469 126.620   5.002  1.00 39.27    -0.002 A 
BRANCH  18  21
ATOM     21  OH  TYR A 338     -37.164 129.377   4.363  1.00 43.36    -0.359 OA
ATOM     22  HH  TYR A 338     -36.781 130.074   4.884  1.00  0.00     0.217 HD
ENDBRANCH  18  21
ENDBRANCH  14  15
ENDBRANCH  13  14
END_RES TYR A 338
ENDMDL
MODEL 2
REMARK VINA RESULT:    -8.833      2.108     16.403
REMARK INTER + INTRA:         -11.549
REMARK INTER:                  -7.242
REMARK INTRA:                  -4.307
REMARK UNBOUND:                -2.716
REMARK  0 active torsions:
REMARK  status: ('A' for Active; 'I' for Inactive)
REMARK       I    between atoms: C6_6  and  C7_7 
REMARK       I    between atoms: C8_8  and  C9_9 
REMARK       I    between atoms: C10_10  and  C11_11 
REMARK       I    between atoms: C12_16  and  C13_17 
REMARK       I    between atoms: C14_18  and  C15_19 
REMARK       I    between atoms: C16_20  and  C17_21 
REMARK       I    between atoms: C18_22  and  C19_23 
REMARK       I    between atoms: C20_24  and  C21_25 
REMARK       I    between atoms: C22_26  and  C23_27 
REMARK       I    between atoms: C24_28  and  C25_29 
ROOT
HETATM    1  C1  BCR B 617     -50.049 143.931  12.170  1.00 16.64    -0.020 C 
HETATM    2  C2  BCR B 617     -50.886 144.762  13.121  1.00 16.66     0.014 C 
HETATM    3  C3  BCR B 617     -50.748 144.274  14.528  1.00 16.67     0.005 C 
HETATM    4  C4  BCR B 617     -51.213 142.849  14.634  1.00 16.65     0.034 C 
HETATM    5  C5  BCR B 617     -50.669 141.998  13.552  1.00 16.64    -0.077 C 
HETATM    6  C6  BCR B 617     -50.115 142.460  12.426  1.00 16.61    -0.048 C 
HETATM    7  C7  BCR B 617     -49.604 141.570  11.368  1.00 16.52     0.009 C 
HETATM    8  C8  BCR B 617     -48.362 141.082  11.352  1.00 16.42     0.007 C 
HETATM    9  C9  BCR B 617     -47.812 140.304  10.258  1.00 16.35    -0.062 C 
HETATM   10  C10 BCR B 617     -46.590 139.768  10.369  1.00 16.25     0.007 C 
HETATM   11  C11 BCR B 617     -46.062 138.713   9.538  1.00 16.13     0.001 C 
HETATM   12  C33 BCR B 617     -50.785 140.561  13.856  1.00 16.67     0.044 C 
HETATM   13  C31 BCR B 617     -48.638 144.475  12.278  1.00 16.64     0.020 C 
HETATM   14  C32 BCR B 617     -50.568 144.217  10.780  1.00 16.66     0.020 C 
HETATM   15  C34 BCR B 617     -48.607 140.184   9.027  1.00 16.38     0.048 C 
HETATM   16  C12 BCR B 617     -44.736 138.510   9.471  1.00 15.96     0.007 C 
HETATM   17  C13 BCR B 617     -44.101 137.399   8.800  1.00 15.83    -0.062 C 
HETATM   18  C14 BCR B 617     -42.799 137.159   9.020  1.00 15.70     0.007 C 
HETATM   19  C15 BCR B 617     -42.107 135.933   8.709  1.00 15.54     0.001 C 
HETATM   20  C16 BCR B 617     -40.806 135.776   9.000  1.00 15.40     0.001 C 
HETATM   21  C17 BCR B 617     -40.087 134.644   8.466  1.00 15.27     0.007 C 
HETATM   22  C18 BCR B 617     -38.856 134.210   8.779  1.00 15.19    -0.062 C 
HETATM   23  C19 BCR B 617     -38.318 133.066   8.061  1.00 15.12     0.007 C 
HETATM   24  C20 BCR B 617     -37.148 132.492   8.345  1.00 15.10     0.001 C 
HETATM   25  C21 BCR B 617     -36.783 131.276   7.665  1.00 15.07     0.007 C 
HETATM   26  C22 BCR B 617     -35.686 130.529   7.844  1.00 15.07    -0.062 C 
HETATM   27  C23 BCR B 617     -35.350 129.591   6.792  1.00 15.08     0.007 C 
HETATM   28  C24 BCR B 617     -34.639 128.466   6.934  1.00 15.19     0.009 C 
HETATM   29  C25 BCR B 617     -34.163 127.586   5.859  1.00 15.27    -0.048 C 
HETATM   30  C26 BCR B 617     -34.969 126.762   5.167  1.00 15.33    -0.077 C 
HETATM   31  C27 BCR B 617     -34.545 125.852   4.084  1.00 15.37     0.034 C 
HETATM   32  C28 BCR B 617     -33.289 126.338   3.412  1.00 15.36     0.005 C 
HETATM   33  C29 BCR B 617     -32.249 126.702   4.435  1.00 15.31     0.014 C 
HETATM   34  C30 BCR B 617     -32.683 127.631   5.553  1.00 15.29    -0.020 C 
HETATM   35  C35 BCR B 617     -44.852 136.655   7.775  1.00 15.82     0.048 C 
HETATM   36  C36 BCR B 617     -38.056 134.770   9.889  1.00 15.16     0.048 C 
HETATM   37  C37 BCR B 617     -34.978 130.453   9.137  1.00 15.01     0.048 C 
HETATM   38  C38 BCR B 617     -36.429 126.619   5.374  1.00 15.36     0.044 C 
HETATM   39  C39 BCR B 617     -32.201 129.047   5.266  1.00 15.27     0.020 C 
HETATM   40  C40 BCR B 617     -31.861 127.142   6.735  1.00 15.28     0.020 C 
ENDROOT
TORSDOF 10
BEGIN_RES PHE A  61
REMARK  2 active torsions:
REMARK  status: ('A' for Active; 'I' for Inactive)
REMARK    1  A    between atoms: CA   and  CB  
REMARK    2  A    between atoms: CB   and  CG  
ROOT
ATOM      1  CA  PHE A  61     -36.237 128.293  12.768  1.00 39.40     0.164 C 
ENDROOT
BRANCH   1   2
ATOM      2  CB  PHE A  61     -36.813 128.951  11.509  1.00 39.41     0.058 C 
BRANCH   2   3
ATOM      3  CG  PHE A  61     -36.892 128.039  10.308  1.00 39.01    -0.020 A 
ATOM      4  CD2 PHE A  61     -35.914 127.085  10.074  1.00 40.32    -0.004 A 
ATOM      5  CE2 PHE A  61     -35.986 126.249   8.967  1.00 40.20    -0.000 A 
ATOM      6  CZ  PHE A  61     -37.038 126.353   8.086  1.00 40.34    -0.000 A 
ATOM      7  CE1 PHE A  61     -38.019 127.294   8.306  1.00 41.51    -0.000 A 
ATOM      8  CD1 PHE A  61     -37.944 128.135   9.409  1.00 39.94    -0.004 A 
ENDBRANCH   2   3
ENDBRANCH   1   2
END_RES PHE A  61
BEGIN_RES VAL A 134
REMARK  1 active torsions:
REMARK  status: ('A' for Active; 'I' for Inactive)
REMARK    3  A    between atoms: CA   and  CB  
ROOT
ATOM      9  CA  VAL A 134     -29.766 132.051   9.815  1.00 40.75     0.159 C 
ENDROOT
BRANCH   9  10
ATOM     10  CB  VAL A 134     -30.864 132.765   9.009  1.00 40.76     0.029 C 
ATOM     11  CG1 VAL A 134     -31.185 131.994   7.737  1.00 41.76     0.002 C 
ATOM     12  CG2 VAL A 134     -32.119 132.983   9.841  1.00 40.56     0.002 C 
ENDBRANCH   9  10
END_RES VAL A 134
BEGIN_RES TYR A 338
REMARK  3 active torsions:
REMARK  status: ('A' for Active; 'I' for Inactive)
REMARK    4  A    between atoms: CA   and  CB  
REMARK    5  A    between atoms: CB   and  CG  
REMARK    6  A    between atoms: CZ   and  OH  
ROOT
ATOM     13  CA  TYR A 338     -41.631 124.950   6.058  1.00 38.23     0.164 C 
ENDROOT
BRANCH  13  14
ATOM     14  CB  TYR A 338     -41.621 126.456   6.339  1.00 39.15     0.058 C 
BRANCH  14  15
ATOM     15  CG  TYR A 338     -40.439 127.219   5.786  1.00 39.03    -0.020 A 
ATOM     16  CD2 TYR A 338     -40.173 128.507   6.218  1.00 40.65    -0.002 A 
ATOM     17  CE2 TYR A 338     -39.107 129.241   5.721  1.00 40.91     0.024 A 
ATOM     18  CZ  TYR A 338     -38.277 128.686   4.766  1.00 42.33     0.089 A 
ATOM     19  CE1 TYR A 338     -38.519 127.398   4.322  1.00 40.63     0.024 A 
ATOM     20  CD1 TYR A 338     -39.598 126.685   4.822  1.00 39.27    -0.002 A 
BRANCH  18  21
ATOM     21  OH  TYR A 338     -37.220 129.399   4.272  1.00 43.36    -0.359 OA
ATOM     22  HH  TYR A 338     -36.878 129.214   3.405  1.00  0.00     0.217 HD
ENDBRANCH  18  21
ENDBRANCH  14  15
ENDBRANCH  13  14
END_RES TYR A 338
ENDMDL
MODEL 3
REMARK VINA RESULT:    -8.042      1.678      2.923
REMARK INTER + INTRA:         -10.758
REMARK INTER:                  -8.192
REMARK INTRA:                  -2.566
REMARK UNBOUND:                -2.716
REMARK  0 active torsions:
REMARK  status: ('A' for Active; 'I' for Inactive)
REMARK       I    between atoms: C6_6  and  C7_7 
REMARK       I    between atoms: C8_8  and  C9_9 
REMARK       I    between atoms: C10_10  and  C11_11 
REMARK       I    between atoms: C12_16  and  C13_17 
REMARK       I    between atoms: C14_18  and  C15_19 
REMARK       I    between atoms: C16_20  and  C17_21 
REMARK       I    between atoms: C18_22  and  C19_23 
REMARK       I    between atoms: C20_24  and  C21_25 
REMARK       I    between atoms: C22_26  and  C23_27 
REMARK       I    between atoms: C24_28  and  C25_29 
ROOT
HETATM    1  C1  BCR B 617     -33.836 127.581   7.437  1.00 16.64    -0.020 C 
HETATM    2  C2  BCR B 617     -32.743 126.718   6.840  1.00 16.66     0.014 C 
HETATM    3  C3  BCR B 617     -32.098 127.398   5.673  1.00 16.67     0.005 C 
HETATM    4  C4  BCR B 617     -33.112 127.664   4.597  1.00 16.65     0.034 C 
HETATM    5  C5  BCR B 617     -34.361 128.251   5.133  1.00 16.64    -0.077 C 
HETATM    6  C6  BCR B 617     -34.710 128.247   6.424  1.00 16.61    -0.048 C 
HETATM    7  C7  BCR B 617     -35.975 128.829   6.907  1.00 16.52     0.009 C 
HETATM    8  C8  BCR B 617     -36.113 130.112   7.247  1.00 16.42     0.007 C 
HETATM    9  C9  BCR B 617     -37.318 130.669   7.834  1.00 16.35    -0.062 C 
HETATM   10  C10 BCR B 617     -37.405 131.987   8.051  1.00 16.25     0.007 C 
HETATM   11  C11 BCR B 617     -38.628 132.713   8.296  1.00 16.13     0.001 C 
HETATM   12  C33 BCR B 617     -35.187 128.870   4.083  1.00 16.67     0.044 C 
HETATM   13  C31 BCR B 617     -33.131 128.576   8.338  1.00 16.64     0.020 C 
HETATM   14  C32 BCR B 617     -34.678 126.668   8.298  1.00 16.66     0.020 C 
HETATM   15  C34 BCR B 617     -38.386 129.740   8.231  1.00 16.38     0.048 C 
HETATM   16  C12 BCR B 617     -38.585 133.928   8.866  1.00 15.96     0.007 C 
HETATM   17  C13 BCR B 617     -39.720 134.810   9.022  1.00 15.83    -0.062 C 
HETATM   18  C14 BCR B 617     -39.510 136.092   9.364  1.00 15.70     0.007 C 
HETATM   19  C15 BCR B 617     -40.468 137.162   9.238  1.00 15.54     0.001 C 
HETATM   20  C16 BCR B 617     -40.152 138.421   9.576  1.00 15.40     0.001 C 
HETATM   21  C17 BCR B 617     -41.191 139.419   9.667  1.00 15.27     0.007 C 
HETATM   22  C18 BCR B 617     -41.067 140.748   9.805  1.00 15.19    -0.062 C 
HETATM   23  C19 BCR B 617     -42.274 141.550   9.929  1.00 15.12     0.007 C 
HETATM   24  C20 BCR B 617     -42.279 142.882   9.980  1.00 15.10     0.001 C 
HETATM   25  C21 BCR B 617     -43.541 143.578   9.956  1.00 15.07     0.007 C 
HETATM   26  C22 BCR B 617     -43.753 144.900   9.950  1.00 15.07    -0.062 C 
HETATM   27  C23 BCR B 617     -45.079 145.355  10.318  1.00 15.08     0.007 C 
HETATM   28  C24 BCR B 617     -45.651 146.505   9.946  1.00 15.19     0.009 C 
HETATM   29  C25 BCR B 617     -46.927 147.050  10.429  1.00 15.27    -0.048 C 
HETATM   30  C26 BCR B 617     -48.124 146.558  10.066  1.00 15.33    -0.077 C 
HETATM   31  C27 BCR B 617     -49.436 147.069  10.513  1.00 15.37     0.034 C 
HETATM   32  C28 BCR B 617     -49.334 147.767  11.842  1.00 15.36     0.005 C 
HETATM   33  C29 BCR B 617     -48.193 148.746  11.839  1.00 15.31     0.014 C 
HETATM   34  C30 BCR B 617     -46.847 148.228  11.374  1.00 15.29    -0.020 C 
HETATM   35  C35 BCR B 617     -41.080 134.250   8.958  1.00 15.82     0.048 C 
HETATM   36  C36 BCR B 617     -39.770 141.454   9.734  1.00 15.16     0.048 C 
HETATM   37  C37 BCR B 617     -42.797 145.856   9.361  1.00 15.01     0.048 C 
HETATM   38  C38 BCR B 617     -48.340 145.417   9.146  1.00 15.36     0.044 C 
HETATM   39  C39 BCR B 617     -45.959 147.937  12.577  1.00 15.27     0.020 C 
HETATM   40  C40 BCR B 617     -46.237 149.441  10.689  1.00 15.28     0.020 C 
ENDROOT
TORSDOF 10
BEGIN_RES PHE A  61
REMARK  2 active torsions:
REMARK  status: ('A' for Active; 'I' for Inactive)
REMARK    1  A    between atoms: CA   and  CB  
REMARK    2  A    between atoms: CB   and  CG  
ROOT
ATOM      1  CA  PHE A  61     -36.237 128.293  12.768  1.00 39.40     0.164 C 
ENDROOT
BRANCH   1   2
ATOM      2  CB  PHE A  61     -36.813 128.951  11.509  1.00 39.41     0.058 C 
BRANCH   2   3
ATOM      3  CG  PHE A  61     -36.132 130.239  11.111  1.00 39.01    -0.020 A 
ATOM      4  CD2 PHE A  61     -34.897 130.226  10.483  1.00 40.32    -0.004 A 
ATOM      5  CE2 PHE A  61     -34.270 131.412  10.120  1.00 40.20    -0.000 A 
ATOM      6  CZ  PHE A  61     -34.873 132.622  10.377  1.00 40.34    -0.000 A 
ATOM      7  CE1 PHE A  61     -36.102 132.652  10.999  1.00 41.51    -0.000 A 
ATOM      8  CD1 PHE A  61     -36.725 131.467  11.368  1.00 39.94    -0.004 A 
ENDBRANCH   2   3
ENDBRANCH   1   2
END_RES PHE A  61
BEGIN_RES VAL A 134
REMARK  1 active torsions:
REMARK  status: ('A' for Active; 'I' for Inactive)
REMARK    3  A    between atoms: CA   and  CB  
ROOT
ATOM      9  CA  VAL A 134     -29.766 132.051   9.815  1.00 40.75     0.159 C 
ENDROOT
BRANCH   9  10
ATOM     10  CB  VAL A 134     -30.864 132.765   9.009  1.00 40.76     0.029 C 
ATOM     11  CG1 VAL A 134     -31.472 131.825   7.978  1.00 41.76     0.002 C 
ATOM     12  CG2 VAL A 134     -31.941 133.342   9.916  1.00 40.56     0.002 C 
ENDBRANCH   9  10
END_RES VAL A 134
BEGIN_RES TYR A 338
REMARK  3 active torsions:
REMARK  status: ('A' for Active; 'I' for Inactive)
REMARK    4  A    between atoms: CA   and  CB  
REMARK    5  A    between atoms: CB   and  CG  
REMARK    6  A    between atoms: CZ   and  OH  
ROOT
ATOM     13  CA  TYR A 338     -41.631 124.950   6.058  1.00 38.23     0.164 C 
ENDROOT
BRANCH  13  14
ATOM     14  CB  TYR A 338     -41.621 126.456   6.339  1.00 39.15     0.058 C 
BRANCH  14  15
ATOM     15  CG  TYR A 338     -40.452 127.223   5.765  1.00 39.03    -0.020 A 
ATOM     16  CD2 TYR A 338     -40.397 128.602   5.874  1.00 40.65    -0.002 A 
ATOM     17  CE2 TYR A 338     -39.348 129.338   5.346  1.00 40.91     0.024 A 
ATOM     18  CZ  TYR A 338     -38.319 128.692   4.686  1.00 42.33     0.089 A 
ATOM     19  CE1 TYR A 338     -38.350 127.314   4.568  1.00 40.63     0.024 A 
ATOM     20  CD1 TYR A 338     -39.414 126.597   5.092  1.00 39.27    -0.002 A 
BRANCH  18  21
ATOM     21  OH  TYR A 338     -37.278 129.408   4.165  1.00 43.36    -0.359 OA
ATOM     22  HH  TYR A 338     -37.301 129.701   3.262  1.00  0.00     0.217 HD
ENDBRANCH  18  21
ENDBRANCH  14  15
ENDBRANCH  13  14
END_RES TYR A 338
ENDMDL
MODEL 4
REMARK VINA RESULT:    -7.794      1.544     16.454
REMARK INTER + INTRA:         -10.510
REMARK INTER:                  -4.861
REMARK INTRA:                  -5.650
REMARK UNBOUND:                -2.716
REMARK  0 active torsions:
REMARK  status: ('A' for Active; 'I' for Inactive)
REMARK       I    between atoms: C6_6  and  C7_7 
REMARK       I    between atoms: C8_8  and  C9_9 
REMARK       I    between atoms: C10_10  and  C11_11 
REMARK       I    between atoms: C12_16  and  C13_17 
REMARK       I    between atoms: C14_18  and  C15_19 
REMARK       I    between atoms: C16_20  and  C17_21 
REMARK       I    between atoms: C18_22  and  C19_23 
REMARK       I    between atoms: C20_24  and  C21_25 
REMARK       I    between atoms: C22_26  and  C23_27 
REMARK       I    between atoms: C24_28  and  C25_29 
ROOT
HETATM    1  C1  BCR B 617     -50.597 150.350   9.816  1.00 16.64    -0.020 C 
HETATM    2  C2  BCR B 617     -51.537 151.349  10.458  1.00 16.66     0.014 C 
HETATM    3  C3  BCR B 617     -51.905 150.928  11.845  1.00 16.67     0.005 C 
HETATM    4  C4  BCR B 617     -52.600 149.596  11.820  1.00 16.65     0.034 C 
HETATM    5  C5  BCR B 617     -51.900 148.613  10.964  1.00 16.64    -0.077 C 
HETATM    6  C6  BCR B 617     -50.969 148.922  10.055  1.00 16.61    -0.048 C 
HETATM    7  C7  BCR B 617     -50.312 147.906   9.211  1.00 16.52     0.009 C 
HETATM    8  C8  BCR B 617     -49.216 147.241   9.578  1.00 16.42     0.007 C 
HETATM    9  C9  BCR B 617     -48.495 146.327   8.712  1.00 16.35    -0.062 C 
HETATM   10  C10 BCR B 617     -47.463 145.625   9.194  1.00 16.25     0.007 C 
HETATM   11  C11 BCR B 617     -46.884 144.458   8.574  1.00 16.13     0.001 C 
HETATM   12  C33 BCR B 617     -52.326 147.229  11.233  1.00 16.67     0.044 C 
HETATM   13  C31 BCR B 617     -49.215 150.685  10.341  1.00 16.64     0.020 C 
HETATM   14  C32 BCR B 617     -50.625 150.629   8.330  1.00 16.66     0.020 C 
HETATM   15  C34 BCR B 617     -48.895 146.256   7.299  1.00 16.38     0.048 C 
HETATM   16  C12 BCR B 617     -45.649 144.057   8.916  1.00 15.96     0.007 C 
HETATM   17  C13 BCR B 617     -45.027 142.827   8.481  1.00 15.83    -0.062 C 
HETATM   18  C14 BCR B 617     -43.904 142.411   9.089  1.00 15.70     0.007 C 
HETATM   19  C15 BCR B 617     -43.354 141.081   9.016  1.00 15.54     0.001 C 
HETATM   20  C16 BCR B 617     -42.242 140.750   9.689  1.00 15.40     0.001 C 
HETATM   21  C17 BCR B 617     -41.584 139.495   9.412  1.00 15.27     0.007 C 
HETATM   22  C18 BCR B 617     -40.588 138.904  10.089  1.00 15.19    -0.062 C 
HETATM   23  C19 BCR B 617     -40.048 137.653   9.579  1.00 15.12     0.007 C 
HETATM   24  C20 BCR B 617     -39.123 136.931  10.212  1.00 15.10     0.001 C 
HETATM   25  C21 BCR B 617     -38.768 135.636   9.687  1.00 15.07     0.007 C 
HETATM   26  C22 BCR B 617     -37.907 134.747  10.200  1.00 15.07    -0.062 C 
HETATM   27  C23 BCR B 617     -37.426 133.710   9.309  1.00 15.08     0.007 C 
HETATM   28  C24 BCR B 617     -36.977 132.503   9.672  1.00 15.19     0.009 C 
HETATM   29  C25 BCR B 617     -36.347 131.502   8.802  1.00 15.27    -0.048 C 
HETATM   30  C26 BCR B 617     -37.029 130.767   7.907  1.00 15.33    -0.077 C 
HETATM   31  C27 BCR B 617     -36.451 129.743   7.013  1.00 15.37     0.034 C 
HETATM   32  C28 BCR B 617     -34.992 129.999   6.750  1.00 15.36     0.005 C 
HETATM   33  C29 BCR B 617     -34.260 130.264   8.036  1.00 15.31     0.014 C 
HETATM   34  C30 BCR B 617     -34.855 131.310   8.960  1.00 15.29    -0.020 C 
HETATM   35  C35 BCR B 617     -45.545 142.144   7.283  1.00 15.82     0.048 C 
HETATM   36  C36 BCR B 617     -40.078 139.403  11.383  1.00 15.16     0.048 C 
HETATM   37  C37 BCR B 617     -37.640 134.642  11.647  1.00 15.01     0.048 C 
HETATM   38  C38 BCR B 617     -38.488 130.853   7.661  1.00 15.36     0.044 C 
HETATM   39  C39 BCR B 617     -34.092 132.620   8.818  1.00 15.27     0.020 C 
HETATM   40  C40 BCR B 617     -34.512 130.774  10.341  1.00 15.28     0.020 C 
ENDROOT
TORSDOF 10
BEGIN_RES PHE A  61
REMARK  2 active torsions:
REMARK  status: ('A' for Active; 'I' for Inactive)
REMARK    1  A    between atoms: CA   and  CB  
REMARK    2  A    between atoms: CB   and  CG  
ROOT
ATOM      1  CA  PHE A  61     -36.237 128.293  12.768  1.00 39.40     0.164 C 
ENDROOT
BRANCH   1   2
ATOM      2  CB  PHE A  61     -36.813 128.951  11.509  1.00 39.41     0.058 C 
BRANCH   2   3
ATOM      3  CG  PHE A  61     -36.720 128.103  10.263  1.00 39.01    -0.020 A 
ATOM      4  CD2 PHE A  61     -37.830 127.892   9.461  1.00 40.32    -0.004 A 
ATOM      5  CE2 PHE A  61     -37.744 127.108   8.317  1.00 40.20    -0.000 A 
ATOM      6  CZ  PHE A  61     -36.547 126.531   7.960  1.00 40.34    -0.000 A 
ATOM      7  CE1 PHE A  61     -35.433 126.733   8.746  1.00 41.51    -0.000 A 
ATOM      8  CD1 PHE A  61     -35.521 127.510   9.893  1.00 39.94    -0.004 A 
ENDBRANCH   2   3
ENDBRANCH   1   2
END_RES PHE A  61
BEGIN_RES VAL A 134
REMARK  1 active torsions:
REMARK  status: ('A' for Active; 'I' for Inactive)
REMARK    3  A    between atoms: CA   and  CB  
ROOT
ATOM      9  CA  VAL A 134     -29.766 132.051   9.815  1.00 40.75     0.159 C 
ENDROOT
BRANCH   9  10
ATOM     10  CB  VAL A 134     -30.864 132.765   9.009  1.00 40.76     0.029 C 
ATOM     11  CG1 VAL A 134     -31.331 131.897   7.849  1.00 41.76     0.002 C 
ATOM     12  CG2 VAL A 134     -32.037 133.165   9.891  1.00 40.56     0.002 C 
ENDBRANCH   9  10
END_RES VAL A 134
BEGIN_RES TYR A 338
REMARK  3 active torsions:
REMARK  status: ('A' for Active; 'I' for Inactive)
REMARK    4  A    between atoms: CA   and  CB  
REMARK    5  A    between atoms: CB   and  CG  
REMARK    6  A    between atoms: CZ   and  OH  
ROOT
ATOM     13  CA  TYR A 338     -41.631 124.950   6.058  1.00 38.23     0.164 C 
ENDROOT
BRANCH  13  14
ATOM     14  CB  TYR A 338     -41.621 126.456   6.339  1.00 39.15     0.058 C 
BRANCH  14  15
ATOM     15  CG  TYR A 338     -40.426 127.214   5.810  1.00 39.03    -0.020 A 
ATOM     16  CD2 TYR A 338     -40.355 128.591   5.940  1.00 40.65    -0.002 A 
ATOM     17  CE2 TYR A 338     -39.281 129.320   5.452  1.00 40.91     0.024 A 
ATOM     18  CZ  TYR A 338     -38.243 128.668   4.814  1.00 42.33     0.089 A 
ATOM     19  CE1 TYR A 338     -38.288 127.292   4.676  1.00 40.63     0.024 A 
ATOM     20  CD1 TYR A 338     -39.377 126.583   5.158  1.00 39.27    -0.002 A 
BRANCH  18  21
ATOM     21  OH  TYR A 338     -37.177 129.377   4.333  1.00 43.36    -0.359 OA
ATOM     22  HH  TYR A 338     -36.947 129.333   3.412  1.00  0.00     0.217 HD
ENDBRANCH  18  21
ENDBRANCH  14  15
ENDBRANCH  13  14
END_RES TYR A 338
ENDMDL
MODEL 5
REMARK VINA RESULT:    -7.731      1.503     16.299
REMARK INTER + INTRA:         -10.447
REMARK INTER:                  -7.904
REMARK INTRA:                  -2.543
REMARK UNBOUND:                -2.716
REMARK  0 active torsions:
REMARK  status: ('A' for Active; 'I' for Inactive)
REMARK       I    between atoms: C6_6  and  C7_7 
REMARK       I    between atoms: C8_8  and  C9_9 
REMARK       I    between atoms: C10_10  and  C11_11 
REMARK       I    between atoms: C12_16  and  C13_17 
REMARK       I    between atoms: C14_18  and  C15_19 
REMARK       I    between atoms: C16_20  and  C17_21 
REMARK       I    between atoms: C18_22  and  C19_23 
REMARK       I    between atoms: C20_24  and  C21_25 
REMARK       I    between atoms: C22_26  and  C23_27 
REMARK       I    between atoms: C24_28  and  C25_29 
ROOT
HETATM    1  C1  BCR B 617     -50.132 148.515   8.604  1.00 16.64    -0.020 C 
HETATM    2  C2  BCR B 617     -51.309 149.340   9.083  1.00 16.66     0.014 C 
HETATM    3  C3  BCR B 617     -52.065 148.625  10.157  1.00 16.67     0.005 C 
HETATM    4  C4  BCR B 617     -52.600 147.320   9.641  1.00 16.65     0.034 C 
HETATM    5  C5  BCR B 617     -51.583 146.554   8.887  1.00 16.64    -0.077 C 
HETATM    6  C6  BCR B 617     -50.439 147.064   8.418  1.00 16.61    -0.048 C 
HETATM    7  C7  BCR B 617     -49.463 146.263   7.656  1.00 16.52     0.009 C 
HETATM    8  C8  BCR B 617     -48.490 145.550   8.226  1.00 16.42     0.007 C 
HETATM    9  C9  BCR B 617     -47.455 144.854   7.484  1.00 16.35    -0.062 C 
HETATM   10  C10 BCR B 617     -46.577 144.079   8.132  1.00 16.25     0.007 C 
HETATM   11  C11 BCR B 617     -45.734 143.080   7.520  1.00 16.13     0.001 C 
HETATM   12  C33 BCR B 617     -51.954 145.138   8.720  1.00 16.67     0.044 C 
HETATM   13  C31 BCR B 617     -49.025 148.749   9.612  1.00 16.64     0.020 C 
HETATM   14  C32 BCR B 617     -49.706 149.106   7.279  1.00 16.66     0.020 C 
HETATM   15  C34 BCR B 617     -47.374 145.082   6.034  1.00 16.38     0.048 C 
HETATM   16  C12 BCR B 617     -44.645 142.634   8.165  1.00 15.96     0.007 C 
HETATM   17  C13 BCR B 617     -43.815 141.535   7.726  1.00 15.83    -0.062 C 
HETATM   18  C14 BCR B 617     -42.916 141.013   8.576  1.00 15.70     0.007 C 
HETATM   19  C15 BCR B 617     -42.261 139.738   8.428  1.00 15.54     0.001 C 
HETATM   20  C16 BCR B 617     -41.400 139.286   9.352  1.00 15.40     0.001 C 
HETATM   21  C17 BCR B 617     -40.585 138.130   9.065  1.00 15.27     0.007 C 
HETATM   22  C18 BCR B 617     -39.812 137.421   9.902  1.00 15.19    -0.062 C 
HETATM   23  C19 BCR B 617     -39.034 136.316   9.363  1.00 15.12     0.007 C 
HETATM   24  C20 BCR B 617     -38.303 135.488  10.110  1.00 15.10     0.001 C 
HETATM   25  C21 BCR B 617     -37.691 134.341   9.487  1.00 15.07     0.007 C 
HETATM   26  C22 BCR B 617     -36.969 133.376  10.069  1.00 15.07    -0.062 C 
HETATM   27  C23 BCR B 617     -36.142 132.561   9.201  1.00 15.08     0.007 C 
HETATM   28  C24 BCR B 617     -35.733 131.311   9.445  1.00 15.19     0.009 C 
HETATM   29  C25 BCR B 617     -34.775 130.528   8.653  1.00 15.27    -0.048 C 
HETATM   30  C26 BCR B 617     -35.070 129.994   7.456  1.00 15.33    -0.077 C 
HETATM   31  C27 BCR B 617     -34.152 129.194   6.620  1.00 15.37     0.034 C 
HETATM   32  C28 BCR B 617     -32.712 129.521   6.911  1.00 15.36     0.005 C 
HETATM   33  C29 BCR B 617     -32.457 129.514   8.392  1.00 15.31     0.014 C 
HETATM   34  C30 BCR B 617     -33.402 130.328   9.254  1.00 15.29    -0.020 C 
HETATM   35  C35 BCR B 617     -43.862 141.118   6.315  1.00 15.82     0.048 C 
HETATM   36  C36 BCR B 617     -39.788 137.637  11.364  1.00 15.16     0.048 C 
HETATM   37  C37 BCR B 617     -37.171 132.966  11.471  1.00 15.01     0.048 C 
HETATM   38  C38 BCR B 617     -36.375 130.110   6.763  1.00 15.36     0.044 C 
HETATM   39  C39 BCR B 617     -32.747 131.649   9.636  1.00 15.27     0.020 C 
HETATM   40  C40 BCR B 617     -33.476 129.513  10.536  1.00 15.28     0.020 C 
ENDROOT
TORSDOF 10
BEGIN_RES PHE A  61
REMARK  2 active torsions:
REMARK  status: ('A' for Active; 'I' for Inactive)
REMARK    1  A    between atoms: CA   and  CB  
REMARK    2  A    between atoms: CB   and  CG  
ROOT
ATOM      1  CA  PHE A  61     -36.237 128.293  12.768  1.00 39.40     0.164 C 
ENDROOT
BRANCH   1   2
ATOM      2  CB  PHE A  61     -36.813 128.951  11.509  1.00 39.41     0.058 C 
BRANCH   2   3
ATOM      3  CG  PHE A  61     -36.700 128.112  10.259  1.00 39.01    -0.020 A 
ATOM      4  CD2 PHE A  61     -35.563 127.360  10.007  1.00 40.32    -0.004 A 
ATOM      5  CE2 PHE A  61     -35.459 126.590   8.855  1.00 40.20    -0.000 A 
ATOM      6  CZ  PHE A  61     -36.491 126.561   7.944  1.00 40.34    -0.000 A 
ATOM      7  CE1 PHE A  61     -37.628 127.301   8.181  1.00 41.51    -0.000 A 
ATOM      8  CD1 PHE A  61     -37.730 128.076   9.330  1.00 39.94    -0.004 A 
ENDBRANCH   2   3
ENDBRANCH   1   2
END_RES PHE A  61
BEGIN_RES VAL A 134
REMARK  1 active torsions:
REMARK  status: ('A' for Active; 'I' for Inactive)
REMARK    3  A    between atoms: CA   and  CB  
ROOT
ATOM      9  CA  VAL A 134     -29.766 132.051   9.815  1.00 40.75     0.159 C 
ENDROOT
BRANCH   9  10
ATOM     10  CB  VAL A 134     -30.864 132.765   9.009  1.00 40.76     0.029 C 
ATOM     11  CG1 VAL A 134     -30.717 134.275   9.120  1.00 41.76     0.002 C 
ATOM     12  CG2 VAL A 134     -30.865 132.328   7.552  1.00 40.56     0.002 C 
ENDBRANCH   9  10
END_RES VAL A 134
BEGIN_RES TYR A 338
REMARK  3 active torsions:
REMARK  status: ('A' for Active; 'I' for Inactive)
REMARK    4  A    between atoms: CA   and  CB  
REMARK    5  A    between atoms: CB   and  CG  
REMARK    6  A    between atoms: CZ   and  OH  
ROOT
ATOM     13  CA  TYR A 338     -41.631 124.950   6.058  1.00 38.23     0.164 C 
ENDROOT
BRANCH  13  14
ATOM     14  CB  TYR A 338     -41.621 126.456   6.339  1.00 39.15     0.058 C 
BRANCH  14  15
ATOM     15  CG  TYR A 338     -40.419 127.212   5.821  1.00 39.03    -0.020 A 
ATOM     16  CD2 TYR A 338     -39.444 126.560   5.086  1.00 40.65    -0.002 A 
ATOM     17  CE2 TYR A 338     -38.321 127.218   4.609  1.00 40.91     0.024 A 
ATOM     18  CZ  TYR A 338     -38.154 128.565   4.868  1.00 42.33     0.089 A 
ATOM     19  CE1 TYR A 338     -39.117 129.241   5.597  1.00 40.63     0.024 A 
ATOM     20  CD1 TYR A 338     -40.227 128.561   6.076  1.00 39.27    -0.002 A 
BRANCH  18  21
ATOM     21  OH  TYR A 338     -37.053 129.226   4.399  1.00 43.36    -0.359 OA
ATOM     22  HH  TYR A 338     -36.803 129.155   3.485  1.00  0.00     0.217 HD
ENDBRANCH  18  21
ENDBRANCH  14  15
ENDBRANCH  13  14
END_RES TYR A 338
ENDMDL
MODEL 6
REMARK VINA RESULT:    -7.243      1.608     16.427
REMARK INTER + INTRA:          -9.959
REMARK INTER:                  -6.892
REMARK INTRA:                  -3.068
REMARK UNBOUND:                -2.716
REMARK  0 active torsions:
REMARK  status: ('A' for Active; 'I' for Inactive)
REMARK       I    between atoms: C6_6  and  C7_7 
REMARK       I    between atoms: C8_8  and  C9_9 
REMARK       I    between atoms: C10_10  and  C11_11 
REMARK       I    between atoms: C12_16  and  C13_17 
REMARK       I    between atoms: C14_18  and  C15_19 
REMARK       I    between atoms: C16_20  and  C17_21 
REMARK       I    between atoms: C18_22  and  C19_23 
REMARK       I    between atoms: C20_24  and  C21_25 
REMARK       I    between atoms: C22_26  and  C23_27 
REMARK       I    between atoms: C24_28  and  C25_29 
ROOT
HETATM    1  C1  BCR B 617     -48.740 146.700   9.879  1.00 16.64    -0.020 C 
HETATM    2  C2  BCR B 617     -49.979 147.438  10.341  1.00 16.66     0.014 C 
HETATM    3  C3  BCR B 617     -51.053 146.482  10.752  1.00 16.67     0.005 C 
HETATM    4  C4  BCR B 617     -51.446 145.608   9.595  1.00 16.65     0.034 C 
HETATM    5  C5  BCR B 617     -50.271 145.060   8.880  1.00 16.64    -0.077 C 
HETATM    6  C6  BCR B 617     -49.022 145.522   9.003  1.00 16.61    -0.048 C 
HETATM    7  C7  BCR B 617     -47.887 144.953   8.254  1.00 16.52     0.009 C 
HETATM    8  C8  BCR B 617     -47.161 143.921   8.688  1.00 16.42     0.007 C 
HETATM    9  C9  BCR B 617     -45.971 143.429   8.019  1.00 16.35    -0.062 C 
HETATM   10  C10 BCR B 617     -45.363 142.325   8.468  1.00 16.25     0.007 C 
HETATM   11  C11 BCR B 617     -44.405 141.539   7.726  1.00 16.13     0.001 C 
HETATM   12  C33 BCR B 617     -50.620 143.918   8.018  1.00 16.67     0.044 C 
HETATM   13  C31 BCR B 617     -47.991 146.317  11.140  1.00 16.64     0.020 C 
HETATM   14  C32 BCR B 617     -47.906 147.701   9.112  1.00 16.66     0.020 C 
HETATM   15  C34 BCR B 617     -45.439 144.212   6.894  1.00 16.38     0.048 C 
HETATM   16  C12 BCR B 617     -43.584 140.696   8.372  1.00 15.96     0.007 C 
HETATM   17  C13 BCR B 617     -42.696 139.752   7.732  1.00 15.83    -0.062 C 
HETATM   18  C14 BCR B 617     -42.121 138.790   8.472  1.00 15.70     0.007 C 
HETATM   19  C15 BCR B 617     -41.495 137.598   7.957  1.00 15.54     0.001 C 
HETATM   20  C16 BCR B 617     -40.977 136.674   8.781  1.00 15.40     0.001 C 
HETATM   21  C17 BCR B 617     -40.152 135.619   8.243  1.00 15.27     0.007 C 
HETATM   22  C18 BCR B 617     -39.700 134.514   8.855  1.00 15.19    -0.062 C 
HETATM   23  C19 BCR B 617     -38.831 133.614   8.113  1.00 15.12     0.007 C 
HETATM   24  C20 BCR B 617     -38.394 132.445   8.585  1.00 15.10     0.001 C 
HETATM   25  C21 BCR B 617     -37.658 131.569   7.709  1.00 15.07     0.007 C 
HETATM   26  C22 BCR B 617     -37.183 130.346   7.976  1.00 15.07    -0.062 C 
HETATM   27  C23 BCR B 617     -36.156 129.833   7.092  1.00 15.08     0.007 C 
HETATM   28  C24 BCR B 617     -35.884 128.543   6.862  1.00 15.19     0.009 C 
HETATM   29  C25 BCR B 617     -34.755 128.006   6.091  1.00 15.27    -0.048 C 
HETATM   30  C26 BCR B 617     -34.683 128.063   4.750  1.00 15.33    -0.077 C 
HETATM   31  C27 BCR B 617     -33.579 127.535   3.923  1.00 15.37     0.034 C 
HETATM   32  C28 BCR B 617     -32.289 127.474   4.696  1.00 15.36     0.005 C 
HETATM   33  C29 BCR B 617     -32.504 126.822   6.034  1.00 15.31     0.014 C 
HETATM   34  C30 BCR B 617     -33.642 127.357   6.882  1.00 15.29    -0.020 C 
HETATM   35  C35 BCR B 617     -42.319 139.961   6.324  1.00 15.82     0.048 C 
HETATM   36  C36 BCR B 617     -40.121 134.108  10.213  1.00 15.16     0.048 C 
HETATM   37  C37 BCR B 617     -37.822 129.439   8.948  1.00 15.01     0.048 C 
HETATM   38  C38 BCR B 617     -35.706 128.664   3.860  1.00 15.36     0.044 C 
HETATM   39  C39 BCR B 617     -33.093 128.280   7.962  1.00 15.27     0.020 C 
HETATM   40  C40 BCR B 617     -34.135 126.114   7.606  1.00 15.28     0.020 C 
ENDROOT
TORSDOF 10
BEGIN_RES PHE A  61
REMARK  2 active torsions:
REMARK  status: ('A' for Active; 'I' for Inactive)
REMARK    1  A    between atoms: CA   and  CB  
REMARK    2  A    between atoms: CB   and  CG  
ROOT
ATOM      1  CA  PHE A  61     -36.237 128.293  12.768  1.00 39.40     0.164 C 
ENDROOT
BRANCH   1   2
ATOM      2  CB  PHE A  61     -36.813 128.951  11.509  1.00 39.41     0.058 C 
BRANCH   2   3
ATOM      3  CG  PHE A  61     -36.023 130.135  11.007  1.00 39.01    -0.020 A 
ATOM      4  CD2 PHE A  61     -34.799 129.960  10.379  1.00 40.32    -0.004 A 
ATOM      5  CE2 PHE A  61     -34.071 131.051   9.921  1.00 40.20    -0.000 A 
ATOM      6  CZ  PHE A  61     -34.560 132.328  10.080  1.00 40.34    -0.000 A 
ATOM      7  CE1 PHE A  61     -35.775 132.519  10.699  1.00 41.51    -0.000 A 
ATOM      8  CD1 PHE A  61     -36.500 131.429  11.164  1.00 39.94    -0.004 A 
ENDBRANCH   2   3
ENDBRANCH   1   2
END_RES PHE A  61
BEGIN_RES VAL A 134
REMARK  1 active torsions:
REMARK  status: ('A' for Active; 'I' for Inactive)
REMARK    3  A    between atoms: CA   and  CB  
ROOT
ATOM      9  CA  VAL A 134     -29.766 132.051   9.815  1.00 40.75     0.159 C 
ENDROOT
BRANCH   9  10
ATOM     10  CB  VAL A 134     -30.864 132.765   9.009  1.00 40.76     0.029 C 
ATOM     11  CG1 VAL A 134     -31.478 131.823   7.983  1.00 41.76     0.002 C 
ATOM     12  CG2 VAL A 134     -31.936 133.349   9.916  1.00 40.56     0.002 C 
ENDBRANCH   9  10
END_RES VAL A 134
BEGIN_RES TYR A 338
REMARK  3 active torsions:
REMARK  status: ('A' for Active; 'I' for Inactive)
REMARK    4  A    between atoms: CA   and  CB  
REMARK    5  A    between atoms: CB   and  CG  
REMARK    6  A    between atoms: CZ   and  OH  
ROOT
ATOM     13  CA  TYR A 338     -41.631 124.950   6.058  1.00 38.23     0.164 C 
ENDROOT
BRANCH  13  14
ATOM     14  CB  TYR A 338     -41.621 126.456   6.339  1.00 39.15     0.058 C 
BRANCH  14  15
ATOM     15  CG  TYR A 338     -40.463 127.226   5.747  1.00 39.03    -0.020 A 
ATOM     16  CD2 TYR A 338     -40.312 128.577   6.011  1.00 40.65    -0.002 A 
ATOM     17  CE2 TYR A 338     -39.271 129.318   5.472  1.00 40.91     0.024 A 
ATOM     18  CZ  TYR A 338     -38.350 128.705   4.643  1.00 42.33     0.089 A 
ATOM     19  CE1 TYR A 338     -38.477 127.355   4.368  1.00 40.63     0.024 A 
ATOM     20  CD1 TYR A 338     -39.533 126.635   4.907  1.00 39.27    -0.002 A 
BRANCH  18  21
ATOM     21  OH  TYR A 338     -37.317 129.425   4.110  1.00 43.36    -0.359 OA
ATOM     22  HH  TYR A 338     -37.195 130.337   4.346  1.00  0.00     0.217 HD
ENDBRANCH  18  21
ENDBRANCH  14  15
ENDBRANCH  13  14
END_RES TYR A 338
ENDMDL
MODEL 7
REMARK VINA RESULT:    -7.087      1.721     16.412
REMARK INTER + INTRA:          -9.803
REMARK INTER:                  -8.901
REMARK INTRA:                  -0.903
REMARK UNBOUND:                -2.716
REMARK  0 active torsions:
REMARK  status: ('A' for Active; 'I' for Inactive)
REMARK       I    between atoms: C6_6  and  C7_7 
REMARK       I    between atoms: C8_8  and  C9_9 
REMARK       I    between atoms: C10_10  and  C11_11 
REMARK       I    between atoms: C12_16  and  C13_17 
REMARK       I    between atoms: C14_18  and  C15_19 
REMARK       I    between atoms: C16_20  and  C17_21 
REMARK       I    between atoms: C18_22  and  C19_23 
REMARK       I    between atoms: C20_24  and  C21_25 
REMARK       I    between atoms: C22_26  and  C23_27 
REMARK       I    between atoms: C24_28  and  C25_29 
ROOT
HETATM    1  C1  BCR B 617     -50.678 146.558  10.233  1.00 16.64    -0.020 C 
HETATM    2  C2  BCR B 617     -51.188 147.881  10.767  1.00 16.66     0.014 C 
HETATM    3  C3  BCR B 617     -50.320 148.384  11.876  1.00 16.67     0.005 C 
HETATM    4  C4  BCR B 617     -50.306 147.405  13.015  1.00 16.65     0.034 C 
HETATM    5  C5  BCR B 617     -50.102 146.012  12.557  1.00 16.64    -0.077 C 
HETATM    6  C6  BCR B 617     -50.245 145.598  11.294  1.00 16.61    -0.048 C 
HETATM    7  C7  BCR B 617     -50.048 144.194  10.890  1.00 16.52     0.009 C 
HETATM    8  C8  BCR B 617     -48.864 143.687  10.541  1.00 16.42     0.007 C 
HETATM    9  C9  BCR B 617     -48.678 142.342  10.030  1.00 16.35    -0.062 C 
HETATM   10  C10 BCR B 617     -47.443 141.880   9.801  1.00 16.25     0.007 C 
HETATM   11  C11 BCR B 617     -47.088 140.492   9.629  1.00 16.13     0.001 C 
HETATM   12  C33 BCR B 617     -49.698 145.114  13.653  1.00 16.67     0.044 C 
HETATM   13  C31 BCR B 617     -49.559 146.904   9.271  1.00 16.64     0.020 C 
HETATM   14  C32 BCR B 617     -51.815 145.948   9.445  1.00 16.66     0.020 C 
HETATM   15  C34 BCR B 617     -49.877 141.549   9.721  1.00 16.38     0.048 C 
HETATM   16  C12 BCR B 617     -45.928 140.163   9.040  1.00 15.96     0.007 C 
HETATM   17  C13 BCR B 617     -45.396 138.821   8.949  1.00 15.83    -0.062 C 
HETATM   18  C14 BCR B 617     -44.119 138.648   8.574  1.00 15.70     0.007 C 
HETATM   19  C15 BCR B 617     -43.349 137.442   8.750  1.00 15.54     0.001 C 
HETATM   20  C16 BCR B 617     -42.063 137.377   8.372  1.00 15.40     0.001 C 
HETATM   21  C17 BCR B 617     -41.392 136.099   8.338  1.00 15.27     0.007 C 
HETATM   22  C18 BCR B 617     -40.085 135.843   8.173  1.00 15.19    -0.062 C 
HETATM   23  C19 BCR B 617     -39.650 134.456   8.120  1.00 15.12     0.007 C 
HETATM   24  C20 BCR B 617     -38.372 134.081   8.049  1.00 15.10     0.001 C 
HETATM   25  C21 BCR B 617     -38.049 132.680   8.150  1.00 15.07     0.007 C 
HETATM   26  C22 BCR B 617     -36.836 132.113   8.151  1.00 15.07    -0.062 C 
HETATM   27  C23 BCR B 617     -36.775 130.693   7.868  1.00 15.08     0.007 C 
HETATM   28  C24 BCR B 617     -35.813 129.849   8.262  1.00 15.19     0.009 C 
HETATM   29  C25 BCR B 617     -35.656 128.446   7.859  1.00 15.27    -0.048 C 
HETATM   30  C26 BCR B 617     -36.444 127.455   8.311  1.00 15.33    -0.077 C 
HETATM   31  C27 BCR B 617     -36.329 126.028   7.948  1.00 15.37     0.034 C 
HETATM   32  C28 BCR B 617     -35.674 125.851   6.605  1.00 15.36     0.005 C 
HETATM   33  C29 BCR B 617     -34.420 126.676   6.514  1.00 15.31     0.014 C 
HETATM   34  C30 BCR B 617     -34.533 128.139   6.894  1.00 15.29    -0.020 C 
HETATM   35  C35 BCR B 617     -46.306 137.675   9.115  1.00 15.82     0.048 C 
HETATM   36  C36 BCR B 617     -39.049 136.897   8.144  1.00 15.16     0.048 C 
HETATM   37  C37 BCR B 617     -35.635 132.803   8.659  1.00 15.01     0.048 C 
HETATM   38  C38 BCR B 617     -37.570 127.620   9.261  1.00 15.36     0.044 C 
HETATM   39  C39 BCR B 617     -34.610 128.996   5.637  1.00 15.27     0.020 C 
HETATM   40  C40 BCR B 617     -33.177 128.432   7.517  1.00 15.28     0.020 C 
ENDROOT
TORSDOF 10
BEGIN_RES PHE A  61
REMARK  2 active torsions:
REMARK  status: ('A' for Active; 'I' for Inactive)
REMARK    1  A    between atoms: CA   and  CB  
REMARK    2  A    between atoms: CB   and  CG  
ROOT
ATOM      1  CA  PHE A  61     -36.237 128.293  12.768  1.00 39.40     0.164 C 
ENDROOT
BRANCH   1   2
ATOM      2  CB  PHE A  61     -36.813 128.951  11.509  1.00 39.41     0.058 C 
BRANCH   2   3
ATOM      3  CG  PHE A  61     -36.701 130.457  11.485  1.00 39.01    -0.020 A 
ATOM      4  CD2 PHE A  61     -35.463 131.077  11.413  1.00 40.32    -0.004 A 
ATOM      5  CE2 PHE A  61     -35.361 132.462  11.394  1.00 40.20    -0.000 A 
ATOM      6  CZ  PHE A  61     -36.494 133.242  11.442  1.00 40.34    -0.000 A 
ATOM      7  CE1 PHE A  61     -37.731 132.641  11.511  1.00 41.51    -0.000 A 
ATOM      8  CD1 PHE A  61     -37.834 131.256  11.537  1.00 39.94    -0.004 A 
ENDBRANCH   2   3
ENDBRANCH   1   2
END_RES PHE A  61
BEGIN_RES VAL A 134
REMARK  1 active torsions:
REMARK  status: ('A' for Active; 'I' for Inactive)
REMARK    3  A    between atoms: CA   and  CB  
ROOT
ATOM      9  CA  VAL A 134     -29.766 132.051   9.815  1.00 40.75     0.159 C 
ENDROOT
BRANCH   9  10
ATOM     10  CB  VAL A 134     -30.864 132.765   9.009  1.00 40.76     0.029 C 
ATOM     11  CG1 VAL A 134     -31.189 131.992   7.739  1.00 41.76     0.002 C 
ATOM     12  CG2 VAL A 134     -32.117 132.987   9.842  1.00 40.56     0.002 C 
ENDBRANCH   9  10
END_RES VAL A 134
BEGIN_RES TYR A 338
REMARK  3 active torsions:
REMARK  status: ('A' for Active; 'I' for Inactive)
REMARK    4  A    between atoms: CA   and  CB  
REMARK    5  A    between atoms: CB   and  CG  
REMARK    6  A    between atoms: CZ   and  OH  
ROOT
ATOM     13  CA  TYR A 338     -41.631 124.950   6.058  1.00 38.23     0.164 C 
ENDROOT
BRANCH  13  14
ATOM     14  CB  TYR A 338     -41.621 126.456   6.339  1.00 39.15     0.058 C 
BRANCH  14  15
ATOM     15  CG  TYR A 338     -40.384 127.199   5.890  1.00 39.03    -0.020 A 
ATOM     16  CD2 TYR A 338     -40.193 128.523   6.248  1.00 40.65    -0.002 A 
ATOM     17  CE2 TYR A 338     -39.078 129.239   5.840  1.00 40.91     0.024 A 
ATOM     18  CZ  TYR A 338     -38.120 128.629   5.052  1.00 42.33     0.089 A 
ATOM     19  CE1 TYR A 338     -38.287 127.305   4.686  1.00 40.63     0.024 A 
ATOM     20  CD1 TYR A 338     -39.415 126.610   5.092  1.00 39.27    -0.002 A 
BRANCH  18  21
ATOM     21  OH  TYR A 338     -37.015 129.325   4.649  1.00 43.36    -0.359 OA
ATOM     22  HH  TYR A 338     -36.730 129.291   3.743  1.00  0.00     0.217 HD
ENDBRANCH  18  21
ENDBRANCH  14  15
ENDBRANCH  13  14
END_RES TYR A 338
ENDMDL
MODEL 8
REMARK VINA RESULT:    -6.886      2.624     16.175
REMARK INTER + INTRA:          -9.602
REMARK INTER:                  -7.604
REMARK INTRA:                  -1.998
REMARK UNBOUND:                -2.716
REMARK  0 active torsions:
REMARK  status: ('A' for Active; 'I' for Inactive)
REMARK       I    between atoms: C6_6  and  C7_7 
REMARK       I    between atoms: C8_8  and  C9_9 
REMARK       I    between atoms: C10_10  and  C11_11 
REMARK       I    between atoms: C12_16  and  C13_17 
REMARK       I    between atoms: C14_18  and  C15_19 
REMARK       I    between atoms: C16_20  and  C17_21 
REMARK       I    between atoms: C18_22  and  C19_23 
REMARK       I    between atoms: C20_24  and  C21_25 
REMARK       I    between atoms: C22_26  and  C23_27 
REMARK       I    between atoms: C24_28  and  C25_29 
ROOT
HETATM    1  C1  BCR B 617     -46.109 150.168  11.494  1.00 16.64    -0.020 C 
HETATM    2  C2  BCR B 617     -47.007 151.350  11.193  1.00 16.66     0.014 C 
HETATM    3  C3  BCR B 617     -47.534 151.283   9.795  1.00 16.67     0.005 C 
HETATM    4  C4  BCR B 617     -46.402 151.304   8.807  1.00 16.65     0.034 C 
HETATM    5  C5  BCR B 617     -45.314 150.372   9.179  1.00 16.64    -0.077 C 
HETATM    6  C6  BCR B 617     -45.164 149.822  10.389  1.00 16.61    -0.048 C 
HETATM    7  C7  BCR B 617     -44.051 148.912  10.716  1.00 16.52     0.009 C 
HETATM    8  C8  BCR B 617     -44.096 147.593  10.520  1.00 16.42     0.007 C 
HETATM    9  C9  BCR B 617     -43.056 146.675  10.946  1.00 16.35    -0.062 C 
HETATM   10  C10 BCR B 617     -43.134 145.380  10.618  1.00 16.25     0.007 C 
HETATM   11  C11 BCR B 617     -42.042 144.438  10.667  1.00 16.13     0.001 C 
HETATM   12  C33 BCR B 617     -44.406 150.090   8.054  1.00 16.67     0.044 C 
HETATM   13  C31 BCR B 617     -47.038 149.021  11.842  1.00 16.64     0.020 C 
HETATM   14  C32 BCR B 617     -45.318 150.534  12.728  1.00 16.66     0.020 C 
HETATM   15  C34 BCR B 617     -41.971 147.203  11.787  1.00 16.38     0.048 C 
HETATM   16  C12 BCR B 617     -42.292 143.119  10.690  1.00 15.96     0.007 C 
HETATM   17  C13 BCR B 617     -41.289 142.084  10.586  1.00 15.83    -0.062 C 
HETATM   18  C14 BCR B 617     -41.675 140.818  10.359  1.00 15.70     0.007 C 
HETATM   19  C15 BCR B 617     -40.822 139.749   9.905  1.00 15.54     0.001 C 
HETATM   20  C16 BCR B 617     -41.311 138.521   9.672  1.00 15.40     0.001 C 
HETATM   21  C17 BCR B 617     -40.403 137.420   9.453  1.00 15.27     0.007 C 
HETATM   22  C18 BCR B 617     -40.680 136.178   9.028  1.00 15.19    -0.062 C 
HETATM   23  C19 BCR B 617     -39.592 135.217   8.934  1.00 15.12     0.007 C 
HETATM   24  C20 BCR B 617     -39.729 133.985   8.443  1.00 15.10     0.001 C 
HETATM   25  C21 BCR B 617     -38.554 133.170   8.263  1.00 15.07     0.007 C 
HETATM   26  C22 BCR B 617     -38.479 131.938   7.743  1.00 15.07    -0.062 C 
HETATM   27  C23 BCR B 617     -37.276 131.180   8.023  1.00 15.08     0.007 C 
HETATM   28  C24 BCR B 617     -36.773 130.191   7.275  1.00 15.19     0.009 C 
HETATM   29  C25 BCR B 617     -35.646 129.314   7.619  1.00 15.27    -0.048 C 
HETATM   30  C26 BCR B 617     -34.364 129.719   7.604  1.00 15.33    -0.077 C 
HETATM   31  C27 BCR B 617     -33.192 128.882   7.932  1.00 15.37     0.034 C 
HETATM   32  C28 BCR B 617     -33.563 127.747   8.849  1.00 15.36     0.005 C 
HETATM   33  C29 BCR B 617     -34.783 127.032   8.339  1.00 15.31     0.014 C 
HETATM   34  C30 BCR B 617     -35.985 127.889   7.994  1.00 15.29    -0.020 C 
HETATM   35  C35 BCR B 617     -39.885 142.411  10.887  1.00 15.82     0.048 C 
HETATM   36  C36 BCR B 617     -42.016 135.761   8.552  1.00 15.16     0.048 C 
HETATM   37  C37 BCR B 617     -39.427 131.443   6.728  1.00 15.01     0.048 C 
HETATM   38  C38 BCR B 617     -33.899 131.081   7.250  1.00 15.36     0.044 C 
HETATM   39  C39 BCR B 617     -37.009 127.822   9.119  1.00 15.27     0.020 C 
HETATM   40  C40 BCR B 617     -36.604 127.145   6.821  1.00 15.28     0.020 C 
ENDROOT
TORSDOF 10
BEGIN_RES PHE A  61
REMARK  2 active torsions:
REMARK  status: ('A' for Active; 'I' for Inactive)
REMARK    1  A    between atoms: CA   and  CB  
REMARK    2  A    between atoms: CB   and  CG  
ROOT
ATOM      1  CA  PHE A  61     -36.237 128.293  12.768  1.00 39.40     0.164 C 
ENDROOT
BRANCH   1   2
ATOM      2  CB  PHE A  61     -36.813 128.951  11.509  1.00 39.41     0.058 C 
BRANCH   2   3
ATOM      3  CG  PHE A  61     -36.334 130.362  11.268  1.00 39.01    -0.020 A 
ATOM      4  CD2 PHE A  61     -37.187 131.442  11.431  1.00 40.32    -0.004 A 
ATOM      5  CE2 PHE A  61     -36.746 132.740  11.206  1.00 40.20    -0.000 A 
ATOM      6  CZ  PHE A  61     -35.446 132.973  10.818  1.00 40.34    -0.000 A 
ATOM      7  CE1 PHE A  61     -34.584 131.911  10.653  1.00 41.51    -0.000 A 
ATOM      8  CD1 PHE A  61     -35.027 130.613  10.872  1.00 39.94    -0.004 A 
ENDBRANCH   2   3
ENDBRANCH   1   2
END_RES PHE A  61
BEGIN_RES VAL A 134
REMARK  1 active torsions:
REMARK  status: ('A' for Active; 'I' for Inactive)
REMARK    3  A    between atoms: CA   and  CB  
ROOT
ATOM      9  CA  VAL A 134     -29.766 132.051   9.815  1.00 40.75     0.159 C 
ENDROOT
BRANCH   9  10
ATOM     10  CB  VAL A 134     -30.864 132.765   9.009  1.00 40.76     0.029 C 
ATOM     11  CG1 VAL A 134     -31.180 131.998   7.734  1.00 41.76     0.002 C 
ATOM     12  CG2 VAL A 134     -32.121 132.977   9.838  1.00 40.56     0.002 C 
ENDBRANCH   9  10
END_RES VAL A 134
BEGIN_RES TYR A 338
REMARK  3 active torsions:
REMARK  status: ('A' for Active; 'I' for Inactive)
REMARK    4  A    between atoms: CA   and  CB  
REMARK    5  A    between atoms: CB   and  CG  
REMARK    6  A    between atoms: CZ   and  OH  
ROOT
ATOM     13  CA  TYR A 338     -41.631 124.950   6.058  1.00 38.23     0.164 C 
ENDROOT
BRANCH  13  14
ATOM     14  CB  TYR A 338     -41.621 126.456   6.339  1.00 39.15     0.058 C 
BRANCH  14  15
ATOM     15  CG  TYR A 338     -40.448 127.221   5.772  1.00 39.03    -0.020 A 
ATOM     16  CD2 TYR A 338     -39.557 126.602   4.912  1.00 40.65    -0.002 A 
ATOM     17  CE2 TYR A 338     -38.461 127.269   4.385  1.00 40.91     0.024 A 
ATOM     18  CZ  TYR A 338     -38.237 128.591   4.720  1.00 42.33     0.089 A 
ATOM     19  CE1 TYR A 338     -39.116 129.233   5.574  1.00 40.63     0.024 A 
ATOM     20  CD1 TYR A 338     -40.198 128.545   6.100  1.00 39.27    -0.002 A 
BRANCH  18  21
ATOM     21  OH  TYR A 338     -37.162 129.260   4.204  1.00 43.36    -0.359 OA
ATOM     22  HH  TYR A 338     -37.240 130.173   3.954  1.00  0.00     0.217 HD
ENDBRANCH  18  21
ENDBRANCH  14  15
ENDBRANCH  13  14
END_RES TYR A 338
ENDMDL
MODEL 9
REMARK VINA RESULT:    -6.653      1.929      3.037
REMARK INTER + INTRA:          -9.369
REMARK INTER:                  -9.123
REMARK INTRA:                  -0.246
REMARK UNBOUND:                -2.716
REMARK  0 active torsions:
REMARK  status: ('A' for Active; 'I' for Inactive)
REMARK       I    between atoms: C6_6  and  C7_7 
REMARK       I    between atoms: C8_8  and  C9_9 
REMARK       I    between atoms: C10_10  and  C11_11 
REMARK       I    between atoms: C12_16  and  C13_17 
REMARK       I    between atoms: C14_18  and  C15_19 
REMARK       I    between atoms: C16_20  and  C17_21 
REMARK       I    between atoms: C18_22  and  C19_23 
REMARK       I    between atoms: C20_24  and  C21_25 
REMARK       I    between atoms: C22_26  and  C23_27 
REMARK       I    between atoms: C24_28  and  C25_29 
ROOT
HETATM    1  C1  BCR B 617     -33.420 128.298   6.428  1.00 16.64    -0.020 C 
HETATM    2  C2  BCR B 617     -32.826 126.920   6.223  1.00 16.66     0.014 C 
HETATM    3  C3  BCR B 617     -33.787 125.852   6.639  1.00 16.67     0.005 C 
HETATM    4  C4  BCR B 617     -34.127 125.993   8.096  1.00 16.65     0.034 C 
HETATM    5  C5  BCR B 617     -34.445 127.390   8.466  1.00 16.64    -0.077 C 
HETATM    6  C6  BCR B 617     -34.155 128.461   7.719  1.00 16.61    -0.048 C 
HETATM    7  C7  BCR B 617     -34.477 129.836   8.141  1.00 16.52     0.009 C 
HETATM    8  C8  BCR B 617     -35.646 130.428   7.890  1.00 16.42     0.007 C 
HETATM    9  C9  BCR B 617     -35.932 131.818   8.195  1.00 16.35    -0.062 C 
HETATM   10  C10 BCR B 617     -37.164 132.303   8.003  1.00 16.25     0.007 C 
HETATM   11  C11 BCR B 617     -37.677 133.528   8.567  1.00 16.13     0.001 C 
HETATM   12  C33 BCR B 617     -35.148 127.483   9.758  1.00 16.67     0.044 C 
HETATM   13  C31 BCR B 617     -34.305 128.550   5.222  1.00 16.64     0.020 C 
HETATM   14  C32 BCR B 617     -32.266 129.273   6.386  1.00 16.66     0.020 C 
HETATM   15  C34 BCR B 617     -34.821 132.666   8.653  1.00 16.38     0.048 C 
HETATM   16  C12 BCR B 617     -38.758 134.115   8.029  1.00 15.96     0.007 C 
HETATM   17  C13 BCR B 617     -39.450 135.252   8.593  1.00 15.83    -0.062 C 
HETATM   18  C14 BCR B 617     -40.660 135.586   8.114  1.00 15.70     0.007 C 
HETATM   19  C15 BCR B 617     -41.610 136.453   8.764  1.00 15.54     0.001 C 
HETATM   20  C16 BCR B 617     -42.811 136.700   8.220  1.00 15.40     0.001 C 
HETATM   21  C17 BCR B 617     -43.640 137.749   8.764  1.00 15.27     0.007 C 
HETATM   22  C18 BCR B 617     -44.924 138.029   8.491  1.00 15.19    -0.062 C 
HETATM   23  C19 BCR B 617     -45.535 139.182   9.132  1.00 15.12     0.007 C 
HETATM   24  C20 BCR B 617     -46.823 139.505   9.009  1.00 15.10     0.001 C 
HETATM   25  C21 BCR B 617     -47.352 140.584   9.805  1.00 15.07     0.007 C 
HETATM   26  C22 BCR B 617     -48.616 141.023   9.861  1.00 15.07    -0.062 C 
HETATM   27  C23 BCR B 617     -48.828 142.344  10.418  1.00 15.08     0.007 C 
HETATM   28  C24 BCR B 617     -49.950 142.786  10.997  1.00 15.19     0.009 C 
HETATM   29  C25 BCR B 617     -50.235 144.162  11.427  1.00 15.27    -0.048 C 
HETATM   30  C26 BCR B 617     -49.679 144.724  12.515  1.00 15.33    -0.077 C 
HETATM   31  C27 BCR B 617     -49.933 146.096  12.999  1.00 15.37     0.034 C 
HETATM   32  C28 BCR B 617     -50.374 147.004  11.883  1.00 15.36     0.005 C 
HETATM   33  C29 BCR B 617     -51.467 146.359  11.077  1.00 15.31     0.014 C 
HETATM   34  C30 BCR B 617     -51.213 144.947  10.585  1.00 15.29    -0.020 C 
HETATM   35  C35 BCR B 617     -38.751 136.109   9.565  1.00 15.82     0.048 C 
HETATM   36  C36 BCR B 617     -45.782 137.165   7.653  1.00 15.16     0.048 C 
HETATM   37  C37 BCR B 617     -49.776 140.144   9.620  1.00 15.01     0.048 C 
HETATM   38  C38 BCR B 617     -48.715 144.062  13.425  1.00 15.36     0.044 C 
HETATM   39  C39 BCR B 617     -50.810 144.976   9.116  1.00 15.27     0.020 C 
HETATM   40  C40 BCR B 617     -52.599 144.322  10.625  1.00 15.28     0.020 C 
ENDROOT
TORSDOF 10
BEGIN_RES PHE A  61
REMARK  2 active torsions:
REMARK  status: ('A' for Active; 'I' for Inactive)
REMARK    1  A    between atoms: CA   and  CB  
REMARK    2  A    between atoms: CB   and  CG  
ROOT
ATOM      1  CA  PHE A  61     -36.237 128.293  12.768  1.00 39.40     0.164 C 
ENDROOT
BRANCH   1   2
ATOM      2  CB  PHE A  61     -36.813 128.951  11.509  1.00 39.41     0.058 C 
BRANCH   2   3
ATOM      3  CG  PHE A  61     -36.746 130.459  11.507  1.00 39.01    -0.020 A 
ATOM      4  CD2 PHE A  61     -37.899 131.223  11.408  1.00 40.32    -0.004 A 
ATOM      5  CE2 PHE A  61     -37.836 132.611  11.403  1.00 40.20    -0.000 A 
ATOM      6  CZ  PHE A  61     -36.621 133.250  11.501  1.00 40.34    -0.000 A 
ATOM      7  CE1 PHE A  61     -35.467 132.506  11.603  1.00 41.51    -0.000 A 
ATOM      8  CD1 PHE A  61     -35.529 131.119  11.601  1.00 39.94    -0.004 A 
ENDBRANCH   2   3
ENDBRANCH   1   2
END_RES PHE A  61
BEGIN_RES VAL A 134
REMARK  1 active torsions:
REMARK  status: ('A' for Active; 'I' for Inactive)
REMARK    3  A    between atoms: CA   and  CB  
ROOT
ATOM      9  CA  VAL A 134     -29.766 132.051   9.815  1.00 40.75     0.159 C 
ENDROOT
BRANCH   9  10
ATOM     10  CB  VAL A 134     -30.864 132.765   9.009  1.00 40.76     0.029 C 
ATOM     11  CG1 VAL A 134     -31.219 131.970   7.761  1.00 41.76     0.002 C 
ATOM     12  CG2 VAL A 134     -32.102 133.025   9.854  1.00 40.56     0.002 C 
ENDBRANCH   9  10
END_RES VAL A 134
BEGIN_RES TYR A 338
REMARK  3 active torsions:
REMARK  status: ('A' for Active; 'I' for Inactive)
REMARK    4  A    between atoms: CA   and  CB  
REMARK    5  A    between atoms: CB   and  CG  
REMARK    6  A    between atoms: CZ   and  OH  
ROOT
ATOM     13  CA  TYR A 338     -41.631 124.950   6.058  1.00 38.23     0.164 C 
ENDROOT
BRANCH  13  14
ATOM     14  CB  TYR A 338     -41.621 126.456   6.339  1.00 39.15     0.058 C 
BRANCH  14  15
ATOM     15  CG  TYR A 338     -40.377 127.196   5.903  1.00 39.03    -0.020 A 
ATOM     16  CD2 TYR A 338     -40.122 128.474   6.373  1.00 40.65    -0.002 A 
ATOM     17  CE2 TYR A 338     -39.000 129.188   5.982  1.00 40.91     0.024 A 
ATOM     18  CZ  TYR A 338     -38.100 128.623   5.097  1.00 42.33     0.089 A 
ATOM     19  CE1 TYR A 338     -38.331 127.346   4.618  1.00 40.63     0.024 A 
ATOM     20  CD1 TYR A 338     -39.467 126.653   5.011  1.00 39.27    -0.002 A 
BRANCH  18  21
ATOM     21  OH  TYR A 338     -36.988 129.316   4.709  1.00 43.36    -0.359 OA
ATOM     22  HH  TYR A 338     -36.156 128.870   4.603  1.00  0.00     0.217 HD
ENDBRANCH  18  21
ENDBRANCH  14  15
ENDBRANCH  13  14
END_RES TYR A 338
ENDMDL
