MODEL 1
REMARK VINA RESULT:   -11.371      0.000      0.000
REMARK INTER + INTRA:         -14.158
REMARK INTER:                 -11.371
REMARK INTRA:                  -2.787
REMARK UNBOUND:                -2.787
REMARK  0 active torsions:
REMARK  status: ('A' for Active; 'I' for Inactive)
REMARK       I    between atoms: C6_6  and  C7_7 
REMARK       I    between atoms: C8_8  and  C9_9 
REMARK       I    between atoms: C10_10  and  C11_11 
REMARK       I    between atoms: C12_16  and  C13_17 
REMARK       I    between atoms: C14_18  and  C15_19 
REMARK       I    between atoms: C16_20  and  C17_21 
REMARK       I    between atoms: C18_22  and  C19_23 
REMARK       I    between atoms: C20_24  and  C21_25 
REMARK       I    between atoms: C22_26  and  C23_27 
REMARK       I    between atoms: C24_28  and  C25_29 
ROOT
HETATM    1  C1  BCR D 406     -49.620 146.348   9.237  1.00 34.32    -0.020 C 
HETATM    2  C2  BCR D 406     -51.056 146.528   9.720  1.00 36.65     0.014 C 
HETATM    3  C3  BCR D 406     -51.536 145.803  10.899  1.00 27.32     0.005 C 
HETATM    4  C4  BCR D 406     -51.168 144.317  10.742  1.00 23.31     0.034 C 
HETATM    5  C5  BCR D 406     -49.920 143.996   9.996  1.00 29.15    -0.077 C 
HETATM    6  C6  BCR D 406     -49.213 144.921   9.281  1.00 28.11    -0.048 C 
HETATM    7  C7  BCR D 406     -47.989 144.512   8.512  1.00 27.31     0.009 C 
HETATM    8  C8  BCR D 406     -47.023 143.719   9.078  1.00 25.87     0.007 C 
HETATM    9  C9  BCR D 406     -45.817 143.338   8.302  1.00 25.23    -0.062 C 
HETATM   10  C10 BCR D 406     -44.928 142.471   8.848  1.00 26.35     0.007 C 
HETATM   11  C11 BCR D 406     -43.733 141.904   8.185  1.00 25.76     0.001 C 
HETATM   12  C33 BCR D 406     -49.632 142.523   9.916  1.00 29.35     0.044 C 
HETATM   13  C31 BCR D 406     -48.580 147.167  10.047  1.00 43.12     0.020 C 
HETATM   14  C32 BCR D 406     -49.696 146.987   7.867  1.00 36.56     0.020 C 
HETATM   15  C34 BCR D 406     -45.700 143.823   6.886  1.00 31.19     0.048 C 
HETATM   16  C12 BCR D 406     -43.058 140.937   8.871  1.00 26.79     0.007 C 
HETATM   17  C13 BCR D 406     -41.905 140.161   8.371  1.00 28.80    -0.062 C 
HETATM   18  C14 BCR D 406     -41.307 139.204   9.178  1.00 26.58     0.007 C 
HETATM   19  C15 BCR D 406     -40.248 138.282   8.793  1.00 25.31     0.001 C 
HETATM   20  C16 BCR D 406     -39.871 137.290   9.633  1.00 28.29     0.001 C 
HETATM   21  C17 BCR D 406     -38.897 136.325   9.174  1.00 27.45     0.007 C 
HETATM   22  C18 BCR D 406     -38.496 135.209   9.851  1.00 25.52    -0.062 C 
HETATM   23  C19 BCR D 406     -37.561 134.288   9.145  1.00 27.83     0.007 C 
HETATM   24  C20 BCR D 406     -37.153 133.083   9.638  1.00 27.64     0.001 C 
HETATM   25  C21 BCR D 406     -36.288 132.292   8.803  1.00 25.60     0.007 C 
HETATM   26  C22 BCR D 406     -35.827 131.072   9.111  1.00 28.71    -0.062 C 
HETATM   27  C23 BCR D 406     -34.961 130.444   8.120  1.00 39.72     0.007 C 
HETATM   28  C24 BCR D 406     -34.422 129.228   8.281  1.00 52.86     0.009 C 
HETATM   29  C25 BCR D 406     -33.559 128.557   7.233  1.00 59.77    -0.048 C 
HETATM   30  C26 BCR D 406     -32.719 129.181   6.338  1.00 62.92    -0.077 C 
HETATM   31  C27 BCR D 406     -32.171 128.488   5.085  1.00 65.12     0.034 C 
HETATM   32  C28 BCR D 406     -32.735 127.096   4.807  1.00 55.08     0.005 C 
HETATM   33  C29 BCR D 406     -32.888 126.394   6.130  1.00 51.89     0.014 C 
HETATM   34  C30 BCR D 406     -33.832 127.123   7.058  1.00 47.10    -0.020 C 
HETATM   35  C35 BCR D 406     -41.527 140.427   6.925  1.00 28.96     0.048 C 
HETATM   36  C36 BCR D 406     -39.004 134.874  11.233  1.00 29.06     0.048 C 
HETATM   37  C37 BCR D 406     -36.061 130.532  10.483  1.00 30.82     0.048 C 
HETATM   38  C38 BCR D 406     -32.175 130.588   6.528  1.00 60.49     0.044 C 
HETATM   39  C39 BCR D 406     -33.662 126.372   8.362  1.00 46.30     0.020 C 
HETATM   40  C40 BCR D 406     -35.243 127.236   6.408  1.00 54.93     0.020 C 
ENDROOT
TORSDOF 10
BEGIN_RES PHE A  61
REMARK  2 active torsions:
REMARK  status: ('A' for Active; 'I' for Inactive)
REMARK    1  A    between atoms: CA   and  CB  
REMARK    2  A    between atoms: CB   and  CG  
ROOT
ATOM      1  CA  PHE A  61     -36.237 128.293  12.768  1.00 39.40     0.164 C 
ENDROOT
BRANCH   1   2
ATOM      2  CB  PHE A  61     -36.813 128.951  11.509  1.00 39.41     0.058 C 
BRANCH   2   3
ATOM      3  CG  PHE A  61     -37.052 127.999  10.361  1.00 39.01    -0.020 A 
ATOM      4  CD2 PHE A  61     -36.332 126.820  10.253  1.00 40.32    -0.004 A 
ATOM      5  CE2 PHE A  61     -36.551 125.947   9.195  1.00 40.20    -0.000 A 
ATOM      6  CZ  PHE A  61     -37.493 126.241   8.236  1.00 40.34    -0.000 A 
ATOM      7  CE1 PHE A  61     -38.219 127.408   8.330  1.00 41.51    -0.000 A 
ATOM      8  CD1 PHE A  61     -37.996 128.284   9.385  1.00 39.94    -0.004 A 
ENDBRANCH   2   3
ENDBRANCH   1   2
END_RES PHE A  61
BEGIN_RES VAL A 134
REMARK  1 active torsions:
REMARK  status: ('A' for Active; 'I' for Inactive)
REMARK    3  A    between atoms: CA   and  CB  
ROOT
ATOM      9  CA  VAL A 134     -29.766 132.051   9.815  1.00 40.75     0.159 C 
ENDROOT
BRANCH   9  10
ATOM     10  CB  VAL A 134     -30.864 132.765   9.009  1.00 40.76     0.029 C 
ATOM     11  CG1 VAL A 134     -30.841 132.317   7.555  1.00 41.76     0.002 C 
ATOM     12  CG2 VAL A 134     -32.240 132.548   9.620  1.00 40.56     0.002 C 
ENDBRANCH   9  10
END_RES VAL A 134
BEGIN_RES TYR A 338
REMARK  3 active torsions:
REMARK  status: ('A' for Active; 'I' for Inactive)
REMARK    4  A    between atoms: CA   and  CB  
REMARK    5  A    between atoms: CB   and  CG  
REMARK    6  A    between atoms: CZ   and  OH  
ROOT
ATOM     13  CA  TYR A 338     -41.631 124.950   6.058  1.00 38.23     0.164 C 
ENDROOT
BRANCH  13  14
ATOM     14  CB  TYR A 338     -41.621 126.456   6.339  1.00 39.15     0.058 C 
BRANCH  14  15
ATOM     15  CG  TYR A 338     -40.403 127.207   5.850  1.00 39.03    -0.020 A 
ATOM     16  CD2 TYR A 338     -40.229 128.542   6.170  1.00 40.65    -0.002 A 
ATOM     17  CE2 TYR A 338     -39.133 129.266   5.726  1.00 40.91     0.024 A 
ATOM     18  CZ  TYR A 338     -38.177 128.650   4.939  1.00 42.33     0.089 A 
ATOM     19  CE1 TYR A 338     -38.327 127.314   4.610  1.00 40.63     0.024 A 
ATOM     20  CD1 TYR A 338     -39.437 126.612   5.054  1.00 39.27    -0.002 A 
BRANCH  18  21
ATOM     21  OH  TYR A 338     -37.090 129.352   4.499  1.00 43.36    -0.359 OA
ATOM     22  HH  TYR A 338     -37.157 129.914   3.736  1.00  0.00     0.217 HD
ENDBRANCH  18  21
ENDBRANCH  14  15
ENDBRANCH  13  14
END_RES TYR A 338
ENDMDL
