MODEL 1
REMARK VINA RESULT:   -10.346      0.000      0.000
REMARK INTER + INTRA:         -12.929
REMARK INTER:                 -10.346
REMARK INTRA:                  -2.583
REMARK UNBOUND:                -2.583
REMARK  0 active torsions:
REMARK  status: ('A' for Active; 'I' for Inactive)
REMARK       I    between atoms: C6_6  and  C7_7 
REMARK       I    between atoms: C8_8  and  C9_9 
REMARK       I    between atoms: C10_10  and  C11_11 
REMARK       I    between atoms: C12_16  and  C13_17 
REMARK       I    between atoms: C14_18  and  C15_19 
REMARK       I    between atoms: C16_20  and  C17_21 
REMARK       I    between atoms: C18_22  and  C19_23 
REMARK       I    between atoms: C20_24  and  C21_25 
REMARK       I    between atoms: C22_26  and  C23_27 
REMARK       I    between atoms: C24_28  and  C25_29 
ROOT
HETATM    1  C1  BCR C 515     -48.918 147.883   9.988  1.00 64.45    -0.020 C 
HETATM    2  C2  BCR C 515     -50.069 148.682  10.577  1.00 66.34     0.014 C 
HETATM    3  C3  BCR C 515     -50.751 147.889  11.677  1.00 64.94     0.005 C 
HETATM    4  C4  BCR C 515     -51.412 146.671  11.060  1.00 69.15     0.034 C 
HETATM    5  C5  BCR C 515     -50.423 145.885  10.224  1.00 67.88    -0.077 C 
HETATM    6  C6  BCR C 515     -49.291 146.433   9.732  1.00 62.48    -0.048 C 
HETATM    7  C7  BCR C 515     -48.371 145.603   8.909  1.00 58.32     0.009 C 
HETATM    8  C8  BCR C 515     -47.477 144.752   9.427  1.00 62.07     0.007 C 
HETATM    9  C9  BCR C 515     -46.605 143.947   8.541  1.00 70.38    -0.062 C 
HETATM   10  C10 BCR C 515     -45.892 142.933   9.069  1.00 58.20     0.007 C 
HETATM   11  C11 BCR C 515     -44.999 142.052   8.308  1.00 74.05     0.001 C 
HETATM   12  C33 BCR C 515     -50.764 144.445   9.952  1.00 58.01     0.044 C 
HETATM   13  C31 BCR C 515     -47.763 147.942  10.978  1.00 56.77     0.020 C 
HETATM   14  C32 BCR C 515     -48.499 148.509   8.663  1.00 77.72     0.020 C 
HETATM   15  C34 BCR C 515     -46.541 144.267   7.073  1.00 64.61     0.048 C 
HETATM   16  C12 BCR C 515     -44.315 141.107   8.970  1.00 68.22     0.007 C 
HETATM   17  C13 BCR C 515     -43.394 140.157   8.306  1.00 69.92    -0.062 C 
HETATM   18  C14 BCR C 515     -42.755 139.231   9.049  1.00 61.13     0.007 C 
HETATM   19  C15 BCR C 515     -41.836 138.258   8.446  1.00 67.07     0.001 C 
HETATM   20  C16 BCR C 515     -41.331 137.243   9.152  1.00 65.97     0.001 C 
HETATM   21  C17 BCR C 515     -40.413 136.291   8.521  1.00 63.92     0.007 C 
HETATM   22  C18 BCR C 515     -39.722 135.386   9.243  1.00 72.24    -0.062 C 
HETATM   23  C19 BCR C 515     -38.786 134.457   8.567  1.00 72.11     0.007 C 
HETATM   24  C20 BCR C 515     -37.995 133.620   9.245  1.00 62.37     0.001 C 
HETATM   25  C21 BCR C 515     -37.083 132.772   8.477  1.00 64.97     0.007 C 
HETATM   26  C22 BCR C 515     -36.045 132.101   9.020  1.00 64.05    -0.062 C 
HETATM   27  C23 BCR C 515     -35.282 131.374   8.183  1.00 66.35     0.007 C 
HETATM   28  C24 BCR C 515     -34.356 130.471   8.530  1.00 62.33     0.009 C 
HETATM   29  C25 BCR C 515     -33.585 129.702   7.506  1.00 72.77    -0.048 C 
HETATM   30  C26 BCR C 515     -34.188 128.801   6.699  1.00 78.06    -0.077 C 
HETATM   31  C27 BCR C 515     -33.442 127.999   5.653  1.00 80.00     0.034 C 
HETATM   32  C28 BCR C 515     -32.088 128.602   5.333  1.00 71.02     0.005 C 
HETATM   33  C29 BCR C 515     -31.375 128.860   6.644  1.00 72.75     0.014 C 
HETATM   34  C30 BCR C 515     -32.094 129.960   7.404  1.00 66.18    -0.020 C 
HETATM   35  C35 BCR C 515     -43.180 140.211   6.819  1.00 51.91     0.048 C 
HETATM   36  C36 BCR C 515     -39.862 135.341  10.738  1.00 60.56     0.048 C 
HETATM   37  C37 BCR C 515     -35.773 132.157  10.497  1.00 49.66     0.048 C 
HETATM   38  C38 BCR C 515     -35.661 128.522   6.784  1.00 83.49     0.044 C 
HETATM   39  C39 BCR C 515     -31.877 131.284   6.682  1.00 61.85     0.020 C 
HETATM   40  C40 BCR C 515     -31.518 130.011   8.811  1.00 69.80     0.020 C 
ENDROOT
TORSDOF 10
BEGIN_RES PHE A  61
REMARK  2 active torsions:
REMARK  status: ('A' for Active; 'I' for Inactive)
REMARK    1  A    between atoms: CA   and  CB  
REMARK    2  A    between atoms: CB   and  CG  
ROOT
ATOM      1  CA  PHE A  61     -36.237 128.293  12.768  1.00 39.40     0.164 C 
ENDROOT
BRANCH   1   2
ATOM      2  CB  PHE A  61     -36.813 128.951  11.509  1.00 39.41     0.058 C 
BRANCH   2   3
ATOM      3  CG  PHE A  61     -36.848 128.053  10.296  1.00 39.01    -0.020 A 
ATOM      4  CD2 PHE A  61     -37.937 128.057   9.438  1.00 40.32    -0.004 A 
ATOM      5  CE2 PHE A  61     -37.969 127.228   8.324  1.00 40.20    -0.000 A 
ATOM      6  CZ  PHE A  61     -36.913 126.388   8.053  1.00 40.34    -0.000 A 
ATOM      7  CE1 PHE A  61     -35.822 126.374   8.894  1.00 41.51    -0.000 A 
ATOM      8  CD1 PHE A  61     -35.793 127.198  10.012  1.00 39.94    -0.004 A 
ENDBRANCH   2   3
ENDBRANCH   1   2
END_RES PHE A  61
BEGIN_RES VAL A 134
REMARK  1 active torsions:
REMARK  status: ('A' for Active; 'I' for Inactive)
REMARK    3  A    between atoms: CA   and  CB  
ROOT
ATOM      9  CA  VAL A 134     -29.766 132.051   9.815  1.00 40.75     0.159 C 
ENDROOT
BRANCH   9  10
ATOM     10  CB  VAL A 134     -30.864 132.765   9.009  1.00 40.76     0.029 C 
ATOM     11  CG1 VAL A 134     -32.102 132.987   9.866  1.00 41.76     0.002 C 
ATOM     12  CG2 VAL A 134     -30.367 134.079   8.426  1.00 40.56     0.002 C 
ENDBRANCH   9  10
END_RES VAL A 134
BEGIN_RES TYR A 338
REMARK  3 active torsions:
REMARK  status: ('A' for Active; 'I' for Inactive)
REMARK    4  A    between atoms: CA   and  CB  
REMARK    5  A    between atoms: CB   and  CG  
REMARK    6  A    between atoms: CZ   and  OH  
ROOT
ATOM     13  CA  TYR A 338     -41.631 124.950   6.058  1.00 38.23     0.164 C 
ENDROOT
BRANCH  13  14
ATOM     14  CB  TYR A 338     -41.621 126.456   6.339  1.00 39.15     0.058 C 
BRANCH  14  15
ATOM     15  CG  TYR A 338     -40.413 127.210   5.832  1.00 39.03    -0.020 A 
ATOM     16  CD2 TYR A 338     -40.257 128.556   6.116  1.00 40.65    -0.002 A 
ATOM     17  CE2 TYR A 338     -39.170 129.282   5.654  1.00 40.91     0.024 A 
ATOM     18  CZ  TYR A 338     -38.206 128.659   4.884  1.00 42.33     0.089 A 
ATOM     19  CE1 TYR A 338     -38.338 127.314   4.591  1.00 40.63     0.024 A 
ATOM     20  CD1 TYR A 338     -39.439 126.608   5.051  1.00 39.27    -0.002 A 
BRANCH  18  21
ATOM     21  OH  TYR A 338     -37.128 129.365   4.427  1.00 43.36    -0.359 OA
ATOM     22  HH  TYR A 338     -36.633 129.054   3.678  1.00  0.00     0.217 HD
ENDBRANCH  18  21
ENDBRANCH  14  15
ENDBRANCH  13  14
END_RES TYR A 338
ENDMDL
MODEL 2
REMARK VINA RESULT:    -8.942      2.192     16.314
REMARK INTER + INTRA:         -11.525
REMARK INTER:                  -8.154
REMARK INTRA:                  -3.371
REMARK UNBOUND:                -2.583
REMARK  0 active torsions:
REMARK  status: ('A' for Active; 'I' for Inactive)
REMARK       I    between atoms: C6_6  and  C7_7 
REMARK       I    between atoms: C8_8  and  C9_9 
REMARK       I    between atoms: C10_10  and  C11_11 
REMARK       I    between atoms: C12_16  and  C13_17 
REMARK       I    between atoms: C14_18  and  C15_19 
REMARK       I    between atoms: C16_20  and  C17_21 
REMARK       I    between atoms: C18_22  and  C19_23 
REMARK       I    between atoms: C20_24  and  C21_25 
REMARK       I    between atoms: C22_26  and  C23_27 
REMARK       I    between atoms: C24_28  and  C25_29 
ROOT
HETATM    1  C1  BCR C 515     -36.676 127.503   8.636  1.00 64.45    -0.020 C 
HETATM    2  C2  BCR C 515     -35.598 126.432   8.627  1.00 66.34     0.014 C 
HETATM    3  C3  BCR C 515     -34.235 127.056   8.857  1.00 64.94     0.005 C 
HETATM    4  C4  BCR C 515     -33.898 127.940   7.672  1.00 69.15     0.034 C 
HETATM    5  C5  BCR C 515     -35.015 128.927   7.400  1.00 67.88    -0.077 C 
HETATM    6  C6  BCR C 515     -36.278 128.731   7.833  1.00 62.48    -0.048 C 
HETATM    7  C7  BCR C 515     -37.327 129.738   7.519  1.00 58.32     0.009 C 
HETATM    8  C8  BCR C 515     -37.497 130.871   8.211  1.00 62.07     0.007 C 
HETATM    9  C9  BCR C 515     -38.555 131.834   7.828  1.00 70.38    -0.062 C 
HETATM   10  C10 BCR C 515     -38.551 133.064   8.377  1.00 58.20     0.007 C 
HETATM   11  C11 BCR C 515     -39.531 134.116   8.081  1.00 74.05     0.001 C 
HETATM   12  C33 BCR C 515     -34.653 130.153   6.607  1.00 58.01     0.044 C 
HETATM   13  C31 BCR C 515     -36.916 127.903  10.085  1.00 56.77     0.020 C 
HETATM   14  C32 BCR C 515     -37.955 126.934   8.035  1.00 77.72     0.020 C 
HETATM   15  C34 BCR C 515     -39.601 131.427   6.827  1.00 64.61     0.048 C 
HETATM   16  C12 BCR C 515     -39.433 135.283   8.735  1.00 68.22     0.007 C 
HETATM   17  C13 BCR C 515     -40.357 136.418   8.511  1.00 69.92    -0.062 C 
HETATM   18  C14 BCR C 515     -40.179 137.560   9.205  1.00 61.13     0.007 C 
HETATM   19  C15 BCR C 515     -41.059 138.721   9.021  1.00 67.07     0.001 C 
HETATM   20  C16 BCR C 515     -40.786 139.900   9.584  1.00 65.97     0.001 C 
HETATM   21  C17 BCR C 515     -41.687 141.038   9.384  1.00 63.92     0.007 C 
HETATM   22  C18 BCR C 515     -41.565 142.176  10.099  1.00 72.24    -0.062 C 
HETATM   23  C19 BCR C 515     -42.512 143.294   9.880  1.00 72.11     0.007 C 
HETATM   24  C20 BCR C 515     -42.506 144.395  10.637  1.00 62.37     0.001 C 
HETATM   25  C21 BCR C 515     -43.510 145.421  10.355  1.00 64.97     0.007 C 
HETATM   26  C22 BCR C 515     -43.806 146.432  11.199  1.00 64.05    -0.062 C 
HETATM   27  C23 BCR C 515     -44.766 147.291  10.810  1.00 66.35     0.007 C 
HETATM   28  C24 BCR C 515     -45.058 148.469  11.376  1.00 62.33     0.009 C 
HETATM   29  C25 BCR C 515     -46.136 149.355  10.838  1.00 72.77    -0.048 C 
HETATM   30  C26 BCR C 515     -46.026 149.943   9.626  1.00 78.06    -0.077 C 
HETATM   31  C27 BCR C 515     -47.093 150.849   9.046  1.00 80.00     0.034 C 
HETATM   32  C28 BCR C 515     -48.423 150.686   9.756  1.00 71.02     0.005 C 
HETATM   33  C29 BCR C 515     -48.169 150.782  11.245  1.00 72.75     0.014 C 
HETATM   34  C30 BCR C 515     -47.363 149.580  11.701  1.00 66.18    -0.020 C 
HETATM   35  C35 BCR C 515     -41.476 136.308   7.513  1.00 51.91     0.048 C 
HETATM   36  C36 BCR C 515     -40.498 142.301  11.148  1.00 60.56     0.048 C 
HETATM   37  C37 BCR C 515     -43.077 146.594  12.503  1.00 49.66     0.048 C 
HETATM   38  C38 BCR C 515     -44.820 149.741   8.753  1.00 83.49     0.044 C 
HETATM   39  C39 BCR C 515     -48.243 148.339  11.631  1.00 61.85     0.020 C 
HETATM   40  C40 BCR C 515     -46.904 149.836  13.128  1.00 69.80     0.020 C 
ENDROOT
TORSDOF 10
BEGIN_RES PHE A  61
REMARK  2 active torsions:
REMARK  status: ('A' for Active; 'I' for Inactive)
REMARK    1  A    between atoms: CA   and  CB  
REMARK    2  A    between atoms: CB   and  CG  
ROOT
ATOM      1  CA  PHE A  61     -36.237 128.293  12.768  1.00 39.40     0.164 C 
ENDROOT
BRANCH   1   2
ATOM      2  CB  PHE A  61     -36.813 128.951  11.509  1.00 39.41     0.058 C 
BRANCH   2   3
ATOM      3  CG  PHE A  61     -36.120 130.229  11.100  1.00 39.01    -0.020 A 
ATOM      4  CD2 PHE A  61     -34.823 130.210  10.613  1.00 40.32    -0.004 A 
ATOM      5  CE2 PHE A  61     -34.185 131.387  10.240  1.00 40.20    -0.000 A 
ATOM      6  CZ  PHE A  61     -34.838 132.593  10.346  1.00 40.34    -0.000 A 
ATOM      7  CE1 PHE A  61     -36.128 132.629  10.826  1.00 41.51    -0.000 A 
ATOM      8  CD1 PHE A  61     -36.764 131.453  11.205  1.00 39.94    -0.004 A 
ENDBRANCH   2   3
ENDBRANCH   1   2
END_RES PHE A  61
BEGIN_RES VAL A 134
REMARK  1 active torsions:
REMARK  status: ('A' for Active; 'I' for Inactive)
REMARK    3  A    between atoms: CA   and  CB  
ROOT
ATOM      9  CA  VAL A 134     -29.766 132.051   9.815  1.00 40.75     0.159 C 
ENDROOT
BRANCH   9  10
ATOM     10  CB  VAL A 134     -30.864 132.765   9.009  1.00 40.76     0.029 C 
ATOM     11  CG1 VAL A 134     -31.483 131.821   7.989  1.00 41.76     0.002 C 
ATOM     12  CG2 VAL A 134     -31.932 133.355   9.916  1.00 40.56     0.002 C 
ENDBRANCH   9  10
END_RES VAL A 134
BEGIN_RES TYR A 338
REMARK  3 active torsions:
REMARK  status: ('A' for Active; 'I' for Inactive)
REMARK    4  A    between atoms: CA   and  CB  
REMARK    5  A    between atoms: CB   and  CG  
REMARK    6  A    between atoms: CZ   and  OH  
ROOT
ATOM     13  CA  TYR A 338     -41.631 124.950   6.058  1.00 38.23     0.164 C 
ENDROOT
BRANCH  13  14
ATOM     14  CB  TYR A 338     -41.621 126.456   6.339  1.00 39.15     0.058 C 
BRANCH  14  15
ATOM     15  CG  TYR A 338     -40.441 127.219   5.783  1.00 39.03    -0.020 A 
ATOM     16  CD2 TYR A 338     -39.409 126.549   5.149  1.00 40.65    -0.002 A 
ATOM     17  CE2 TYR A 338     -38.304 127.216   4.641  1.00 40.91     0.024 A 
ATOM     18  CZ  TYR A 338     -38.215 128.589   4.765  1.00 42.33     0.089 A 
ATOM     19  CE1 TYR A 338     -39.236 129.282   5.390  1.00 40.63     0.024 A 
ATOM     20  CD1 TYR A 338     -40.326 128.596   5.903  1.00 39.27    -0.002 A 
BRANCH  18  21
ATOM     21  OH  TYR A 338     -37.132 129.257   4.264  1.00 43.36    -0.359 OA
ATOM     22  HH  TYR A 338     -36.772 130.004   4.727  1.00  0.00     0.217 HD
ENDBRANCH  18  21
ENDBRANCH  14  15
ENDBRANCH  13  14
END_RES TYR A 338
ENDMDL
MODEL 3
REMARK VINA RESULT:    -8.408      0.633     16.364
REMARK INTER + INTRA:         -10.991
REMARK INTER:                  -8.508
REMARK INTRA:                  -2.483
REMARK UNBOUND:                -2.583
REMARK  0 active torsions:
REMARK  status: ('A' for Active; 'I' for Inactive)
REMARK       I    between atoms: C6_6  and  C7_7 
REMARK       I    between atoms: C8_8  and  C9_9 
REMARK       I    between atoms: C10_10  and  C11_11 
REMARK       I    between atoms: C12_16  and  C13_17 
REMARK       I    between atoms: C14_18  and  C15_19 
REMARK       I    between atoms: C16_20  and  C17_21 
REMARK       I    between atoms: C18_22  and  C19_23 
REMARK       I    between atoms: C20_24  and  C21_25 
REMARK       I    between atoms: C22_26  and  C23_27 
REMARK       I    between atoms: C24_28  and  C25_29 
ROOT
HETATM    1  C1  BCR C 515     -32.277 129.923   7.561  1.00 64.45    -0.020 C 
HETATM    2  C2  BCR C 515     -31.446 128.865   6.854  1.00 66.34     0.014 C 
HETATM    3  C3  BCR C 515     -32.063 128.525   5.510  1.00 64.94     0.005 C 
HETATM    4  C4  BCR C 515     -33.403 127.856   5.745  1.00 69.15     0.034 C 
HETATM    5  C5  BCR C 515     -34.275 128.700   6.653  1.00 67.88    -0.077 C 
HETATM    6  C6  BCR C 515     -33.767 129.637   7.481  1.00 62.48    -0.048 C 
HETATM    7  C7  BCR C 515     -34.683 130.421   8.353  1.00 58.32     0.009 C 
HETATM    8  C8  BCR C 515     -35.380 131.483   7.931  1.00 62.07     0.007 C 
HETATM    9  C9  BCR C 515     -36.284 132.204   8.856  1.00 70.38    -0.062 C 
HETATM   10  C10 BCR C 515     -37.149 133.106   8.354  1.00 58.20     0.007 C 
HETATM   11  C11 BCR C 515     -38.106 133.883   9.152  1.00 74.05     0.001 C 
HETATM   12  C33 BCR C 515     -35.756 128.440   6.598  1.00 58.01     0.044 C 
HETATM   13  C31 BCR C 515     -31.982 131.261   6.897  1.00 56.77     0.020 C 
HETATM   14  C32 BCR C 515     -31.879 129.974   9.031  1.00 77.72     0.020 C 
HETATM   15  C34 BCR C 515     -36.231 131.905  10.329  1.00 64.61     0.048 C 
HETATM   16  C12 BCR C 515     -38.880 134.782   8.526  1.00 68.22     0.007 C 
HETATM   17  C13 BCR C 515     -39.885 135.613   9.226  1.00 69.92    -0.062 C 
HETATM   18  C14 BCR C 515     -40.629 136.485   8.516  1.00 61.13     0.007 C 
HETATM   19  C15 BCR C 515     -41.646 137.331   9.154  1.00 67.07     0.001 C 
HETATM   20  C16 BCR C 515     -42.490 138.072   8.432  1.00 65.97     0.001 C 
HETATM   21  C17 BCR C 515     -43.491 138.909   9.100  1.00 63.92     0.007 C 
HETATM   22  C18 BCR C 515     -44.215 139.825   8.424  1.00 72.24    -0.062 C 
HETATM   23  C19 BCR C 515     -45.201 140.666   9.143  1.00 72.11     0.007 C 
HETATM   24  C20 BCR C 515     -45.861 141.663   8.546  1.00 62.37     0.001 C 
HETATM   25  C21 BCR C 515     -46.785 142.452   9.360  1.00 64.97     0.007 C 
HETATM   26  C22 BCR C 515     -47.293 143.643   8.977  1.00 64.05    -0.062 C 
HETATM   27  C23 BCR C 515     -48.118 144.262   9.841  1.00 66.35     0.007 C 
HETATM   28  C24 BCR C 515     -48.895 145.321   9.582  1.00 62.33     0.009 C 
HETATM   29  C25 BCR C 515     -49.795 145.910  10.620  1.00 72.77    -0.048 C 
HETATM   30  C26 BCR C 515     -50.856 145.226  11.103  1.00 78.06    -0.077 C 
HETATM   31  C27 BCR C 515     -51.794 145.788  12.152  1.00 80.00     0.034 C 
HETATM   32  C28 BCR C 515     -51.190 146.974  12.877  1.00 71.02     0.005 C 
HETATM   33  C29 BCR C 515     -50.663 147.937  11.834  1.00 72.75     0.014 C 
HETATM   34  C30 BCR C 515     -49.483 147.309  11.114  1.00 66.18    -0.020 C 
HETATM   35  C35 BCR C 515     -40.088 135.481  10.710  1.00 51.91     0.048 C 
HETATM   36  C36 BCR C 515     -43.998 140.029   6.953  1.00 60.56     0.048 C 
HETATM   37  C37 BCR C 515     -46.959 144.234   7.636  1.00 49.66     0.048 C 
HETATM   38  C38 BCR C 515     -51.191 143.842  10.627  1.00 83.49     0.044 C 
HETATM   39  C39 BCR C 515     -48.301 147.236  12.073  1.00 61.85     0.020 C 
HETATM   40  C40 BCR C 515     -49.151 148.179   9.912  1.00 69.80     0.020 C 
ENDROOT
TORSDOF 10
BEGIN_RES PHE A  61
REMARK  2 active torsions:
REMARK  status: ('A' for Active; 'I' for Inactive)
REMARK    1  A    between atoms: CA   and  CB  
REMARK    2  A    between atoms: CB   and  CG  
ROOT
ATOM      1  CA  PHE A  61     -36.237 128.293  12.768  1.00 39.40     0.164 C 
ENDROOT
BRANCH   1   2
ATOM      2  CB  PHE A  61     -36.813 128.951  11.509  1.00 39.41     0.058 C 
BRANCH   2   3
ATOM      3  CG  PHE A  61     -36.847 128.053  10.296  1.00 39.01    -0.020 A 
ATOM      4  CD2 PHE A  61     -37.936 128.056   9.438  1.00 40.32    -0.004 A 
ATOM      5  CE2 PHE A  61     -37.967 127.227   8.324  1.00 40.20    -0.000 A 
ATOM      6  CZ  PHE A  61     -36.910 126.389   8.052  1.00 40.34    -0.000 A 
ATOM      7  CE1 PHE A  61     -35.819 126.376   8.893  1.00 41.51    -0.000 A 
ATOM      8  CD1 PHE A  61     -35.790 127.200  10.011  1.00 39.94    -0.004 A 
ENDBRANCH   2   3
ENDBRANCH   1   2
END_RES PHE A  61
BEGIN_RES VAL A 134
REMARK  1 active torsions:
REMARK  status: ('A' for Active; 'I' for Inactive)
REMARK    3  A    between atoms: CA   and  CB  
ROOT
ATOM      9  CA  VAL A 134     -29.766 132.051   9.815  1.00 40.75     0.159 C 
ENDROOT
BRANCH   9  10
ATOM     10  CB  VAL A 134     -30.864 132.765   9.009  1.00 40.76     0.029 C 
ATOM     11  CG1 VAL A 134     -32.102 132.987   9.866  1.00 41.76     0.002 C 
ATOM     12  CG2 VAL A 134     -30.367 134.079   8.426  1.00 40.56     0.002 C 
ENDBRANCH   9  10
END_RES VAL A 134
BEGIN_RES TYR A 338
REMARK  3 active torsions:
REMARK  status: ('A' for Active; 'I' for Inactive)
REMARK    4  A    between atoms: CA   and  CB  
REMARK    5  A    between atoms: CB   and  CG  
REMARK    6  A    between atoms: CZ   and  OH  
ROOT
ATOM     13  CA  TYR A 338     -41.631 124.950   6.058  1.00 38.23     0.164 C 
ENDROOT
BRANCH  13  14
ATOM     14  CB  TYR A 338     -41.621 126.456   6.339  1.00 39.15     0.058 C 
BRANCH  14  15
ATOM     15  CG  TYR A 338     -40.419 127.212   5.821  1.00 39.03    -0.020 A 
ATOM     16  CD2 TYR A 338     -40.256 128.555   6.116  1.00 40.65    -0.002 A 
ATOM     17  CE2 TYR A 338     -39.174 129.283   5.645  1.00 40.91     0.024 A 
ATOM     18  CZ  TYR A 338     -38.222 128.665   4.856  1.00 42.33     0.089 A 
ATOM     19  CE1 TYR A 338     -38.361 127.323   4.552  1.00 40.63     0.024 A 
ATOM     20  CD1 TYR A 338     -39.457 126.615   5.021  1.00 39.27    -0.002 A 
BRANCH  18  21
ATOM     21  OH  TYR A 338     -37.149 129.372   4.390  1.00 43.36    -0.359 OA
ATOM     22  HH  TYR A 338     -37.175 129.773   3.529  1.00  0.00     0.217 HD
ENDBRANCH  18  21
ENDBRANCH  14  15
ENDBRANCH  13  14
END_RES TYR A 338
ENDMDL
MODEL 4
REMARK VINA RESULT:    -8.201      1.639     16.399
REMARK INTER + INTRA:         -10.784
REMARK INTER:                  -7.815
REMARK INTRA:                  -2.968
REMARK UNBOUND:                -2.583
REMARK  0 active torsions:
REMARK  status: ('A' for Active; 'I' for Inactive)
REMARK       I    between atoms: C6_6  and  C7_7 
REMARK       I    between atoms: C8_8  and  C9_9 
REMARK       I    between atoms: C10_10  and  C11_11 
REMARK       I    between atoms: C12_16  and  C13_17 
REMARK       I    between atoms: C14_18  and  C15_19 
REMARK       I    between atoms: C16_20  and  C17_21 
REMARK       I    between atoms: C18_22  and  C19_23 
REMARK       I    between atoms: C20_24  and  C21_25 
REMARK       I    between atoms: C22_26  and  C23_27 
REMARK       I    between atoms: C24_28  and  C25_29 
ROOT
HETATM    1  C1  BCR C 515     -33.750 127.413   7.544  1.00 64.45    -0.020 C 
HETATM    2  C2  BCR C 515     -32.724 126.513   6.876  1.00 66.34     0.014 C 
HETATM    3  C3  BCR C 515     -32.177 127.177   5.626  1.00 64.94     0.005 C 
HETATM    4  C4  BCR C 515     -33.296 127.295   4.609  1.00 69.15     0.034 C 
HETATM    5  C5  BCR C 515     -34.508 127.973   5.215  1.00 67.88    -0.077 C 
HETATM    6  C6  BCR C 515     -34.719 128.026   6.547  1.00 62.48    -0.048 C 
HETATM    7  C7  BCR C 515     -35.938 128.699   7.071  1.00 58.32     0.009 C 
HETATM    8  C8  BCR C 515     -36.047 130.025   7.220  1.00 62.07     0.007 C 
HETATM    9  C9  BCR C 515     -37.299 130.623   7.734  1.00 70.38    -0.062 C 
HETATM   10  C10 BCR C 515     -37.472 131.956   7.648  1.00 58.20     0.007 C 
HETATM   11  C11 BCR C 515     -38.664 132.678   8.108  1.00 74.05     0.001 C 
HETATM   12  C33 BCR C 515     -35.487 128.589   4.254  1.00 58.01     0.044 C 
HETATM   13  C31 BCR C 515     -32.993 128.522   8.261  1.00 56.77     0.020 C 
HETATM   14  C32 BCR C 515     -34.553 126.598   8.550  1.00 77.72     0.020 C 
HETATM   15  C34 BCR C 515     -38.357 129.734   8.328  1.00 64.61     0.048 C 
HETATM   16  C12 BCR C 515     -38.684 134.015   7.999  1.00 68.22     0.007 C 
HETATM   17  C13 BCR C 515     -39.836 134.845   8.420  1.00 69.92    -0.062 C 
HETATM   18  C14 BCR C 515     -39.775 136.183   8.265  1.00 61.13     0.007 C 
HETATM   19  C15 BCR C 515     -40.887 137.057   8.658  1.00 67.07     0.001 C 
HETATM   20  C16 BCR C 515     -40.893 138.358   8.356  1.00 65.97     0.001 C 
HETATM   21  C17 BCR C 515     -42.018 139.204   8.765  1.00 63.92     0.007 C 
HETATM   22  C18 BCR C 515     -41.967 140.548   8.669  1.00 72.24    -0.062 C 
HETATM   23  C19 BCR C 515     -43.118 141.367   9.116  1.00 72.11     0.007 C 
HETATM   24  C20 BCR C 515     -43.076 142.703   9.148  1.00 62.37     0.001 C 
HETATM   25  C21 BCR C 515     -44.258 143.410   9.641  1.00 64.97     0.007 C 
HETATM   26  C22 BCR C 515     -44.259 144.712   9.995  1.00 64.05    -0.062 C 
HETATM   27  C23 BCR C 515     -45.420 145.221  10.449  1.00 66.35     0.007 C 
HETATM   28  C24 BCR C 515     -45.701 146.516  10.640  1.00 62.33     0.009 C 
HETATM   29  C25 BCR C 515     -47.042 146.966  11.127  1.00 72.77    -0.048 C 
HETATM   30  C26 BCR C 515     -48.152 146.817  10.371  1.00 78.06    -0.077 C 
HETATM   31  C27 BCR C 515     -49.527 147.263  10.825  1.00 80.00     0.034 C 
HETATM   32  C28 BCR C 515     -49.585 147.491  12.323  1.00 71.02     0.005 C 
HETATM   33  C29 BCR C 515     -48.412 148.371  12.703  1.00 72.75     0.014 C 
HETATM   34  C30 BCR C 515     -47.117 147.605  12.500  1.00 66.18    -0.020 C 
HETATM   35  C35 BCR C 515     -41.066 134.208   9.003  1.00 51.91     0.048 C 
HETATM   36  C36 BCR C 515     -40.731 141.225   8.150  1.00 60.56     0.048 C 
HETATM   37  C37 BCR C 515     -43.020 145.553   9.868  1.00 49.66     0.048 C 
HETATM   38  C38 BCR C 515     -48.105 146.193   9.006  1.00 83.49     0.044 C 
HETATM   39  C39 BCR C 515     -47.020 146.510  13.554  1.00 61.85     0.020 C 
HETATM   40  C40 BCR C 515     -45.965 148.589  12.635  1.00 69.80     0.020 C 
ENDROOT
TORSDOF 10
BEGIN_RES PHE A  61
REMARK  2 active torsions:
REMARK  status: ('A' for Active; 'I' for Inactive)
REMARK    1  A    between atoms: CA   and  CB  
REMARK    2  A    between atoms: CB   and  CG  
ROOT
ATOM      1  CA  PHE A  61     -36.237 128.293  12.768  1.00 39.40     0.164 C 
ENDROOT
BRANCH   1   2
ATOM      2  CB  PHE A  61     -36.813 128.951  11.509  1.00 39.41     0.058 C 
BRANCH   2   3
ATOM      3  CG  PHE A  61     -36.078 130.192  11.062  1.00 39.01    -0.020 A 
ATOM      4  CD2 PHE A  61     -34.784 130.115  10.572  1.00 40.32    -0.004 A 
ATOM      5  CE2 PHE A  61     -34.108 131.258  10.163  1.00 40.20    -0.000 A 
ATOM      6  CZ  PHE A  61     -34.719 132.489  10.237  1.00 40.34    -0.000 A 
ATOM      7  CE1 PHE A  61     -36.006 132.582  10.720  1.00 41.51    -0.000 A 
ATOM      8  CD1 PHE A  61     -36.679 131.441  11.134  1.00 39.94    -0.004 A 
ENDBRANCH   2   3
ENDBRANCH   1   2
END_RES PHE A  61
BEGIN_RES VAL A 134
REMARK  1 active torsions:
REMARK  status: ('A' for Active; 'I' for Inactive)
REMARK    3  A    between atoms: CA   and  CB  
ROOT
ATOM      9  CA  VAL A 134     -29.766 132.051   9.815  1.00 40.75     0.159 C 
ENDROOT
BRANCH   9  10
ATOM     10  CB  VAL A 134     -30.864 132.765   9.009  1.00 40.76     0.029 C 
ATOM     11  CG1 VAL A 134     -31.478 131.823   7.984  1.00 41.76     0.002 C 
ATOM     12  CG2 VAL A 134     -31.936 133.350   9.916  1.00 40.56     0.002 C 
ENDBRANCH   9  10
END_RES VAL A 134
BEGIN_RES TYR A 338
REMARK  3 active torsions:
REMARK  status: ('A' for Active; 'I' for Inactive)
REMARK    4  A    between atoms: CA   and  CB  
REMARK    5  A    between atoms: CB   and  CG  
REMARK    6  A    between atoms: CZ   and  OH  
ROOT
ATOM     13  CA  TYR A 338     -41.631 124.950   6.058  1.00 38.23     0.164 C 
ENDROOT
BRANCH  13  14
ATOM     14  CB  TYR A 338     -41.621 126.456   6.339  1.00 39.15     0.058 C 
BRANCH  14  15
ATOM     15  CG  TYR A 338     -40.451 127.223   5.766  1.00 39.03    -0.020 A 
ATOM     16  CD2 TYR A 338     -40.403 128.603   5.862  1.00 40.65    -0.002 A 
ATOM     17  CE2 TYR A 338     -39.354 129.339   5.334  1.00 40.91     0.024 A 
ATOM     18  CZ  TYR A 338     -38.318 128.691   4.688  1.00 42.33     0.089 A 
ATOM     19  CE1 TYR A 338     -38.340 127.312   4.584  1.00 40.63     0.024 A 
ATOM     20  CD1 TYR A 338     -39.405 126.595   5.107  1.00 39.27    -0.002 A 
BRANCH  18  21
ATOM     21  OH  TYR A 338     -37.276 129.407   4.168  1.00 43.36    -0.359 OA
ATOM     22  HH  TYR A 338     -36.520 128.960   3.804  1.00  0.00     0.217 HD
ENDBRANCH  18  21
ENDBRANCH  14  15
ENDBRANCH  13  14
END_RES TYR A 338
ENDMDL
