MODEL 1
REMARK VINA RESULT:    -8.905      0.000      0.000
REMARK INTER + INTRA:         -13.288
REMARK INTER:                  -8.905
REMARK INTRA:                  -4.382
REMARK UNBOUND:                -4.382
REMARK  0 active torsions:
REMARK  status: ('A' for Active; 'I' for Inactive)
REMARK       I    between atoms: C6_6  and  C7_7 
REMARK       I    between atoms: C8_8  and  C9_9 
REMARK       I    between atoms: C10_10  and  C11_11 
REMARK       I    between atoms: C12_16  and  C13_17 
REMARK       I    between atoms: C14_18  and  C15_19 
REMARK       I    between atoms: C16_20  and  C17_21 
REMARK       I    between atoms: C18_22  and  C19_23 
REMARK       I    between atoms: C20_24  and  C21_25 
REMARK       I    between atoms: C22_26  and  C23_27 
REMARK       I    between atoms: C24_28  and  C25_29 
ROOT
HETATM    1  C1  BCR T 101     -33.732 128.688   5.998  1.00 36.92    -0.020 C 
HETATM    2  C2  BCR T 101     -32.653 127.727   5.458  1.00 34.03     0.014 C 
HETATM    3  C3  BCR T 101     -32.286 126.674   6.516  1.00 38.91     0.005 C 
HETATM    4  C4  BCR T 101     -33.513 125.850   6.819  1.00 38.67     0.034 C 
HETATM    5  C5  BCR T 101     -34.618 126.741   7.324  1.00 37.96    -0.077 C 
HETATM    6  C6  BCR T 101     -34.714 128.042   6.976  1.00 35.98    -0.048 C 
HETATM    7  C7  BCR T 101     -35.886 128.796   7.528  1.00 38.69     0.009 C 
HETATM    8  C8  BCR T 101     -36.227 130.091   7.337  1.00 40.68     0.007 C 
HETATM    9  C9  BCR T 101     -37.454 130.673   7.961  1.00 41.20    -0.062 C 
HETATM   10  C10 BCR T 101     -37.682 131.995   7.752  1.00 40.60     0.007 C 
HETATM   11  C11 BCR T 101     -38.775 132.800   8.298  1.00 39.10     0.001 C 
HETATM   12  C33 BCR T 101     -35.622 126.085   8.235  1.00 39.44     0.044 C 
HETATM   13  C31 BCR T 101     -34.501 129.098   4.736  1.00 29.76     0.020 C 
HETATM   14  C32 BCR T 101     -33.085 129.898   6.697  1.00 41.10     0.020 C 
HETATM   15  C34 BCR T 101     -38.439 129.810   8.731  1.00 36.28     0.048 C 
HETATM   16  C12 BCR T 101     -38.975 134.075   7.897  1.00 37.08     0.007 C 
HETATM   17  C13 BCR T 101     -39.991 134.972   8.516  1.00 38.99    -0.062 C 
HETATM   18  C14 BCR T 101     -39.695 136.291   8.427  1.00 36.34     0.007 C 
HETATM   19  C15 BCR T 101     -40.421 137.413   9.017  1.00 33.98     0.001 C 
HETATM   20  C16 BCR T 101     -40.686 138.570   8.430  1.00 32.43     0.001 C 
HETATM   21  C17 BCR T 101     -41.360 139.580   9.257  1.00 28.67     0.007 C 
HETATM   22  C18 BCR T 101     -41.553 140.862   8.907  1.00 27.82    -0.062 C 
HETATM   23  C19 BCR T 101     -42.163 141.771   9.906  1.00 25.96     0.007 C 
HETATM   24  C20 BCR T 101     -42.383 143.069   9.702  1.00 24.20     0.001 C 
HETATM   25  C21 BCR T 101     -42.869 143.819  10.869  1.00 24.32     0.007 C 
HETATM   26  C22 BCR T 101     -43.003 145.179  10.884  1.00 27.00    -0.062 C 
HETATM   27  C23 BCR T 101     -43.393 145.777  12.165  1.00 25.69     0.007 C 
HETATM   28  C24 BCR T 101     -43.691 147.085  12.381  1.00 23.30     0.009 C 
HETATM   29  C25 BCR T 101     -43.981 147.506  13.796  1.00 24.05    -0.048 C 
HETATM   30  C26 BCR T 101     -45.012 146.973  14.466  1.00 22.56    -0.077 C 
HETATM   31  C27 BCR T 101     -45.383 147.332  15.912  1.00 22.64     0.034 C 
HETATM   32  C28 BCR T 101     -44.199 148.017  16.612  1.00 22.89     0.005 C 
HETATM   33  C29 BCR T 101     -43.754 149.155  15.703  1.00 23.67     0.014 C 
HETATM   34  C30 BCR T 101     -43.111 148.600  14.433  1.00 24.85    -0.020 C 
HETATM   35  C35 BCR T 101     -41.213 134.468   9.255  1.00 38.69     0.048 C 
HETATM   36  C36 BCR T 101     -41.088 141.407   7.586  1.00 23.59     0.048 C 
HETATM   37  C37 BCR T 101     -42.732 146.127   9.725  1.00 24.19     0.048 C 
HETATM   38  C38 BCR T 101     -45.863 145.967  13.801  1.00 22.31     0.044 C 
HETATM   39  C39 BCR T 101     -41.707 148.101  14.791  1.00 23.45     0.020 C 
HETATM   40  C40 BCR T 101     -43.098 149.798  13.441  1.00 22.18     0.020 C 
ENDROOT
TORSDOF 10
BEGIN_RES PHE A  61
REMARK  2 active torsions:
REMARK  status: ('A' for Active; 'I' for Inactive)
REMARK    1  A    between atoms: CA   and  CB  
REMARK    2  A    between atoms: CB   and  CG  
ROOT
ATOM      1  CA  PHE A  61     -36.237 128.293  12.768  1.00 39.40     0.164 C 
ENDROOT
BRANCH   1   2
ATOM      2  CB  PHE A  61     -36.813 128.951  11.509  1.00 39.41     0.058 C 
BRANCH   2   3
ATOM      3  CG  PHE A  61     -36.013 130.124  10.996  1.00 39.01    -0.020 A 
ATOM      4  CD2 PHE A  61     -34.754 129.942  10.446  1.00 40.32    -0.004 A 
ATOM      5  CE2 PHE A  61     -34.018 131.023   9.978  1.00 40.20    -0.000 A 
ATOM      6  CZ  PHE A  61     -34.532 132.297  10.051  1.00 40.34    -0.000 A 
ATOM      7  CE1 PHE A  61     -35.783 132.495  10.593  1.00 41.51    -0.000 A 
ATOM      8  CD1 PHE A  61     -36.517 131.415  11.067  1.00 39.94    -0.004 A 
ENDBRANCH   2   3
ENDBRANCH   1   2
END_RES PHE A  61
BEGIN_RES VAL A 134
REMARK  1 active torsions:
REMARK  status: ('A' for Active; 'I' for Inactive)
REMARK    3  A    between atoms: CA   and  CB  
ROOT
ATOM      9  CA  VAL A 134     -29.766 132.051   9.815  1.00 40.75     0.159 C 
ENDROOT
BRANCH   9  10
ATOM     10  CB  VAL A 134     -30.864 132.765   9.009  1.00 40.76     0.029 C 
ATOM     11  CG1 VAL A 134     -31.458 131.831   7.965  1.00 41.76     0.002 C 
ATOM     12  CG2 VAL A 134     -31.950 133.325   9.914  1.00 40.56     0.002 C 
ENDBRANCH   9  10
END_RES VAL A 134
BEGIN_RES TYR A 338
REMARK  3 active torsions:
REMARK  status: ('A' for Active; 'I' for Inactive)
REMARK    4  A    between atoms: CA   and  CB  
REMARK    5  A    between atoms: CB   and  CG  
REMARK    6  A    between atoms: CZ   and  OH  
ROOT
ATOM     13  CA  TYR A 338     -41.631 124.950   6.058  1.00 38.23     0.164 C 
ENDROOT
BRANCH  13  14
ATOM     14  CB  TYR A 338     -41.621 126.456   6.339  1.00 39.15     0.058 C 
BRANCH  14  15
ATOM     15  CG  TYR A 338     -40.423 127.213   5.815  1.00 39.03    -0.020 A 
ATOM     16  CD2 TYR A 338     -40.329 128.584   5.989  1.00 40.65    -0.002 A 
ATOM     17  CE2 TYR A 338     -39.252 129.312   5.507  1.00 40.91     0.024 A 
ATOM     18  CZ  TYR A 338     -38.235 128.667   4.830  1.00 42.33     0.089 A 
ATOM     19  CE1 TYR A 338     -38.303 127.297   4.647  1.00 40.63     0.024 A 
ATOM     20  CD1 TYR A 338     -39.395 126.588   5.125  1.00 39.27    -0.002 A 
BRANCH  18  21
ATOM     21  OH  TYR A 338     -37.166 129.374   4.355  1.00 43.36    -0.359 OA
ATOM     22  HH  TYR A 338     -37.205 129.788   3.500  1.00  0.00     0.217 HD
ENDBRANCH  18  21
ENDBRANCH  14  15
ENDBRANCH  13  14
END_RES TYR A 338
ENDMDL
