MODEL 1
REMARK VINA RESULT:    -8.028      0.000      0.000
REMARK INTER + INTRA:         -12.309
REMARK INTER:                  -8.028
REMARK INTRA:                  -4.280
REMARK UNBOUND:                -4.280
REMARK  0 active torsions:
REMARK  status: ('A' for Active; 'I' for Inactive)
REMARK       I    between atoms: C6_6  and  C7_7 
REMARK       I    between atoms: C8_8  and  C9_9 
REMARK       I    between atoms: C10_10  and  C11_11 
REMARK       I    between atoms: C12_16  and  C13_17 
REMARK       I    between atoms: C14_18  and  C15_19 
REMARK       I    between atoms: C16_20  and  C17_21 
REMARK       I    between atoms: C18_22  and  C19_23 
REMARK       I    between atoms: C20_24  and  C21_25 
REMARK       I    between atoms: C22_26  and  C23_27 
REMARK       I    between atoms: C24_28  and  C25_29 
ROOT
HETATM    1  C1  BCR T 101     -34.000 128.562   5.847  1.00 41.70    -0.020 C 
HETATM    2  C2  BCR T 101     -33.099 127.513   5.206  1.00 42.78     0.014 C 
HETATM    3  C3  BCR T 101     -32.512 126.573   6.209  1.00 41.03     0.005 C 
HETATM    4  C4  BCR T 101     -33.600 125.850   6.942  1.00 43.70     0.034 C 
HETATM    5  C5  BCR T 101     -34.716 126.740   7.327  1.00 45.79    -0.077 C 
HETATM    6  C6  BCR T 101     -34.917 127.988   6.853  1.00 40.49    -0.048 C 
HETATM    7  C7  BCR T 101     -36.095 128.772   7.262  1.00 44.14     0.009 C 
HETATM    8  C8  BCR T 101     -36.124 130.080   7.536  1.00 36.42     0.007 C 
HETATM    9  C9  BCR T 101     -37.338 130.687   8.089  1.00 37.41    -0.062 C 
HETATM   10  C10 BCR T 101     -37.612 131.966   7.797  1.00 30.62     0.007 C 
HETATM   11  C11 BCR T 101     -38.824 132.670   8.100  1.00 28.97     0.001 C 
HETATM   12  C33 BCR T 101     -35.627 126.101   8.314  1.00 43.90     0.044 C 
HETATM   13  C31 BCR T 101     -34.755 129.164   4.680  1.00 32.30     0.020 C 
HETATM   14  C32 BCR T 101     -33.156 129.639   6.512  1.00 43.93     0.020 C 
HETATM   15  C34 BCR T 101     -38.352 129.806   8.727  1.00 35.44     0.048 C 
HETATM   16  C12 BCR T 101     -38.781 134.005   8.213  1.00 28.42     0.007 C 
HETATM   17  C13 BCR T 101     -39.871 134.848   8.702  1.00 29.67    -0.062 C 
HETATM   18  C14 BCR T 101     -39.914 136.162   8.362  1.00 27.65     0.007 C 
HETATM   19  C15 BCR T 101     -40.318 137.245   9.237  1.00 28.48     0.001 C 
HETATM   20  C16 BCR T 101     -40.926 138.342   8.753  1.00 25.66     0.001 C 
HETATM   21  C17 BCR T 101     -41.064 139.550   9.538  1.00 31.53     0.007 C 
HETATM   22  C18 BCR T 101     -41.388 140.773   9.079  1.00 35.11    -0.062 C 
HETATM   23  C19 BCR T 101     -42.140 141.669   9.954  1.00 31.55     0.007 C 
HETATM   24  C20 BCR T 101     -42.026 143.003   9.934  1.00 33.30     0.001 C 
HETATM   25  C21 BCR T 101     -42.690 143.826  10.930  1.00 34.76     0.007 C 
HETATM   26  C22 BCR T 101     -42.666 145.176  11.042  1.00 38.40    -0.062 C 
HETATM   27  C23 BCR T 101     -43.085 145.748  12.323  1.00 37.30     0.007 C 
HETATM   28  C24 BCR T 101     -43.302 147.045  12.550  1.00 34.14     0.009 C 
HETATM   29  C25 BCR T 101     -43.633 147.570  13.874  1.00 34.41    -0.048 C 
HETATM   30  C26 BCR T 101     -44.685 147.123  14.559  1.00 30.82    -0.077 C 
HETATM   31  C27 BCR T 101     -45.096 147.524  15.904  1.00 38.31     0.034 C 
HETATM   32  C28 BCR T 101     -43.980 148.212  16.637  1.00 33.34     0.005 C 
HETATM   33  C29 BCR T 101     -43.380 149.234  15.742  1.00 23.88     0.014 C 
HETATM   34  C30 BCR T 101     -42.773 148.642  14.458  1.00 29.76    -0.020 C 
HETATM   35  C35 BCR T 101     -40.780 134.291   9.725  1.00 34.50     0.048 C 
HETATM   36  C36 BCR T 101     -40.921 141.276   7.767  1.00 32.52     0.048 C 
HETATM   37  C37 BCR T 101     -42.591 146.068   9.861  1.00 33.52     0.048 C 
HETATM   38  C38 BCR T 101     -45.597 146.089  14.080  1.00 36.86     0.044 C 
HETATM   39  C39 BCR T 101     -41.346 148.167  14.668  1.00 35.69     0.020 C 
HETATM   40  C40 BCR T 101     -42.671 149.815  13.502  1.00 29.24     0.020 C 
ENDROOT
TORSDOF 10
BEGIN_RES PHE A  61
REMARK  2 active torsions:
REMARK  status: ('A' for Active; 'I' for Inactive)
REMARK    1  A    between atoms: CA   and  CB  
REMARK    2  A    between atoms: CB   and  CG  
ROOT
ATOM      1  CA  PHE A  61     -36.237 128.293  12.768  1.00 39.40     0.164 C 
ENDROOT
BRANCH   1   2
ATOM      2  CB  PHE A  61     -36.813 128.951  11.509  1.00 39.41     0.058 C 
BRANCH   2   3
ATOM      3  CG  PHE A  61     -35.995 130.103  10.977  1.00 39.01    -0.020 A 
ATOM      4  CD2 PHE A  61     -34.752 129.889  10.404  1.00 40.32    -0.004 A 
ATOM      5  CE2 PHE A  61     -33.999 130.951   9.918  1.00 40.20    -0.000 A 
ATOM      6  CZ  PHE A  61     -34.482 132.237   9.996  1.00 40.34    -0.000 A 
ATOM      7  CE1 PHE A  61     -35.716 132.467  10.561  1.00 41.51    -0.000 A 
ATOM      8  CD1 PHE A  61     -36.467 131.406  11.053  1.00 39.94    -0.004 A 
ENDBRANCH   2   3
ENDBRANCH   1   2
END_RES PHE A  61
BEGIN_RES VAL A 134
REMARK  1 active torsions:
REMARK  status: ('A' for Active; 'I' for Inactive)
REMARK    3  A    between atoms: CA   and  CB  
ROOT
ATOM      9  CA  VAL A 134     -29.766 132.051   9.815  1.00 40.75     0.159 C 
ENDROOT
BRANCH   9  10
ATOM     10  CB  VAL A 134     -30.864 132.765   9.009  1.00 40.76     0.029 C 
ATOM     11  CG1 VAL A 134     -31.422 131.848   7.930  1.00 41.76     0.002 C 
ATOM     12  CG2 VAL A 134     -31.977 133.279   9.909  1.00 40.56     0.002 C 
ENDBRANCH   9  10
END_RES VAL A 134
BEGIN_RES TYR A 338
REMARK  3 active torsions:
REMARK  status: ('A' for Active; 'I' for Inactive)
REMARK    4  A    between atoms: CA   and  CB  
REMARK    5  A    between atoms: CB   and  CG  
REMARK    6  A    between atoms: CZ   and  OH  
ROOT
ATOM     13  CA  TYR A 338     -41.631 124.950   6.058  1.00 38.23     0.164 C 
ENDROOT
BRANCH  13  14
ATOM     14  CB  TYR A 338     -41.621 126.456   6.339  1.00 39.15     0.058 C 
BRANCH  14  15
ATOM     15  CG  TYR A 338     -40.428 127.215   5.805  1.00 39.03    -0.020 A 
ATOM     16  CD2 TYR A 338     -40.337 128.586   5.974  1.00 40.65    -0.002 A 
ATOM     17  CE2 TYR A 338     -39.266 129.316   5.484  1.00 40.91     0.024 A 
ATOM     18  CZ  TYR A 338     -38.251 128.672   4.802  1.00 42.33     0.089 A 
ATOM     19  CE1 TYR A 338     -38.317 127.301   4.624  1.00 40.63     0.024 A 
ATOM     20  CD1 TYR A 338     -39.403 126.591   5.111  1.00 39.27    -0.002 A 
BRANCH  18  21
ATOM     21  OH  TYR A 338     -37.187 129.381   4.318  1.00 43.36    -0.359 OA
ATOM     22  HH  TYR A 338     -37.235 129.797   3.465  1.00  0.00     0.217 HD
ENDBRANCH  18  21
ENDBRANCH  14  15
ENDBRANCH  13  14
END_RES TYR A 338
ENDMDL
MODEL 2
REMARK VINA RESULT:    -6.990      1.724     16.123
REMARK INTER + INTRA:         -11.270
REMARK INTER:                  -7.128
REMARK INTRA:                  -4.143
REMARK UNBOUND:                -4.280
REMARK  0 active torsions:
REMARK  status: ('A' for Active; 'I' for Inactive)
REMARK       I    between atoms: C6_6  and  C7_7 
REMARK       I    between atoms: C8_8  and  C9_9 
REMARK       I    between atoms: C10_10  and  C11_11 
REMARK       I    between atoms: C12_16  and  C13_17 
REMARK       I    between atoms: C14_18  and  C15_19 
REMARK       I    between atoms: C16_20  and  C17_21 
REMARK       I    between atoms: C18_22  and  C19_23 
REMARK       I    between atoms: C20_24  and  C21_25 
REMARK       I    between atoms: C22_26  and  C23_27 
REMARK       I    between atoms: C24_28  and  C25_29 
ROOT
HETATM    1  C1  BCR T 101     -43.134 148.472  11.760  1.00 41.70    -0.020 C 
HETATM    2  C2  BCR T 101     -43.426 149.886  12.249  1.00 42.78     0.014 C 
HETATM    3  C3  BCR T 101     -43.706 150.832  11.125  1.00 41.03     0.005 C 
HETATM    4  C4  BCR T 101     -44.894 150.369  10.339  1.00 43.70     0.034 C 
HETATM    5  C5  BCR T 101     -44.880 148.910  10.092  1.00 45.79    -0.077 C 
HETATM    6  C6  BCR T 101     -44.078 148.022  10.717  1.00 40.49    -0.048 C 
HETATM    7  C7  BCR T 101     -44.183 146.580  10.436  1.00 44.14     0.009 C 
HETATM    8  C8  BCR T 101     -43.169 145.717  10.321  1.00 36.42     0.007 C 
HETATM    9  C9  BCR T 101     -43.423 144.343   9.875  1.00 37.41    -0.062 C 
HETATM   10  C10 BCR T 101     -42.629 143.361  10.326  1.00 30.62     0.007 C 
HETATM   11  C11 BCR T 101     -42.826 141.952  10.140  1.00 28.97     0.001 C 
HETATM   12  C33 BCR T 101     -45.871 148.508   9.059  1.00 43.90     0.044 C 
HETATM   13  C31 BCR T 101     -43.234 147.622  13.010  1.00 32.30     0.020 C 
HETATM   14  C32 BCR T 101     -41.719 148.392  11.208  1.00 43.93     0.020 C 
HETATM   15  C34 BCR T 101     -44.693 144.044   9.164  1.00 35.44     0.048 C 
HETATM   16  C12 BCR T 101     -41.758 141.143  10.187  1.00 28.42     0.007 C 
HETATM   17  C13 BCR T 101     -41.756 139.725   9.830  1.00 29.67    -0.062 C 
HETATM   18  C14 BCR T 101     -40.793 138.905  10.326  1.00 27.65     0.007 C 
HETATM   19  C15 BCR T 101     -40.143 137.833   9.598  1.00 28.48     0.001 C 
HETATM   20  C16 BCR T 101     -39.716 136.723  10.225  1.00 25.66     0.001 C 
HETATM   21  C17 BCR T 101     -38.809 135.789   9.594  1.00 31.53     0.007 C 
HETATM   22  C18 BCR T 101     -38.103 134.819  10.205  1.00 35.11    -0.062 C 
HETATM   23  C19 BCR T 101     -37.818 133.593   9.463  1.00 31.55     0.007 C 
HETATM   24  C20 BCR T 101     -36.717 132.852   9.639  1.00 33.30     0.001 C 
HETATM   25  C21 BCR T 101     -36.422 131.729   8.766  1.00 34.76     0.007 C 
HETATM   26  C22 BCR T 101     -35.355 130.896   8.816  1.00 38.40    -0.062 C 
HETATM   27  C23 BCR T 101     -35.079 130.092   7.624  1.00 37.30     0.007 C 
HETATM   28  C24 BCR T 101     -34.196 129.094   7.559  1.00 34.14     0.009 C 
HETATM   29  C25 BCR T 101     -33.897 128.383   6.317  1.00 34.41    -0.048 C 
HETATM   30  C26 BCR T 101     -34.852 127.780   5.611  1.00 30.82    -0.077 C 
HETATM   31  C27 BCR T 101     -34.698 127.083   4.335  1.00 38.31     0.034 C 
HETATM   32  C28 BCR T 101     -33.407 127.451   3.661  1.00 33.34     0.005 C 
HETATM   33  C29 BCR T 101     -32.308 127.364   4.656  1.00 23.88     0.014 C 
HETATM   34  C30 BCR T 101     -32.481 128.327   5.843  1.00 29.76    -0.020 C 
HETATM   35  C35 BCR T 101     -42.681 139.269   8.772  1.00 34.50     0.048 C 
HETATM   36  C36 BCR T 101     -37.521 134.993  11.555  1.00 32.52     0.048 C 
HETATM   37  C37 BCR T 101     -34.709 130.510  10.093  1.00 33.52     0.048 C 
HETATM   38  C38 BCR T 101     -36.263 127.762   5.986  1.00 36.86     0.044 C 
HETATM   39  C39 BCR T 101     -31.934 129.710   5.541  1.00 35.69     0.020 C 
HETATM   40  C40 BCR T 101     -31.584 127.766   6.930  1.00 29.24     0.020 C 
ENDROOT
TORSDOF 10
BEGIN_RES PHE A  61
REMARK  2 active torsions:
REMARK  status: ('A' for Active; 'I' for Inactive)
REMARK    1  A    between atoms: CA   and  CB  
REMARK    2  A    between atoms: CB   and  CG  
ROOT
ATOM      1  CA  PHE A  61     -36.237 128.293  12.768  1.00 39.40     0.164 C 
ENDROOT
BRANCH   1   2
ATOM      2  CB  PHE A  61     -36.813 128.951  11.509  1.00 39.41     0.058 C 
BRANCH   2   3
ATOM      3  CG  PHE A  61     -36.881 128.042  10.305  1.00 39.01    -0.020 A 
ATOM      4  CD2 PHE A  61     -37.943 128.115   9.418  1.00 40.32    -0.004 A 
ATOM      5  CE2 PHE A  61     -38.006 127.275   8.312  1.00 40.20    -0.000 A 
ATOM      6  CZ  PHE A  61     -37.007 126.358   8.080  1.00 40.34    -0.000 A 
ATOM      7  CE1 PHE A  61     -35.943 126.274   8.951  1.00 41.51    -0.000 A 
ATOM      8  CD1 PHE A  61     -35.884 127.109  10.060  1.00 39.94    -0.004 A 
ENDBRANCH   2   3
ENDBRANCH   1   2
END_RES PHE A  61
BEGIN_RES VAL A 134
REMARK  1 active torsions:
REMARK  status: ('A' for Active; 'I' for Inactive)
REMARK    3  A    between atoms: CA   and  CB  
ROOT
ATOM      9  CA  VAL A 134     -29.766 132.051   9.815  1.00 40.75     0.159 C 
ENDROOT
BRANCH   9  10
ATOM     10  CB  VAL A 134     -30.864 132.765   9.009  1.00 40.76     0.029 C 
ATOM     11  CG1 VAL A 134     -31.223 131.967   7.764  1.00 41.76     0.002 C 
ATOM     12  CG2 VAL A 134     -32.099 133.030   9.856  1.00 40.56     0.002 C 
ENDBRANCH   9  10
END_RES VAL A 134
BEGIN_RES TYR A 338
REMARK  3 active torsions:
REMARK  status: ('A' for Active; 'I' for Inactive)
REMARK    4  A    between atoms: CA   and  CB  
REMARK    5  A    between atoms: CB   and  CG  
REMARK    6  A    between atoms: CZ   and  OH  
ROOT
ATOM     13  CA  TYR A 338     -41.631 124.950   6.058  1.00 38.23     0.164 C 
ENDROOT
BRANCH  13  14
ATOM     14  CB  TYR A 338     -41.621 126.456   6.339  1.00 39.15     0.058 C 
BRANCH  14  15
ATOM     15  CG  TYR A 338     -40.452 127.223   5.765  1.00 39.03    -0.020 A 
ATOM     16  CD2 TYR A 338     -40.230 128.540   6.131  1.00 40.65    -0.002 A 
ATOM     17  CE2 TYR A 338     -39.177 129.277   5.613  1.00 40.91     0.024 A 
ATOM     18  CZ  TYR A 338     -38.315 128.697   4.702  1.00 42.33     0.089 A 
ATOM     19  CE1 TYR A 338     -38.512 127.380   4.325  1.00 40.63     0.024 A 
ATOM     20  CD1 TYR A 338     -39.579 126.663   4.845  1.00 39.27    -0.002 A 
BRANCH  18  21
ATOM     21  OH  TYR A 338     -37.270 129.413   4.188  1.00 43.36    -0.359 OA
ATOM     22  HH  TYR A 338     -36.671 129.013   3.569  1.00  0.00     0.217 HD
ENDBRANCH  18  21
ENDBRANCH  14  15
ENDBRANCH  13  14
END_RES TYR A 338
ENDMDL
MODEL 3
REMARK VINA RESULT:    -6.195      1.609     16.166
REMARK INTER + INTRA:         -10.475
REMARK INTER:                  -8.528
REMARK INTRA:                  -1.947
REMARK UNBOUND:                -4.280
REMARK  0 active torsions:
REMARK  status: ('A' for Active; 'I' for Inactive)
REMARK       I    between atoms: C6_6  and  C7_7 
REMARK       I    between atoms: C8_8  and  C9_9 
REMARK       I    between atoms: C10_10  and  C11_11 
REMARK       I    between atoms: C12_16  and  C13_17 
REMARK       I    between atoms: C14_18  and  C15_19 
REMARK       I    between atoms: C16_20  and  C17_21 
REMARK       I    between atoms: C18_22  and  C19_23 
REMARK       I    between atoms: C20_24  and  C21_25 
REMARK       I    between atoms: C22_26  and  C23_27 
REMARK       I    between atoms: C24_28  and  C25_29 
ROOT
HETATM    1  C1  BCR T 101     -47.294 148.284  14.366  1.00 41.70    -0.020 C 
HETATM    2  C2  BCR T 101     -48.293 149.337  14.830  1.00 42.78     0.014 C 
HETATM    3  C3  BCR T 101     -47.922 149.936  16.149  1.00 41.03     0.005 C 
HETATM    4  C4  BCR T 101     -46.578 150.591  16.062  1.00 43.70     0.034 C 
HETATM    5  C5  BCR T 101     -45.594 149.777  15.316  1.00 45.79    -0.077 C 
HETATM    6  C6  BCR T 101     -45.891 148.710  14.544  1.00 40.49    -0.048 C 
HETATM    7  C7  BCR T 101     -44.839 148.000  13.797  1.00 44.14     0.009 C 
HETATM    8  C8  BCR T 101     -44.736 146.678  13.631  1.00 36.42     0.007 C 
HETATM    9  C9  BCR T 101     -43.540 146.109  13.001  1.00 37.41    -0.062 C 
HETATM   10  C10 BCR T 101     -43.661 144.978  12.291  1.00 30.62     0.007 C 
HETATM   11  C11 BCR T 101     -42.651 144.375  11.470  1.00 28.97     0.001 C 
HETATM   12  C33 BCR T 101     -44.204 150.270  15.502  1.00 43.90     0.044 C 
HETATM   13  C31 BCR T 101     -47.634 148.071  12.905  1.00 32.30     0.020 C 
HETATM   14  C32 BCR T 101     -47.512 146.986  15.129  1.00 43.93     0.020 C 
HETATM   15  C34 BCR T 101     -42.303 146.930  12.941  1.00 35.44     0.048 C 
HETATM   16  C12 BCR T 101     -42.715 143.056  11.240  1.00 28.42     0.007 C 
HETATM   17  C13 BCR T 101     -41.672 142.259  10.594  1.00 29.67    -0.062 C 
HETATM   18  C14 BCR T 101     -41.992 141.077  10.004  1.00 27.65     0.007 C 
HETATM   19  C15 BCR T 101     -41.183 139.875  10.035  1.00 28.48     0.001 C 
HETATM   20  C16 BCR T 101     -41.186 139.006   9.010  1.00 25.66     0.001 C 
HETATM   21  C17 BCR T 101     -40.638 137.673   9.135  1.00 31.53     0.007 C 
HETATM   22  C18 BCR T 101     -40.836 136.641   8.293  1.00 35.11    -0.062 C 
HETATM   23  C19 BCR T 101     -39.764 135.662   8.128  1.00 31.55     0.007 C 
HETATM   24  C20 BCR T 101     -39.971 134.367   7.858  1.00 33.30     0.001 C 
HETATM   25  C21 BCR T 101     -38.871 133.418   7.854  1.00 34.76     0.007 C 
HETATM   26  C22 BCR T 101     -38.923 132.087   7.605  1.00 38.40    -0.062 C 
HETATM   27  C23 BCR T 101     -37.774 131.284   8.027  1.00 37.30     0.007 C 
HETATM   28  C24 BCR T 101     -37.570 130.006   7.701  1.00 34.14     0.009 C 
HETATM   29  C25 BCR T 101     -36.448 129.226   8.224  1.00 34.41    -0.048 C 
HETATM   30  C26 BCR T 101     -35.187 129.622   8.060  1.00 30.82    -0.077 C 
HETATM   31  C27 BCR T 101     -33.985 128.968   8.573  1.00 38.31     0.034 C 
HETATM   32  C28 BCR T 101     -34.314 127.996   9.670  1.00 33.34     0.005 C 
HETATM   33  C29 BCR T 101     -35.452 127.150   9.232  1.00 23.88     0.014 C 
HETATM   34  C30 BCR T 101     -36.735 127.951   8.946  1.00 29.76    -0.020 C 
HETATM   35  C35 BCR T 101     -40.264 142.665  10.784  1.00 34.50     0.048 C 
HETATM   36  C36 BCR T 101     -42.131 136.410   7.614  1.00 32.52     0.048 C 
HETATM   37  C37 BCR T 101     -39.882 131.498   6.642  1.00 33.52     0.048 C 
HETATM   38  C38 BCR T 101     -34.794 130.843   7.363  1.00 36.86     0.044 C 
HETATM   39  C39 BCR T 101     -37.553 128.186  10.202  1.00 35.69     0.020 C 
HETATM   40  C40 BCR T 101     -37.578 127.033   8.081  1.00 29.24     0.020 C 
ENDROOT
TORSDOF 10
BEGIN_RES PHE A  61
REMARK  2 active torsions:
REMARK  status: ('A' for Active; 'I' for Inactive)
REMARK    1  A    between atoms: CA   and  CB  
REMARK    2  A    between atoms: CB   and  CG  
ROOT
ATOM      1  CA  PHE A  61     -36.237 128.293  12.768  1.00 39.40     0.164 C 
ENDROOT
BRANCH   1   2
ATOM      2  CB  PHE A  61     -36.813 128.951  11.509  1.00 39.41     0.058 C 
BRANCH   2   3
ATOM      3  CG  PHE A  61     -36.485 130.418  11.366  1.00 39.01    -0.020 A 
ATOM      4  CD2 PHE A  61     -37.475 131.382  11.470  1.00 40.32    -0.004 A 
ATOM      5  CE2 PHE A  61     -37.172 132.731  11.335  1.00 40.20    -0.000 A 
ATOM      6  CZ  PHE A  61     -35.877 133.131  11.098  1.00 40.34    -0.000 A 
ATOM      7  CE1 PHE A  61     -34.881 132.186  10.994  1.00 41.51    -0.000 A 
ATOM      8  CD1 PHE A  61     -35.184 130.836  11.123  1.00 39.94    -0.004 A 
ENDBRANCH   2   3
ENDBRANCH   1   2
END_RES PHE A  61
BEGIN_RES VAL A 134
REMARK  1 active torsions:
REMARK  status: ('A' for Active; 'I' for Inactive)
REMARK    3  A    between atoms: CA   and  CB  
ROOT
ATOM      9  CA  VAL A 134     -29.766 132.051   9.815  1.00 40.75     0.159 C 
ENDROOT
BRANCH   9  10
ATOM     10  CB  VAL A 134     -30.864 132.765   9.009  1.00 40.76     0.029 C 
ATOM     11  CG1 VAL A 134     -31.230 131.962   7.770  1.00 41.76     0.002 C 
ATOM     12  CG2 VAL A 134     -32.095 133.039   9.859  1.00 40.56     0.002 C 
ENDBRANCH   9  10
END_RES VAL A 134
BEGIN_RES TYR A 338
REMARK  3 active torsions:
REMARK  status: ('A' for Active; 'I' for Inactive)
REMARK    4  A    between atoms: CA   and  CB  
REMARK    5  A    between atoms: CB   and  CG  
REMARK    6  A    between atoms: CZ   and  OH  
ROOT
ATOM     13  CA  TYR A 338     -41.631 124.950   6.058  1.00 38.23     0.164 C 
ENDROOT
BRANCH  13  14
ATOM     14  CB  TYR A 338     -41.621 126.456   6.339  1.00 39.15     0.058 C 
BRANCH  14  15
ATOM     15  CG  TYR A 338     -40.424 127.214   5.813  1.00 39.03    -0.020 A 
ATOM     16  CD2 TYR A 338     -39.434 126.555   5.103  1.00 40.65    -0.002 A 
ATOM     17  CE2 TYR A 338     -38.315 127.215   4.620  1.00 40.91     0.024 A 
ATOM     18  CZ  TYR A 338     -38.167 128.571   4.846  1.00 42.33     0.089 A 
ATOM     19  CE1 TYR A 338     -39.145 129.252   5.549  1.00 40.63     0.024 A 
ATOM     20  CD1 TYR A 338     -40.250 128.571   6.035  1.00 39.27    -0.002 A 
BRANCH  18  21
ATOM     21  OH  TYR A 338     -37.069 129.233   4.370  1.00 43.36    -0.359 OA
ATOM     22  HH  TYR A 338     -37.087 130.176   4.262  1.00  0.00     0.217 HD
ENDBRANCH  18  21
ENDBRANCH  14  15
ENDBRANCH  13  14
END_RES TYR A 338
ENDMDL
MODEL 4
REMARK VINA RESULT:    -5.446      3.450      4.857
REMARK INTER + INTRA:          -9.727
REMARK INTER:                  -3.636
REMARK INTRA:                  -6.091
REMARK UNBOUND:                -4.280
REMARK  0 active torsions:
REMARK  status: ('A' for Active; 'I' for Inactive)
REMARK       I    between atoms: C6_6  and  C7_7 
REMARK       I    between atoms: C8_8  and  C9_9 
REMARK       I    between atoms: C10_10  and  C11_11 
REMARK       I    between atoms: C12_16  and  C13_17 
REMARK       I    between atoms: C14_18  and  C15_19 
REMARK       I    between atoms: C16_20  and  C17_21 
REMARK       I    between atoms: C18_22  and  C19_23 
REMARK       I    between atoms: C20_24  and  C21_25 
REMARK       I    between atoms: C22_26  and  C23_27 
REMARK       I    between atoms: C24_28  and  C25_29 
ROOT
HETATM    1  C1  BCR T 101     -34.529 127.196   4.635  1.00 41.70    -0.020 C 
HETATM    2  C2  BCR T 101     -33.809 125.988   4.047  1.00 42.78     0.014 C 
HETATM    3  C3  BCR T 101     -32.435 126.323   3.559  1.00 41.03     0.005 C 
HETATM    4  C4  BCR T 101     -31.598 126.846   4.685  1.00 43.70     0.034 C 
HETATM    5  C5  BCR T 101     -32.331 127.801   5.544  1.00 45.79    -0.077 C 
HETATM    6  C6  BCR T 101     -33.667 127.991   5.534  1.00 40.49    -0.048 C 
HETATM    7  C7  BCR T 101     -34.305 128.930   6.472  1.00 44.14     0.009 C 
HETATM    8  C8  BCR T 101     -35.312 129.765   6.199  1.00 36.42     0.007 C 
HETATM    9  C9  BCR T 101     -35.732 130.758   7.193  1.00 37.41    -0.062 C 
HETATM   10  C10 BCR T 101     -37.019 131.135   7.228  1.00 30.62     0.007 C 
HETATM   11  C11 BCR T 101     -37.641 131.953   8.227  1.00 28.97     0.001 C 
HETATM   12  C33 BCR T 101     -31.421 128.549   6.452  1.00 43.90     0.044 C 
HETATM   13  C31 BCR T 101     -35.709 126.599   5.373  1.00 32.30     0.020 C 
HETATM   14  C32 BCR T 101     -35.035 128.096   3.519  1.00 43.93     0.020 C 
HETATM   15  C34 BCR T 101     -34.794 131.113   8.290  1.00 35.44     0.048 C 
HETATM   16  C12 BCR T 101     -38.740 132.646   7.897  1.00 28.42     0.007 C 
HETATM   17  C13 BCR T 101     -39.379 133.665   8.728  1.00 29.67    -0.062 C 
HETATM   18  C14 BCR T 101     -40.688 133.971   8.536  1.00 27.65     0.007 C 
HETATM   19  C15 BCR T 101     -41.262 135.300   8.608  1.00 28.48     0.001 C 
HETATM   20  C16 BCR T 101     -42.525 135.493   9.027  1.00 25.66     0.001 C 
HETATM   21  C17 BCR T 101     -43.214 136.749   8.824  1.00 31.53     0.007 C 
HETATM   22  C18 BCR T 101     -44.538 136.965   8.937  1.00 35.11    -0.062 C 
HETATM   23  C19 BCR T 101     -44.994 138.278   9.387  1.00 31.55     0.007 C 
HETATM   24  C20 BCR T 101     -46.146 138.841   9.002  1.00 33.30     0.001 C 
HETATM   25  C21 BCR T 101     -46.470 140.210   9.368  1.00 34.76     0.007 C 
HETATM   26  C22 BCR T 101     -47.585 140.912   9.053  1.00 38.40    -0.062 C 
HETATM   27  C23 BCR T 101     -47.521 142.367   9.200  1.00 37.30     0.007 C 
HETATM   28  C24 BCR T 101     -48.566 143.192   9.118  1.00 34.14     0.009 C 
HETATM   29  C25 BCR T 101     -48.431 144.647   9.186  1.00 34.41    -0.048 C 
HETATM   30  C26 BCR T 101     -47.852 145.247  10.224  1.00 30.82    -0.077 C 
HETATM   31  C27 BCR T 101     -47.608 146.679  10.393  1.00 38.31     0.034 C 
HETATM   32  C28 BCR T 101     -47.709 147.410   9.084  1.00 33.34     0.005 C 
HETATM   33  C29 BCR T 101     -48.947 146.975   8.389  1.00 23.88     0.014 C 
HETATM   34  C30 BCR T 101     -48.970 145.472   8.063  1.00 29.76    -0.020 C 
HETATM   35  C35 BCR T 101     -38.523 134.481   9.614  1.00 34.50     0.048 C 
HETATM   36  C36 BCR T 101     -45.543 135.959   8.524  1.00 32.52     0.048 C 
HETATM   37  C37 BCR T 101     -48.915 140.271   8.926  1.00 33.52     0.048 C 
HETATM   38  C38 BCR T 101     -47.302 144.541  11.378  1.00 36.86     0.044 C 
HETATM   39  C39 BCR T 101     -48.271 145.163   6.751  1.00 35.69     0.020 C 
HETATM   40  C40 BCR T 101     -50.433 145.150   7.827  1.00 29.24     0.020 C 
ENDROOT
TORSDOF 10
BEGIN_RES PHE A  61
REMARK  2 active torsions:
REMARK  status: ('A' for Active; 'I' for Inactive)
REMARK    1  A    between atoms: CA   and  CB  
REMARK    2  A    between atoms: CB   and  CG  
ROOT
ATOM      1  CA  PHE A  61     -36.237 128.293  12.768  1.00 39.40     0.164 C 
ENDROOT
BRANCH   1   2
ATOM      2  CB  PHE A  61     -36.813 128.951  11.509  1.00 39.41     0.058 C 
BRANCH   2   3
ATOM      3  CG  PHE A  61     -36.668 128.127  10.252  1.00 39.01    -0.020 A 
ATOM      4  CD2 PHE A  61     -37.684 128.080   9.311  1.00 40.32    -0.004 A 
ATOM      5  CE2 PHE A  61     -37.550 127.319   8.156  1.00 40.20    -0.000 A 
ATOM      6  CZ  PHE A  61     -36.399 126.600   7.928  1.00 40.34    -0.000 A 
ATOM      7  CE1 PHE A  61     -35.379 126.638   8.853  1.00 41.51    -0.000 A 
ATOM      8  CD1 PHE A  61     -35.515 127.393  10.011  1.00 39.94    -0.004 A 
ENDBRANCH   2   3
ENDBRANCH   1   2
END_RES PHE A  61
BEGIN_RES VAL A 134
REMARK  1 active torsions:
REMARK  status: ('A' for Active; 'I' for Inactive)
REMARK    3  A    between atoms: CA   and  CB  
ROOT
ATOM      9  CA  VAL A 134     -29.766 132.051   9.815  1.00 40.75     0.159 C 
ENDROOT
BRANCH   9  10
ATOM     10  CB  VAL A 134     -30.864 132.765   9.009  1.00 40.76     0.029 C 
ATOM     11  CG1 VAL A 134     -31.219 131.970   7.761  1.00 41.76     0.002 C 
ATOM     12  CG2 VAL A 134     -32.101 133.025   9.854  1.00 40.56     0.002 C 
ENDBRANCH   9  10
END_RES VAL A 134
BEGIN_RES TYR A 338
REMARK  3 active torsions:
REMARK  status: ('A' for Active; 'I' for Inactive)
REMARK    4  A    between atoms: CA   and  CB  
REMARK    5  A    between atoms: CB   and  CG  
REMARK    6  A    between atoms: CZ   and  OH  
ROOT
ATOM     13  CA  TYR A 338     -41.631 124.950   6.058  1.00 38.23     0.164 C 
ENDROOT
BRANCH  13  14
ATOM     14  CB  TYR A 338     -41.621 126.456   6.339  1.00 39.15     0.058 C 
BRANCH  14  15
ATOM     15  CG  TYR A 338     -40.440 127.219   5.784  1.00 39.03    -0.020 A 
ATOM     16  CD2 TYR A 338     -40.241 128.546   6.125  1.00 40.65    -0.002 A 
ATOM     17  CE2 TYR A 338     -39.178 129.281   5.622  1.00 40.91     0.024 A 
ATOM     18  CZ  TYR A 338     -38.282 128.686   4.754  1.00 42.33     0.089 A 
ATOM     19  CE1 TYR A 338     -38.458 127.359   4.402  1.00 40.63     0.024 A 
ATOM     20  CD1 TYR A 338     -39.535 126.646   4.905  1.00 39.27    -0.002 A 
BRANCH  18  21
ATOM     21  OH  TYR A 338     -37.228 129.399   4.256  1.00 43.36    -0.359 OA
ATOM     22  HH  TYR A 338     -37.016 129.361   3.330  1.00  0.00     0.217 HD
ENDBRANCH  18  21
ENDBRANCH  14  15
ENDBRANCH  13  14
END_RES TYR A 338
ENDMDL
MODEL 5
REMARK VINA RESULT:    -5.385      2.628      3.498
REMARK INTER + INTRA:          -9.666
REMARK INTER:                  -3.092
REMARK INTRA:                  -6.573
REMARK UNBOUND:                -4.280
REMARK  0 active torsions:
REMARK  status: ('A' for Active; 'I' for Inactive)
REMARK       I    between atoms: C6_6  and  C7_7 
REMARK       I    between atoms: C8_8  and  C9_9 
REMARK       I    between atoms: C10_10  and  C11_11 
REMARK       I    between atoms: C12_16  and  C13_17 
REMARK       I    between atoms: C14_18  and  C15_19 
REMARK       I    between atoms: C16_20  and  C17_21 
REMARK       I    between atoms: C18_22  and  C19_23 
REMARK       I    between atoms: C20_24  and  C21_25 
REMARK       I    between atoms: C22_26  and  C23_27 
REMARK       I    between atoms: C24_28  and  C25_29 
ROOT
HETATM    1  C1  BCR T 101     -34.222 130.067   6.784  1.00 41.70    -0.020 C 
HETATM    2  C2  BCR T 101     -33.364 128.939   6.223  1.00 42.78     0.014 C 
HETATM    3  C3  BCR T 101     -31.997 128.904   6.829  1.00 41.03     0.005 C 
HETATM    4  C4  BCR T 101     -32.091 128.709   8.310  1.00 43.70     0.034 C 
HETATM    5  C5  BCR T 101     -33.153 129.533   8.927  1.00 45.79    -0.077 C 
HETATM    6  C6  BCR T 101     -34.131 130.175   8.254  1.00 40.49    -0.048 C 
HETATM    7  C7  BCR T 101     -35.175 130.926   8.971  1.00 44.14     0.009 C 
HETATM    8  C8  BCR T 101     -35.697 132.103   8.612  1.00 36.42     0.007 C 
HETATM    9  C9  BCR T 101     -36.612 132.807   9.515  1.00 37.41    -0.062 C 
HETATM   10  C10 BCR T 101     -37.573 133.581   8.988  1.00 30.62     0.007 C 
HETATM   11  C11 BCR T 101     -38.653 134.201   9.698  1.00 28.97     0.001 C 
HETATM   12  C33 BCR T 101     -33.035 129.580  10.409  1.00 43.90     0.044 C 
HETATM   13  C31 BCR T 101     -35.626 129.723   6.333  1.00 32.30     0.020 C 
HETATM   14  C32 BCR T 101     -33.805 131.394   6.169  1.00 43.93     0.020 C 
HETATM   15  C34 BCR T 101     -36.622 132.437  10.955  1.00 35.44     0.048 C 
HETATM   16  C12 BCR T 101     -39.213 135.303   9.181  1.00 28.42     0.007 C 
HETATM   17  C13 BCR T 101     -40.182 136.159   9.863  1.00 29.67    -0.062 C 
HETATM   18  C14 BCR T 101     -41.013 136.952   9.136  1.00 27.65     0.007 C 
HETATM   19  C15 BCR T 101     -41.412 138.300   9.489  1.00 28.48     0.001 C 
HETATM   20  C16 BCR T 101     -42.620 138.782   9.148  1.00 25.66     0.001 C 
HETATM   21  C17 BCR T 101     -42.927 140.194   9.215  1.00 31.53     0.007 C 
HETATM   22  C18 BCR T 101     -43.976 140.816   8.644  1.00 35.11    -0.062 C 
HETATM   23  C19 BCR T 101     -44.539 141.987   9.311  1.00 31.55     0.007 C 
HETATM   24  C20 BCR T 101     -45.110 143.012   8.665  1.00 33.30     0.001 C 
HETATM   25  C21 BCR T 101     -45.515 144.213   9.376  1.00 34.76     0.007 C 
HETATM   26  C22 BCR T 101     -46.096 145.324   8.864  1.00 38.40    -0.062 C 
HETATM   27  C23 BCR T 101     -46.063 146.534   9.687  1.00 37.30     0.007 C 
HETATM   28  C24 BCR T 101     -46.739 147.655   9.431  1.00 34.14     0.009 C 
HETATM   29  C25 BCR T 101     -46.600 148.865  10.241  1.00 34.41    -0.048 C 
HETATM   30  C26 BCR T 101     -46.823 148.856  11.553  1.00 30.82    -0.077 C 
HETATM   31  C27 BCR T 101     -46.671 149.975  12.482  1.00 38.31     0.034 C 
HETATM   32  C28 BCR T 101     -45.835 151.072  11.887  1.00 33.34     0.005 C 
HETATM   33  C29 BCR T 101     -46.321 151.349  10.511  1.00 23.88     0.014 C 
HETATM   34  C30 BCR T 101     -46.208 150.140   9.567  1.00 29.76    -0.020 C 
HETATM   35  C35 BCR T 101     -40.087 136.292  11.331  1.00 34.50     0.048 C 
HETATM   36  C36 BCR T 101     -44.508 140.417   7.321  1.00 32.52     0.048 C 
HETATM   37  C37 BCR T 101     -47.040 145.271   7.723  1.00 33.52     0.048 C 
HETATM   38  C38 BCR T 101     -47.221 147.672  12.310  1.00 36.86     0.044 C 
HETATM   39  C39 BCR T 101     -44.833 150.040   8.930  1.00 35.69     0.020 C 
HETATM   40  C40 BCR T 101     -47.160 150.448   8.427  1.00 29.24     0.020 C 
ENDROOT
TORSDOF 10
BEGIN_RES PHE A  61
REMARK  2 active torsions:
REMARK  status: ('A' for Active; 'I' for Inactive)
REMARK    1  A    between atoms: CA   and  CB  
REMARK    2  A    between atoms: CB   and  CG  
ROOT
ATOM      1  CA  PHE A  61     -36.237 128.293  12.768  1.00 39.40     0.164 C 
ENDROOT
BRANCH   1   2
ATOM      2  CB  PHE A  61     -36.813 128.951  11.509  1.00 39.41     0.058 C 
BRANCH   2   3
ATOM      3  CG  PHE A  61     -36.639 128.141  10.246  1.00 39.01    -0.020 A 
ATOM      4  CD2 PHE A  61     -35.511 127.361  10.052  1.00 40.32    -0.004 A 
ATOM      5  CE2 PHE A  61     -35.350 126.619   8.888  1.00 40.20    -0.000 A 
ATOM      6  CZ  PHE A  61     -36.317 126.646   7.909  1.00 40.34    -0.000 A 
ATOM      7  CE1 PHE A  61     -37.445 127.415   8.088  1.00 41.51    -0.000 A 
ATOM      8  CD1 PHE A  61     -37.603 128.162   9.249  1.00 39.94    -0.004 A 
ENDBRANCH   2   3
ENDBRANCH   1   2
END_RES PHE A  61
BEGIN_RES VAL A 134
REMARK  1 active torsions:
REMARK  status: ('A' for Active; 'I' for Inactive)
REMARK    3  A    between atoms: CA   and  CB  
ROOT
ATOM      9  CA  VAL A 134     -29.766 132.051   9.815  1.00 40.75     0.159 C 
ENDROOT
BRANCH   9  10
ATOM     10  CB  VAL A 134     -30.864 132.765   9.009  1.00 40.76     0.029 C 
ATOM     11  CG1 VAL A 134     -31.014 132.138   7.631  1.00 41.76     0.002 C 
ATOM     12  CG2 VAL A 134     -32.193 132.767   9.749  1.00 40.56     0.002 C 
ENDBRANCH   9  10
END_RES VAL A 134
BEGIN_RES TYR A 338
REMARK  3 active torsions:
REMARK  status: ('A' for Active; 'I' for Inactive)
REMARK    4  A    between atoms: CA   and  CB  
REMARK    5  A    between atoms: CB   and  CG  
REMARK    6  A    between atoms: CZ   and  OH  
ROOT
ATOM     13  CA  TYR A 338     -41.631 124.950   6.058  1.00 38.23     0.164 C 
ENDROOT
BRANCH  13  14
ATOM     14  CB  TYR A 338     -41.621 126.456   6.339  1.00 39.15     0.058 C 
BRANCH  14  15
ATOM     15  CG  TYR A 338     -40.419 127.212   5.821  1.00 39.03    -0.020 A 
ATOM     16  CD2 TYR A 338     -40.259 128.557   6.110  1.00 40.65    -0.002 A 
ATOM     17  CE2 TYR A 338     -39.178 129.285   5.638  1.00 40.91     0.024 A 
ATOM     18  CZ  TYR A 338     -38.223 128.666   4.853  1.00 42.33     0.089 A 
ATOM     19  CE1 TYR A 338     -38.359 127.321   4.555  1.00 40.63     0.024 A 
ATOM     20  CD1 TYR A 338     -39.454 126.614   5.026  1.00 39.27    -0.002 A 
BRANCH  18  21
ATOM     21  OH  TYR A 338     -37.151 129.373   4.386  1.00 43.36    -0.359 OA
ATOM     22  HH  TYR A 338     -36.794 130.095   4.891  1.00  0.00     0.217 HD
ENDBRANCH  18  21
ENDBRANCH  14  15
ENDBRANCH  13  14
END_RES TYR A 338
ENDMDL
MODEL 6
REMARK VINA RESULT:    -5.187      1.233      1.759
REMARK INTER + INTRA:          -9.467
REMARK INTER:                  -7.825
REMARK INTRA:                  -1.642
REMARK UNBOUND:                -4.280
REMARK  0 active torsions:
REMARK  status: ('A' for Active; 'I' for Inactive)
REMARK       I    between atoms: C6_6  and  C7_7 
REMARK       I    between atoms: C8_8  and  C9_9 
REMARK       I    between atoms: C10_10  and  C11_11 
REMARK       I    between atoms: C12_16  and  C13_17 
REMARK       I    between atoms: C14_18  and  C15_19 
REMARK       I    between atoms: C16_20  and  C17_21 
REMARK       I    between atoms: C18_22  and  C19_23 
REMARK       I    between atoms: C20_24  and  C21_25 
REMARK       I    between atoms: C22_26  and  C23_27 
REMARK       I    between atoms: C24_28  and  C25_29 
ROOT
HETATM    1  C1  BCR T 101     -34.129 129.045   7.546  1.00 41.70    -0.020 C 
HETATM    2  C2  BCR T 101     -33.092 127.982   7.204  1.00 42.78     0.014 C 
HETATM    3  C3  BCR T 101     -33.291 126.719   7.980  1.00 41.03     0.005 C 
HETATM    4  C4  BCR T 101     -34.643 126.142   7.696  1.00 43.70     0.034 C 
HETATM    5  C5  BCR T 101     -35.707 127.170   7.669  1.00 45.79    -0.077 C 
HETATM    6  C6  BCR T 101     -35.501 128.502   7.614  1.00 40.49    -0.048 C 
HETATM    7  C7  BCR T 101     -36.634 129.440   7.536  1.00 44.14     0.009 C 
HETATM    8  C8  BCR T 101     -36.740 130.614   8.166  1.00 36.42     0.007 C 
HETATM    9  C9  BCR T 101     -38.001 131.361   8.119  1.00 37.41    -0.062 C 
HETATM   10  C10 BCR T 101     -37.961 132.700   8.172  1.00 30.62     0.007 C 
HETATM   11  C11 BCR T 101     -39.063 133.595   7.968  1.00 28.97     0.001 C 
HETATM   12  C33 BCR T 101     -37.067 126.569   7.705  1.00 43.90     0.044 C 
HETATM   13  C31 BCR T 101     -33.986 130.069   6.439  1.00 32.30     0.020 C 
HETATM   14  C32 BCR T 101     -33.792 129.693   8.880  1.00 43.93     0.020 C 
HETATM   15  C34 BCR T 101     -39.247 130.639   7.750  1.00 35.44     0.048 C 
HETATM   16  C12 BCR T 101     -39.012 134.813   8.524  1.00 28.42     0.007 C 
HETATM   17  C13 BCR T 101     -40.121 135.766   8.576  1.00 29.67    -0.062 C 
HETATM   18  C14 BCR T 101     -39.866 137.091   8.732  1.00 27.65     0.007 C 
HETATM   19  C15 BCR T 101     -40.647 138.009   9.538  1.00 28.48     0.001 C 
HETATM   20  C16 BCR T 101     -40.769 139.304   9.199  1.00 25.66     0.001 C 
HETATM   21  C17 BCR T 101     -41.276 140.293  10.125  1.00 31.53     0.007 C 
HETATM   22  C18 BCR T 101     -41.179 141.630  10.005  1.00 35.11    -0.062 C 
HETATM   23  C19 BCR T 101     -42.249 142.459  10.556  1.00 31.55     0.007 C 
HETATM   24  C20 BCR T 101     -42.062 143.689  11.050  1.00 33.30     0.001 C 
HETATM   25  C21 BCR T 101     -43.139 144.400  11.717  1.00 34.76     0.007 C 
HETATM   26  C22 BCR T 101     -43.102 145.637  12.267  1.00 38.40    -0.062 C 
HETATM   27  C23 BCR T 101     -44.173 145.984  13.204  1.00 37.30     0.007 C 
HETATM   28  C24 BCR T 101     -44.400 147.206  13.690  1.00 34.14     0.009 C 
HETATM   29  C25 BCR T 101     -45.430 147.477  14.693  1.00 34.41    -0.048 C 
HETATM   30  C26 BCR T 101     -46.707 147.162  14.484  1.00 30.82    -0.077 C 
HETATM   31  C27 BCR T 101     -47.821 147.332  15.416  1.00 38.31     0.034 C 
HETATM   32  C28 BCR T 101     -47.333 147.530  16.823  1.00 33.34     0.005 C 
HETATM   33  C29 BCR T 101     -46.252 148.548  16.814  1.00 23.88     0.014 C 
HETATM   34  C30 BCR T 101     -45.031 148.136  15.973  1.00 29.76    -0.020 C 
HETATM   35  C35 BCR T 101     -41.496 135.233   8.667  1.00 34.50     0.048 C 
HETATM   36  C36 BCR T 101     -39.984 142.289   9.430  1.00 32.52     0.048 C 
HETATM   37  C37 BCR T 101     -42.273 146.730  11.705  1.00 33.52     0.048 C 
HETATM   38  C38 BCR T 101     -47.208 146.529  13.268  1.00 36.86     0.044 C 
HETATM   39  C39 BCR T 101     -44.055 147.284  16.764  1.00 35.69     0.020 C 
HETATM   40  C40 BCR T 101     -44.299 149.434  15.692  1.00 29.24     0.020 C 
ENDROOT
TORSDOF 10
BEGIN_RES PHE A  61
REMARK  2 active torsions:
REMARK  status: ('A' for Active; 'I' for Inactive)
REMARK    1  A    between atoms: CA   and  CB  
REMARK    2  A    between atoms: CB   and  CG  
ROOT
ATOM      1  CA  PHE A  61     -36.237 128.293  12.768  1.00 39.40     0.164 C 
ENDROOT
BRANCH   1   2
ATOM      2  CB  PHE A  61     -36.813 128.951  11.509  1.00 39.41     0.058 C 
BRANCH   2   3
ATOM      3  CG  PHE A  61     -36.514 130.426  11.383  1.00 39.01    -0.020 A 
ATOM      4  CD2 PHE A  61     -35.244 130.868  11.049  1.00 40.32    -0.004 A 
ATOM      5  CE2 PHE A  61     -34.969 132.226  10.937  1.00 40.20    -0.000 A 
ATOM      6  CZ  PHE A  61     -35.962 133.154  11.153  1.00 40.34    -0.000 A 
ATOM      7  CE1 PHE A  61     -37.230 132.731  11.484  1.00 41.51    -0.000 A 
ATOM      8  CD1 PHE A  61     -37.503 131.374  11.603  1.00 39.94    -0.004 A 
ENDBRANCH   2   3
ENDBRANCH   1   2
END_RES PHE A  61
BEGIN_RES VAL A 134
REMARK  1 active torsions:
REMARK  status: ('A' for Active; 'I' for Inactive)
REMARK    3  A    between atoms: CA   and  CB  
ROOT
ATOM      9  CA  VAL A 134     -29.766 132.051   9.815  1.00 40.75     0.159 C 
ENDROOT
BRANCH   9  10
ATOM     10  CB  VAL A 134     -30.864 132.765   9.009  1.00 40.76     0.029 C 
ATOM     11  CG1 VAL A 134     -31.191 131.990   7.741  1.00 41.76     0.002 C 
ATOM     12  CG2 VAL A 134     -32.116 132.990   9.843  1.00 40.56     0.002 C 
ENDBRANCH   9  10
END_RES VAL A 134
BEGIN_RES TYR A 338
REMARK  3 active torsions:
REMARK  status: ('A' for Active; 'I' for Inactive)
REMARK    4  A    between atoms: CA   and  CB  
REMARK    5  A    between atoms: CB   and  CG  
REMARK    6  A    between atoms: CZ   and  OH  
ROOT
ATOM     13  CA  TYR A 338     -41.631 124.950   6.058  1.00 38.23     0.164 C 
ENDROOT
BRANCH  13  14
ATOM     14  CB  TYR A 338     -41.621 126.456   6.339  1.00 39.15     0.058 C 
BRANCH  14  15
ATOM     15  CG  TYR A 338     -40.429 127.215   5.803  1.00 39.03    -0.020 A 
ATOM     16  CD2 TYR A 338     -39.410 126.547   5.147  1.00 40.65    -0.002 A 
ATOM     17  CE2 TYR A 338     -38.295 127.209   4.657  1.00 40.91     0.024 A 
ATOM     18  CZ  TYR A 338     -38.181 128.577   4.822  1.00 42.33     0.089 A 
ATOM     19  CE1 TYR A 338     -39.190 129.268   5.470  1.00 40.63     0.024 A 
ATOM     20  CD1 TYR A 338     -40.290 128.585   5.965  1.00 39.27    -0.002 A 
BRANCH  18  21
ATOM     21  OH  TYR A 338     -37.089 129.241   4.339  1.00 43.36    -0.359 OA
ATOM     22  HH  TYR A 338     -36.882 129.217   3.411  1.00  0.00     0.217 HD
ENDBRANCH  18  21
ENDBRANCH  14  15
ENDBRANCH  13  14
END_RES TYR A 338
ENDMDL
