MODEL 1
REMARK VINA RESULT:    -9.495      0.000      0.000
REMARK INTER + INTRA:         -16.290
REMARK INTER:                  -9.495
REMARK INTRA:                  -6.795
REMARK UNBOUND:                -6.795
REMARK  0 active torsions:
REMARK  status: ('A' for Active; 'I' for Inactive)
REMARK       I    between atoms: C6_6  and  C7_7 
REMARK       I    between atoms: C8_8  and  C9_9 
REMARK       I    between atoms: C10_10  and  C11_11 
REMARK       I    between atoms: C12_16  and  C13_17 
REMARK       I    between atoms: C14_18  and  C15_19 
REMARK       I    between atoms: C16_20  and  C17_21 
REMARK       I    between atoms: C18_22  and  C19_23 
REMARK       I    between atoms: C20_24  and  C21_25 
REMARK       I    between atoms: C22_26  and  C23_27 
REMARK       I    between atoms: C24_28  and  C25_29 
ROOT
HETATM    1  C1  BCR H 101     -51.231 149.536  10.258  1.00 30.28    -0.020 C 
HETATM    2  C2  BCR H 101     -52.441 150.326   9.755  1.00 26.44     0.014 C 
HETATM    3  C3  BCR H 101     -52.596 150.264   8.239  1.00 21.67     0.005 C 
HETATM    4  C4  BCR H 101     -51.388 150.934   7.634  1.00 20.41     0.034 C 
HETATM    5  C5  BCR H 101     -50.080 150.384   8.181  1.00 27.23    -0.077 C 
HETATM    6  C6  BCR H 101     -49.987 149.756   9.385  1.00 20.11    -0.048 C 
HETATM    7  C7  BCR H 101     -48.731 149.179   9.971  1.00 20.66     0.009 C 
HETATM    8  C8  BCR H 101     -47.642 148.686   9.357  1.00 22.34     0.007 C 
HETATM    9  C9  BCR H 101     -46.502 148.093  10.107  1.00 34.94    -0.062 C 
HETATM   10  C10 BCR H 101     -45.759 147.147   9.495  1.00 21.22     0.007 C 
HETATM   11  C11 BCR H 101     -44.624 146.431  10.097  1.00 28.87     0.001 C 
HETATM   12  C33 BCR H 101     -48.911 150.633   7.258  1.00 23.66     0.044 C 
HETATM   13  C31 BCR H 101     -51.546 148.044  10.230  1.00 19.41     0.020 C 
HETATM   14  C32 BCR H 101     -51.009 149.899  11.740  1.00 20.38     0.020 C 
HETATM   15  C34 BCR H 101     -46.213 148.504  11.523  1.00 27.97     0.048 C 
HETATM   16  C12 BCR H 101     -44.223 145.290   9.516  1.00 26.46     0.007 C 
HETATM   17  C13 BCR H 101     -43.107 144.429   9.987  1.00 41.86    -0.062 C 
HETATM   18  C14 BCR H 101     -42.875 143.255   9.349  1.00 35.90     0.007 C 
HETATM   19  C15 BCR H 101     -41.810 142.285   9.670  1.00 29.55     0.001 C 
HETATM   20  C16 BCR H 101     -41.777 141.087   9.044  1.00 30.73     0.001 C 
HETATM   21  C17 BCR H 101     -40.727 140.083   9.293  1.00 38.08     0.007 C 
HETATM   22  C18 BCR H 101     -40.783 138.819   8.805  1.00 36.14    -0.062 C 
HETATM   23  C19 BCR H 101     -39.689 137.854   9.079  1.00 38.04     0.007 C 
HETATM   24  C20 BCR H 101     -39.710 136.553   8.738  1.00 32.76     0.001 C 
HETATM   25  C21 BCR H 101     -38.539 135.733   9.087  1.00 37.36     0.007 C 
HETATM   26  C22 BCR H 101     -38.445 134.407   8.855  1.00 42.44    -0.062 C 
HETATM   27  C23 BCR H 101     -37.329 133.720   9.207  1.00 37.41     0.007 C 
HETATM   28  C24 BCR H 101     -37.170 132.402   8.967  1.00 28.37     0.009 C 
HETATM   29  C25 BCR H 101     -35.973 131.584   9.353  1.00 39.73    -0.048 C 
HETATM   30  C26 BCR H 101     -35.768 131.240  10.643  1.00 39.78    -0.077 C 
HETATM   31  C27 BCR H 101     -34.597 130.405  11.119  1.00 29.87     0.034 C 
HETATM   32  C28 BCR H 101     -33.503 130.197  10.086  1.00 35.21     0.005 C 
HETATM   33  C29 BCR H 101     -34.098 129.978   8.701  1.00 34.71     0.014 C 
HETATM   34  C30 BCR H 101     -35.013 131.126   8.267  1.00 48.99    -0.020 C 
HETATM   35  C35 BCR H 101     -42.275 144.863  11.158  1.00 43.67     0.048 C 
HETATM   36  C36 BCR H 101     -41.957 138.377   7.983  1.00 38.66     0.048 C 
HETATM   37  C37 BCR H 101     -39.608 133.706   8.219  1.00 32.15     0.048 C 
HETATM   38  C38 BCR H 101     -36.734 131.676  11.710  1.00 38.36     0.044 C 
HETATM   39  C39 BCR H 101     -35.833 130.634   7.079  1.00 45.00     0.020 C 
HETATM   40  C40 BCR H 101     -34.182 132.315   7.804  1.00 59.25     0.020 C 
ENDROOT
TORSDOF 10
BEGIN_RES PHE A  61
REMARK  2 active torsions:
REMARK  status: ('A' for Active; 'I' for Inactive)
REMARK    1  A    between atoms: CA   and  CB  
REMARK    2  A    between atoms: CB   and  CG  
ROOT
ATOM      1  CA  PHE A  61     -36.237 128.293  12.768  1.00 39.40     0.164 C 
ENDROOT
BRANCH   1   2
ATOM      2  CB  PHE A  61     -36.813 128.951  11.509  1.00 39.41     0.058 C 
BRANCH   2   3
ATOM      3  CG  PHE A  61     -36.658 128.132  10.250  1.00 39.01    -0.020 A 
ATOM      4  CD2 PHE A  61     -35.542 127.334  10.053  1.00 40.32    -0.004 A 
ATOM      5  CE2 PHE A  61     -35.399 126.583   8.893  1.00 40.20    -0.000 A 
ATOM      6  CZ  PHE A  61     -36.372 126.618   7.920  1.00 40.34    -0.000 A 
ATOM      7  CE1 PHE A  61     -37.489 127.404   8.102  1.00 41.51    -0.000 A 
ATOM      8  CD1 PHE A  61     -37.628 128.160   9.258  1.00 39.94    -0.004 A 
ENDBRANCH   2   3
ENDBRANCH   1   2
END_RES PHE A  61
BEGIN_RES VAL A 134
REMARK  1 active torsions:
REMARK  status: ('A' for Active; 'I' for Inactive)
REMARK    3  A    between atoms: CA   and  CB  
ROOT
ATOM      9  CA  VAL A 134     -29.766 132.051   9.815  1.00 40.75     0.159 C 
ENDROOT
BRANCH   9  10
ATOM     10  CB  VAL A 134     -30.864 132.765   9.009  1.00 40.76     0.029 C 
ATOM     11  CG1 VAL A 134     -31.226 131.964   7.767  1.00 41.76     0.002 C 
ATOM     12  CG2 VAL A 134     -32.098 133.034   9.857  1.00 40.56     0.002 C 
ENDBRANCH   9  10
END_RES VAL A 134
BEGIN_RES TYR A 338
REMARK  3 active torsions:
REMARK  status: ('A' for Active; 'I' for Inactive)
REMARK    4  A    between atoms: CA   and  CB  
REMARK    5  A    between atoms: CB   and  CG  
REMARK    6  A    between atoms: CZ   and  OH  
ROOT
ATOM     13  CA  TYR A 338     -41.631 124.950   6.058  1.00 38.23     0.164 C 
ENDROOT
BRANCH  13  14
ATOM     14  CB  TYR A 338     -41.621 126.456   6.339  1.00 39.15     0.058 C 
BRANCH  14  15
ATOM     15  CG  TYR A 338     -40.399 127.205   5.860  1.00 39.03    -0.020 A 
ATOM     16  CD2 TYR A 338     -40.221 128.538   6.186  1.00 40.65    -0.002 A 
ATOM     17  CE2 TYR A 338     -39.120 129.260   5.751  1.00 40.91     0.024 A 
ATOM     18  CZ  TYR A 338     -38.164 128.645   4.966  1.00 42.33     0.089 A 
ATOM     19  CE1 TYR A 338     -38.316 127.312   4.630  1.00 40.63     0.024 A 
ATOM     20  CD1 TYR A 338     -39.431 126.611   5.064  1.00 39.27    -0.002 A 
BRANCH  18  21
ATOM     21  OH  TYR A 338     -37.072 129.346   4.534  1.00 43.36    -0.359 OA
ATOM     22  HH  TYR A 338     -36.195 129.034   4.724  1.00  0.00     0.217 HD
ENDBRANCH  18  21
ENDBRANCH  14  15
ENDBRANCH  13  14
END_RES TYR A 338
ENDMDL
MODEL 2
REMARK VINA RESULT:    -7.015      2.098     16.654
REMARK INTER + INTRA:         -13.810
REMARK INTER:                 -10.958
REMARK INTRA:                  -2.852
REMARK UNBOUND:                -6.795
REMARK  0 active torsions:
REMARK  status: ('A' for Active; 'I' for Inactive)
REMARK       I    between atoms: C6_6  and  C7_7 
REMARK       I    between atoms: C8_8  and  C9_9 
REMARK       I    between atoms: C10_10  and  C11_11 
REMARK       I    between atoms: C12_16  and  C13_17 
REMARK       I    between atoms: C14_18  and  C15_19 
REMARK       I    between atoms: C16_20  and  C17_21 
REMARK       I    between atoms: C18_22  and  C19_23 
REMARK       I    between atoms: C20_24  and  C21_25 
REMARK       I    between atoms: C22_26  and  C23_27 
REMARK       I    between atoms: C24_28  and  C25_29 
ROOT
HETATM    1  C1  BCR H 101     -31.914 130.055   6.987  1.00 30.28    -0.020 C 
HETATM    2  C2  BCR H 101     -31.021 129.076   6.223  1.00 26.44     0.014 C 
HETATM    3  C3  BCR H 101     -31.713 128.475   5.004  1.00 21.67     0.005 C 
HETATM    4  C4  BCR H 101     -32.881 127.661   5.504  1.00 20.41     0.034 C 
HETATM    5  C5  BCR H 101     -33.779 128.447   6.445  1.00 27.23    -0.077 C 
HETATM    6  C6  BCR H 101     -33.351 129.534   7.142  1.00 20.11    -0.048 C 
HETATM    7  C7  BCR H 101     -34.193 130.360   8.073  1.00 20.66     0.009 C 
HETATM    8  C8  BCR H 101     -35.517 130.586   8.062  1.00 22.34     0.007 C 
HETATM    9  C9  BCR H 101     -36.180 131.490   9.040  1.00 34.94    -0.062 C 
HETATM   10  C10 BCR H 101     -37.318 132.113   8.664  1.00 21.22     0.007 C 
HETATM   11  C11 BCR H 101     -38.082 133.065   9.484  1.00 28.87     0.001 C 
HETATM   12  C33 BCR H 101     -35.174 127.875   6.533  1.00 23.66     0.044 C 
HETATM   13  C31 BCR H 101     -31.993 131.376   6.227  1.00 19.41     0.020 C 
HETATM   14  C32 BCR H 101     -31.231 130.374   8.331  1.00 20.38     0.020 C 
HETATM   15  C34 BCR H 101     -35.577 131.740  10.393  1.00 27.97     0.048 C 
HETATM   16  C12 BCR H 101     -38.963 133.862   8.863  1.00 26.46     0.007 C 
HETATM   17  C13 BCR H 101     -39.813 134.887   9.522  1.00 41.86    -0.062 C 
HETATM   18  C14 BCR H 101     -40.594 135.682   8.750  1.00 35.90     0.007 C 
HETATM   19  C15 BCR H 101     -41.505 136.740   9.231  1.00 29.55     0.001 C 
HETATM   20  C16 BCR H 101     -42.122 137.553   8.344  1.00 30.73     0.001 C 
HETATM   21  C17 BCR H 101     -43.065 138.609   8.751  1.00 38.08     0.007 C 
HETATM   22  C18 BCR H 101     -43.551 139.538   7.889  1.00 36.14    -0.062 C 
HETATM   23  C19 BCR H 101     -44.509 140.573   8.354  1.00 38.04     0.007 C 
HETATM   24  C20 BCR H 101     -44.952 141.599   7.606  1.00 32.76     0.001 C 
HETATM   25  C21 BCR H 101     -45.903 142.537   8.224  1.00 37.36     0.007 C 
HETATM   26  C22 BCR H 101     -46.388 143.638   7.612  1.00 42.44    -0.062 C 
HETATM   27  C23 BCR H 101     -47.262 144.456   8.250  1.00 37.41     0.007 C 
HETATM   28  C24 BCR H 101     -47.804 145.548   7.673  1.00 28.37     0.009 C 
HETATM   29  C25 BCR H 101     -48.755 146.503   8.333  1.00 39.73    -0.048 C 
HETATM   30  C26 BCR H 101     -48.311 147.375   9.264  1.00 39.78    -0.077 C 
HETATM   31  C27 BCR H 101     -49.197 148.382   9.969  1.00 29.87     0.034 C 
HETATM   32  C28 BCR H 101     -50.687 148.172   9.761  1.00 35.21     0.005 C 
HETATM   33  C29 BCR H 101     -50.983 147.750   8.328  1.00 34.71     0.014 C 
HETATM   34  C30 BCR H 101     -50.217 146.490   7.917  1.00 48.99    -0.020 C 
HETATM   35  C35 BCR H 101     -39.779 135.033  11.016  1.00 43.67     0.048 C 
HETATM   36  C36 BCR H 101     -43.120 139.535   6.452  1.00 38.66     0.048 C 
HETATM   37  C37 BCR H 101     -45.923 143.949   6.221  1.00 32.15     0.048 C 
HETATM   38  C38 BCR H 101     -46.859 147.399   9.654  1.00 38.36     0.044 C 
HETATM   39  C39 BCR H 101     -50.283 146.389   6.397  1.00 45.00     0.020 C 
HETATM   40  C40 BCR H 101     -50.889 145.253   8.499  1.00 59.25     0.020 C 
ENDROOT
TORSDOF 10
BEGIN_RES PHE A  61
REMARK  2 active torsions:
REMARK  status: ('A' for Active; 'I' for Inactive)
REMARK    1  A    between atoms: CA   and  CB  
REMARK    2  A    between atoms: CB   and  CG  
ROOT
ATOM      1  CA  PHE A  61     -36.237 128.293  12.768  1.00 39.40     0.164 C 
ENDROOT
BRANCH   1   2
ATOM      2  CB  PHE A  61     -36.813 128.951  11.509  1.00 39.41     0.058 C 
BRANCH   2   3
ATOM      3  CG  PHE A  61     -36.832 128.058  10.291  1.00 39.01    -0.020 A 
ATOM      4  CD2 PHE A  61     -37.909 128.068   9.419  1.00 40.32    -0.004 A 
ATOM      5  CE2 PHE A  61     -37.926 127.244   8.300  1.00 40.20    -0.000 A 
ATOM      6  CZ  PHE A  61     -36.867 126.404   8.040  1.00 40.34    -0.000 A 
ATOM      7  CE1 PHE A  61     -35.789 126.384   8.897  1.00 41.51    -0.000 A 
ATOM      8  CD1 PHE A  61     -35.774 127.203  10.019  1.00 39.94    -0.004 A 
ENDBRANCH   2   3
ENDBRANCH   1   2
END_RES PHE A  61
BEGIN_RES VAL A 134
REMARK  1 active torsions:
REMARK  status: ('A' for Active; 'I' for Inactive)
REMARK    3  A    between atoms: CA   and  CB  
ROOT
ATOM      9  CA  VAL A 134     -29.766 132.051   9.815  1.00 40.75     0.159 C 
ENDROOT
BRANCH   9  10
ATOM     10  CB  VAL A 134     -30.864 132.765   9.009  1.00 40.76     0.029 C 
ATOM     11  CG1 VAL A 134     -32.108 132.973   9.861  1.00 41.76     0.002 C 
ATOM     12  CG2 VAL A 134     -30.372 134.087   8.439  1.00 40.56     0.002 C 
ENDBRANCH   9  10
END_RES VAL A 134
BEGIN_RES TYR A 338
REMARK  3 active torsions:
REMARK  status: ('A' for Active; 'I' for Inactive)
REMARK    4  A    between atoms: CA   and  CB  
REMARK    5  A    between atoms: CB   and  CG  
REMARK    6  A    between atoms: CZ   and  OH  
ROOT
ATOM     13  CA  TYR A 338     -41.631 124.950   6.058  1.00 38.23     0.164 C 
ENDROOT
BRANCH  13  14
ATOM     14  CB  TYR A 338     -41.621 126.456   6.339  1.00 39.15     0.058 C 
BRANCH  14  15
ATOM     15  CG  TYR A 338     -40.401 127.206   5.855  1.00 39.03    -0.020 A 
ATOM     16  CD2 TYR A 338     -40.226 128.541   6.176  1.00 40.65    -0.002 A 
ATOM     17  CE2 TYR A 338     -39.127 129.263   5.736  1.00 40.91     0.024 A 
ATOM     18  CZ  TYR A 338     -38.171 128.648   4.952  1.00 42.33     0.089 A 
ATOM     19  CE1 TYR A 338     -38.321 127.312   4.621  1.00 40.63     0.024 A 
ATOM     20  CD1 TYR A 338     -39.434 126.611   5.060  1.00 39.27    -0.002 A 
BRANCH  18  21
ATOM     21  OH  TYR A 338     -37.081 129.349   4.516  1.00 43.36    -0.359 OA
ATOM     22  HH  TYR A 338     -37.191 130.102   3.948  1.00  0.00     0.217 HD
ENDBRANCH  18  21
ENDBRANCH  14  15
ENDBRANCH  13  14
END_RES TYR A 338
ENDMDL
MODEL 3
REMARK VINA RESULT:    -6.748      3.540      5.353
REMARK INTER + INTRA:         -13.543
REMARK INTER:                 -11.857
REMARK INTRA:                  -1.686
REMARK UNBOUND:                -6.795
REMARK  0 active torsions:
REMARK  status: ('A' for Active; 'I' for Inactive)
REMARK       I    between atoms: C6_6  and  C7_7 
REMARK       I    between atoms: C8_8  and  C9_9 
REMARK       I    between atoms: C10_10  and  C11_11 
REMARK       I    between atoms: C12_16  and  C13_17 
REMARK       I    between atoms: C14_18  and  C15_19 
REMARK       I    between atoms: C16_20  and  C17_21 
REMARK       I    between atoms: C18_22  and  C19_23 
REMARK       I    between atoms: C20_24  and  C21_25 
REMARK       I    between atoms: C22_26  and  C23_27 
REMARK       I    between atoms: C24_28  and  C25_29 
ROOT
HETATM    1  C1  BCR H 101     -43.791 148.137  14.685  1.00 30.28    -0.020 C 
HETATM    2  C2  BCR H 101     -44.507 148.993  15.731  1.00 26.44     0.014 C 
HETATM    3  C3  BCR H 101     -45.422 148.175  16.636  1.00 21.67     0.005 C 
HETATM    4  C4  BCR H 101     -46.509 147.592  15.770  1.00 20.41     0.034 C 
HETATM    5  C5  BCR H 101     -45.959 146.856  14.559  1.00 27.23    -0.077 C 
HETATM    6  C6  BCR H 101     -44.725 147.102  14.040  1.00 20.11    -0.048 C 
HETATM    7  C7  BCR H 101     -44.120 146.398  12.860  1.00 20.66     0.009 C 
HETATM    8  C8  BCR H 101     -44.331 145.155  12.398  1.00 22.34     0.007 C 
HETATM    9  C9  BCR H 101     -43.590 144.598  11.235  1.00 34.94    -0.062 C 
HETATM   10  C10 BCR H 101     -43.408 143.261  11.175  1.00 21.22     0.007 C 
HETATM   11  C11 BCR H 101     -42.670 142.547  10.122  1.00 28.87     0.001 C 
HETATM   12  C33 BCR H 101     -46.935 145.851  13.994  1.00 23.66     0.044 C 
HETATM   13  C31 BCR H 101     -42.651 147.367  15.347  1.00 19.41     0.020 C 
HETATM   14  C32 BCR H 101     -43.131 149.085  13.664  1.00 20.38     0.020 C 
HETATM   15  C34 BCR H 101     -43.021 145.501  10.179  1.00 27.97     0.048 C 
HETATM   16  C12 BCR H 101     -42.267 141.294  10.379  1.00 26.46     0.007 C 
HETATM   17  C13 BCR H 101     -41.505 140.425   9.445  1.00 41.86    -0.062 C 
HETATM   18  C14 BCR H 101     -41.086 139.210   9.878  1.00 35.90     0.007 C 
HETATM   19  C15 BCR H 101     -40.332 138.215   9.090  1.00 29.55     0.001 C 
HETATM   20  C16 BCR H 101     -39.856 137.100   9.689  1.00 30.73     0.001 C 
HETATM   21  C17 BCR H 101     -39.121 136.053   8.958  1.00 38.08     0.007 C 
HETATM   22  C18 BCR H 101     -38.492 135.023   9.577  1.00 36.14    -0.062 C 
HETATM   23  C19 BCR H 101     -37.777 133.989   8.787  1.00 38.04     0.007 C 
HETATM   24  C20 BCR H 101     -37.030 133.002   9.313  1.00 32.76     0.001 C 
HETATM   25  C21 BCR H 101     -36.387 132.059   8.384  1.00 37.36     0.007 C 
HETATM   26  C22 BCR H 101     -35.569 131.056   8.767  1.00 42.44    -0.062 C 
HETATM   27  C23 BCR H 101     -35.012 130.228   7.849  1.00 37.41     0.007 C 
HETATM   28  C24 BCR H 101     -34.217 129.190   8.179  1.00 28.37     0.009 C 
HETATM   29  C25 BCR H 101     -33.554 128.255   7.211  1.00 39.73    -0.048 C 
HETATM   30  C26 BCR H 101     -32.494 128.666   6.483  1.00 39.78    -0.077 C 
HETATM   31  C27 BCR H 101     -31.755 127.787   5.494  1.00 29.87     0.034 C 
HETATM   32  C28 BCR H 101     -32.451 126.477   5.165  1.00 35.21     0.005 C 
HETATM   33  C29 BCR H 101     -33.093 125.875   6.408  1.00 34.71     0.014 C 
HETATM   34  C30 BCR H 101     -34.078 126.834   7.083  1.00 48.99    -0.020 C 
HETATM   35  C35 BCR H 101     -41.200 140.909   8.058  1.00 43.67     0.048 C 
HETATM   36  C36 BCR H 101     -38.508 134.917  11.073  1.00 38.66     0.048 C 
HETATM   37  C37 BCR H 101     -35.273 130.891  10.228  1.00 32.15     0.048 C 
HETATM   38  C38 BCR H 101     -31.965 130.066   6.630  1.00 38.36     0.044 C 
HETATM   39  C39 BCR H 101     -34.352 126.296   8.484  1.00 45.00     0.020 C 
HETATM   40  C40 BCR H 101     -35.396 126.856   6.322  1.00 59.25     0.020 C 
ENDROOT
TORSDOF 10
BEGIN_RES PHE A  61
REMARK  2 active torsions:
REMARK  status: ('A' for Active; 'I' for Inactive)
REMARK    1  A    between atoms: CA   and  CB  
REMARK    2  A    between atoms: CB   and  CG  
ROOT
ATOM      1  CA  PHE A  61     -36.237 128.293  12.768  1.00 39.40     0.164 C 
ENDROOT
BRANCH   1   2
ATOM      2  CB  PHE A  61     -36.813 128.951  11.509  1.00 39.41     0.058 C 
BRANCH   2   3
ATOM      3  CG  PHE A  61     -37.109 127.990  10.382  1.00 39.01    -0.020 A 
ATOM      4  CD2 PHE A  61     -36.526 126.733  10.348  1.00 40.32    -0.004 A 
ATOM      5  CE2 PHE A  61     -36.797 125.851   9.309  1.00 40.20    -0.000 A 
ATOM      6  CZ  PHE A  61     -37.655 126.214   8.296  1.00 40.34    -0.000 A 
ATOM      7  CE1 PHE A  61     -38.243 127.459   8.317  1.00 41.51    -0.000 A 
ATOM      8  CD1 PHE A  61     -37.968 128.344   9.352  1.00 39.94    -0.004 A 
ENDBRANCH   2   3
ENDBRANCH   1   2
END_RES PHE A  61
BEGIN_RES VAL A 134
REMARK  1 active torsions:
REMARK  status: ('A' for Active; 'I' for Inactive)
REMARK    3  A    between atoms: CA   and  CB  
ROOT
ATOM      9  CA  VAL A 134     -29.766 132.051   9.815  1.00 40.75     0.159 C 
ENDROOT
BRANCH   9  10
ATOM     10  CB  VAL A 134     -30.864 132.765   9.009  1.00 40.76     0.029 C 
ATOM     11  CG1 VAL A 134     -30.849 132.308   7.558  1.00 41.76     0.002 C 
ATOM     12  CG2 VAL A 134     -32.238 132.558   9.627  1.00 40.56     0.002 C 
ENDBRANCH   9  10
END_RES VAL A 134
BEGIN_RES TYR A 338
REMARK  3 active torsions:
REMARK  status: ('A' for Active; 'I' for Inactive)
REMARK    4  A    between atoms: CA   and  CB  
REMARK    5  A    between atoms: CB   and  CG  
REMARK    6  A    between atoms: CZ   and  OH  
ROOT
ATOM     13  CA  TYR A 338     -41.631 124.950   6.058  1.00 38.23     0.164 C 
ENDROOT
BRANCH  13  14
ATOM     14  CB  TYR A 338     -41.621 126.456   6.339  1.00 39.15     0.058 C 
BRANCH  14  15
ATOM     15  CG  TYR A 338     -40.404 127.207   5.850  1.00 39.03    -0.020 A 
ATOM     16  CD2 TYR A 338     -40.230 128.543   6.167  1.00 40.65    -0.002 A 
ATOM     17  CE2 TYR A 338     -39.134 129.266   5.723  1.00 40.91     0.024 A 
ATOM     18  CZ  TYR A 338     -38.177 128.650   4.939  1.00 42.33     0.089 A 
ATOM     19  CE1 TYR A 338     -38.326 127.313   4.613  1.00 40.63     0.024 A 
ATOM     20  CD1 TYR A 338     -39.436 126.611   5.056  1.00 39.27    -0.002 A 
BRANCH  18  21
ATOM     21  OH  TYR A 338     -37.090 129.352   4.499  1.00 43.36    -0.359 OA
ATOM     22  HH  TYR A 338     -36.886 129.390   3.572  1.00  0.00     0.217 HD
ENDBRANCH  18  21
ENDBRANCH  14  15
ENDBRANCH  13  14
END_RES TYR A 338
ENDMDL
