MODEL 1
REMARK VINA RESULT:    -6.898      0.000      0.000
REMARK INTER + INTRA:         -11.388
REMARK INTER:                  -6.898
REMARK INTRA:                  -4.490
REMARK UNBOUND:                -4.490
REMARK  0 active torsions:
REMARK  status: ('A' for Active; 'I' for Inactive)
REMARK       I    between atoms: C6_6  and  C7_7 
REMARK       I    between atoms: C8_8  and  C9_9 
REMARK       I    between atoms: C10_10  and  C11_11 
REMARK       I    between atoms: C12_16  and  C13_17 
REMARK       I    between atoms: C14_18  and  C15_19 
REMARK       I    between atoms: C16_20  and  C17_21 
REMARK       I    between atoms: C18_22  and  C19_23 
REMARK       I    between atoms: C20_24  and  C21_25 
REMARK       I    between atoms: C22_26  and  C23_27 
REMARK       I    between atoms: C24_28  and  C25_29 
ROOT
HETATM    1  C1  BCR C 521     -34.375 127.587   5.649  1.00 25.41    -0.020 C 
HETATM    2  C2  BCR C 521     -33.644 126.650   4.707  1.00 25.41     0.014 C 
HETATM    3  C3  BCR C 521     -32.435 127.320   4.135  1.00 25.43     0.005 C 
HETATM    4  C4  BCR C 521     -31.482 127.690   5.234  1.00 25.42     0.034 C 
HETATM    5  C5  BCR C 521     -32.158 128.383   6.351  1.00 25.39    -0.077 C 
HETATM    6  C6  BCR C 521     -33.485 128.369   6.558  1.00 25.36    -0.048 C 
HETATM    7  C7  BCR C 521     -34.127 129.049   7.697  1.00 25.24     0.009 C 
HETATM    8  C8  BCR C 521     -34.464 130.344   7.712  1.00 25.11     0.007 C 
HETATM    9  C9  BCR C 521     -35.012 131.037   8.867  1.00 24.97    -0.062 C 
HETATM   10  C10 BCR C 521     -35.469 132.288   8.735  1.00 24.81     0.007 C 
HETATM   11  C11 BCR C 521     -36.605 132.823   9.437  1.00 24.63     0.001 C 
HETATM   12  C33 BCR C 521     -31.212 129.116   7.212  1.00 25.41     0.044 C 
HETATM   13  C31 BCR C 521     -35.340 126.740   6.450  1.00 25.43     0.020 C 
HETATM   14  C32 BCR C 521     -35.169 128.518   4.760  1.00 25.43     0.020 C 
HETATM   15  C34 BCR C 521     -34.970 130.361  10.171  1.00 25.01     0.048 C 
HETATM   16  C12 BCR C 521     -37.024 134.060   9.166  1.00 24.42     0.007 C 
HETATM   17  C13 BCR C 521     -38.044 134.769   9.898  1.00 24.27    -0.062 C 
HETATM   18  C14 BCR C 521     -38.608 135.828   9.297  1.00 24.10     0.007 C 
HETATM   19  C15 BCR C 521     -39.490 136.794   9.894  1.00 23.91     0.001 C 
HETATM   20  C16 BCR C 521     -39.883 137.898   9.235  1.00 23.67     0.001 C 
HETATM   21  C17 BCR C 521     -40.990 138.666   9.748  1.00 23.46     0.007 C 
HETATM   22  C18 BCR C 521     -41.458 139.833   9.280  1.00 23.29    -0.062 C 
HETATM   23  C19 BCR C 521     -42.651 140.401   9.886  1.00 23.13     0.007 C 
HETATM   24  C20 BCR C 521     -43.211 141.553   9.505  1.00 22.94     0.001 C 
HETATM   25  C21 BCR C 521     -44.375 142.058  10.194  1.00 22.80     0.007 C 
HETATM   26  C22 BCR C 521     -45.436 142.669   9.650  1.00 22.66    -0.062 C 
HETATM   27  C23 BCR C 521     -46.667 142.836  10.414  1.00 22.58     0.007 C 
HETATM   28  C24 BCR C 521     -47.585 143.727  10.021  1.00 22.47     0.009 C 
HETATM   29  C25 BCR C 521     -48.777 144.181  10.730  1.00 22.43    -0.048 C 
HETATM   30  C26 BCR C 521     -48.726 145.091  11.708  1.00 22.42    -0.077 C 
HETATM   31  C27 BCR C 521     -49.878 145.599  12.474  1.00 22.43     0.034 C 
HETATM   32  C28 BCR C 521     -51.089 144.714  12.360  1.00 22.43     0.005 C 
HETATM   33  C29 BCR C 521     -51.296 144.270  10.940  1.00 22.41     0.014 C 
HETATM   34  C30 BCR C 521     -50.092 143.623  10.277  1.00 22.41    -0.020 C 
HETATM   35  C35 BCR C 521     -38.682 134.103  11.051  1.00 24.32     0.048 C 
HETATM   36  C36 BCR C 521     -40.948 140.431   8.039  1.00 23.25     0.048 C 
HETATM   37  C37 BCR C 521     -45.444 143.091   8.239  1.00 22.64     0.048 C 
HETATM   38  C38 BCR C 521     -47.487 145.713  12.212  1.00 22.40     0.044 C 
HETATM   39  C39 BCR C 521     -50.207 143.744   8.770  1.00 22.38     0.020 C 
HETATM   40  C40 BCR C 521     -50.221 142.139  10.594  1.00 22.38     0.020 C 
ENDROOT
TORSDOF 10
BEGIN_RES PHE A  61
REMARK  2 active torsions:
REMARK  status: ('A' for Active; 'I' for Inactive)
REMARK    1  A    between atoms: CA   and  CB  
REMARK    2  A    between atoms: CB   and  CG  
ROOT
ATOM      1  CA  PHE A  61     -36.237 128.293  12.768  1.00 39.40     0.164 C 
ENDROOT
BRANCH   1   2
ATOM      2  CB  PHE A  61     -36.813 128.951  11.509  1.00 39.41     0.058 C 
BRANCH   2   3
ATOM      3  CG  PHE A  61     -36.927 128.028  10.319  1.00 39.01    -0.020 A 
ATOM      4  CD2 PHE A  61     -36.019 126.999  10.128  1.00 40.32    -0.004 A 
ATOM      5  CE2 PHE A  61     -36.124 126.152   9.031  1.00 40.20    -0.000 A 
ATOM      6  CZ  PHE A  61     -37.138 126.324   8.116  1.00 40.34    -0.000 A 
ATOM      7  CE1 PHE A  61     -38.049 127.341   8.293  1.00 41.51    -0.000 A 
ATOM      8  CD1 PHE A  61     -37.941 128.191   9.386  1.00 39.94    -0.004 A 
ENDBRANCH   2   3
ENDBRANCH   1   2
END_RES PHE A  61
BEGIN_RES VAL A 134
REMARK  1 active torsions:
REMARK  status: ('A' for Active; 'I' for Inactive)
REMARK    3  A    between atoms: CA   and  CB  
ROOT
ATOM      9  CA  VAL A 134     -29.766 132.051   9.815  1.00 40.75     0.159 C 
ENDROOT
BRANCH   9  10
ATOM     10  CB  VAL A 134     -30.864 132.765   9.009  1.00 40.76     0.029 C 
ATOM     11  CG1 VAL A 134     -31.168 132.007   7.725  1.00 41.76     0.002 C 
ATOM     12  CG2 VAL A 134     -32.127 132.961   9.833  1.00 40.56     0.002 C 
ENDBRANCH   9  10
END_RES VAL A 134
BEGIN_RES TYR A 338
REMARK  3 active torsions:
REMARK  status: ('A' for Active; 'I' for Inactive)
REMARK    4  A    between atoms: CA   and  CB  
REMARK    5  A    between atoms: CB   and  CG  
REMARK    6  A    between atoms: CZ   and  OH  
ROOT
ATOM     13  CA  TYR A 338     -41.631 124.950   6.058  1.00 38.23     0.164 C 
ENDROOT
BRANCH  13  14
ATOM     14  CB  TYR A 338     -41.621 126.456   6.339  1.00 39.15     0.058 C 
BRANCH  14  15
ATOM     15  CG  TYR A 338     -40.423 127.214   5.814  1.00 39.03    -0.020 A 
ATOM     16  CD2 TYR A 338     -40.255 128.554   6.115  1.00 40.65    -0.002 A 
ATOM     17  CE2 TYR A 338     -39.177 129.284   5.638  1.00 40.91     0.024 A 
ATOM     18  CZ  TYR A 338     -38.234 128.669   4.835  1.00 42.33     0.089 A 
ATOM     19  CE1 TYR A 338     -38.378 127.329   4.523  1.00 40.63     0.024 A 
ATOM     20  CD1 TYR A 338     -39.470 126.620   5.000  1.00 39.27    -0.002 A 
BRANCH  18  21
ATOM     21  OH  TYR A 338     -37.165 129.378   4.362  1.00 43.36    -0.359 OA
ATOM     22  HH  TYR A 338     -37.167 129.716   3.474  1.00  0.00     0.217 HD
ENDBRANCH  18  21
ENDBRANCH  14  15
ENDBRANCH  13  14
END_RES TYR A 338
ENDMDL
MODEL 2
REMARK VINA RESULT:    -6.440      0.956     15.902
REMARK INTER + INTRA:         -10.929
REMARK INTER:                  -6.150
REMARK INTRA:                  -4.779
REMARK UNBOUND:                -4.490
REMARK  0 active torsions:
REMARK  status: ('A' for Active; 'I' for Inactive)
REMARK       I    between atoms: C6_6  and  C7_7 
REMARK       I    between atoms: C8_8  and  C9_9 
REMARK       I    between atoms: C10_10  and  C11_11 
REMARK       I    between atoms: C12_16  and  C13_17 
REMARK       I    between atoms: C14_18  and  C15_19 
REMARK       I    between atoms: C16_20  and  C17_21 
REMARK       I    between atoms: C18_22  and  C19_23 
REMARK       I    between atoms: C20_24  and  C21_25 
REMARK       I    between atoms: C22_26  and  C23_27 
REMARK       I    between atoms: C24_28  and  C25_29 
ROOT
HETATM    1  C1  BCR C 521     -49.920 144.574   8.857  1.00 25.41    -0.020 C 
HETATM    2  C2  BCR C 521     -51.325 145.070   9.136  1.00 25.41     0.014 C 
HETATM    3  C3  BCR C 521     -51.545 145.224  10.608  1.00 25.43     0.005 C 
HETATM    4  C4  BCR C 521     -50.588 146.236  11.169  1.00 25.42     0.034 C 
HETATM    5  C5  BCR C 521     -49.198 145.996  10.727  1.00 25.39    -0.077 C 
HETATM    6  C6  BCR C 521     -48.859 145.226   9.682  1.00 25.36    -0.048 C 
HETATM    7  C7  BCR C 521     -47.463 145.027   9.249  1.00 25.24     0.009 C 
HETATM    8  C8  BCR C 521     -46.631 144.121   9.776  1.00 25.11     0.007 C 
HETATM    9  C9  BCR C 521     -45.229 143.987   9.415  1.00 24.97    -0.062 C 
HETATM   10  C10 BCR C 521     -44.521 142.948   9.875  1.00 24.81     0.007 C 
HETATM   11  C11 BCR C 521     -43.489 142.269   9.138  1.00 24.63     0.001 C 
HETATM   12  C33 BCR C 521     -48.212 146.687  11.578  1.00 25.41     0.044 C 
HETATM   13  C31 BCR C 521     -49.659 144.797   7.384  1.00 25.43     0.020 C 
HETATM   14  C32 BCR C 521     -49.955 143.086   9.125  1.00 25.43     0.020 C 
HETATM   15  C34 BCR C 521     -44.609 145.054   8.616  1.00 25.01     0.048 C 
HETATM   16  C12 BCR C 521     -42.907 141.191   9.661  1.00 24.42     0.007 C 
HETATM   17  C13 BCR C 521     -41.762 140.513   9.103  1.00 24.27    -0.062 C 
HETATM   18  C14 BCR C 521     -41.526 139.260   9.521  1.00 24.10     0.007 C 
HETATM   19  C15 BCR C 521     -40.355 138.467   9.262  1.00 23.91     0.001 C 
HETATM   20  C16 BCR C 521     -40.161 137.274   9.852  1.00 23.67     0.001 C 
HETATM   21  C17 BCR C 521     -39.143 136.393   9.336  1.00 23.46     0.007 C 
HETATM   22  C18 BCR C 521     -38.750 135.216   9.846  1.00 23.29    -0.062 C 
HETATM   23  C19 BCR C 521     -37.766 134.432   9.119  1.00 23.13     0.007 C 
HETATM   24  C20 BCR C 521     -37.300 133.247   9.524  1.00 22.94     0.001 C 
HETATM   25  C21 BCR C 521     -36.292 132.560   8.752  1.00 22.80     0.007 C 
HETATM   26  C22 BCR C 521     -36.209 131.243   8.520  1.00 22.66    -0.062 C 
HETATM   27  C23 BCR C 521     -35.334 130.729   7.472  1.00 22.58     0.007 C 
HETATM   28  C24 BCR C 521     -34.985 129.437   7.463  1.00 22.47     0.009 C 
HETATM   29  C25 BCR C 521     -33.988 128.769   6.633  1.00 22.43    -0.048 C 
HETATM   30  C26 BCR C 521     -32.679 128.826   6.899  1.00 22.42    -0.077 C 
HETATM   31  C27 BCR C 521     -31.610 128.185   6.113  1.00 22.43     0.034 C 
HETATM   32  C28 BCR C 521     -32.060 127.788   4.734  1.00 22.43     0.005 C 
HETATM   33  C29 BCR C 521     -33.418 127.147   4.778  1.00 22.41     0.014 C 
HETATM   34  C30 BCR C 521     -34.496 127.951   5.485  1.00 22.41    -0.020 C 
HETATM   35  C35 BCR C 521     -41.161 141.041   7.862  1.00 24.32     0.048 C 
HETATM   36  C36 BCR C 521     -39.443 134.593  10.982  1.00 23.25     0.048 C 
HETATM   37  C37 BCR C 521     -37.071 130.279   9.226  1.00 22.64     0.048 C 
HETATM   38  C38 BCR C 521     -32.082 129.586   8.014  1.00 22.40     0.044 C 
HETATM   39  C39 BCR C 521     -35.598 127.026   5.964  1.00 22.38     0.020 C 
HETATM   40  C40 BCR C 521     -35.114 128.819   4.397  1.00 22.38     0.020 C 
ENDROOT
TORSDOF 10
BEGIN_RES PHE A  61
REMARK  2 active torsions:
REMARK  status: ('A' for Active; 'I' for Inactive)
REMARK    1  A    between atoms: CA   and  CB  
REMARK    2  A    between atoms: CB   and  CG  
ROOT
ATOM      1  CA  PHE A  61     -36.237 128.293  12.768  1.00 39.40     0.164 C 
ENDROOT
BRANCH   1   2
ATOM      2  CB  PHE A  61     -36.813 128.951  11.509  1.00 39.41     0.058 C 
BRANCH   2   3
ATOM      3  CG  PHE A  61     -36.863 128.048  10.300  1.00 39.01    -0.020 A 
ATOM      4  CD2 PHE A  61     -37.980 128.018   9.480  1.00 40.32    -0.004 A 
ATOM      5  CE2 PHE A  61     -38.026 127.184   8.370  1.00 40.20    -0.000 A 
ATOM      6  CZ  PHE A  61     -36.956 126.374   8.065  1.00 40.34    -0.000 A 
ATOM      7  CE1 PHE A  61     -35.838 126.393   8.869  1.00 41.51    -0.000 A 
ATOM      8  CD1 PHE A  61     -35.794 127.222   9.983  1.00 39.94    -0.004 A 
ENDBRANCH   2   3
ENDBRANCH   1   2
END_RES PHE A  61
BEGIN_RES VAL A 134
REMARK  1 active torsions:
REMARK  status: ('A' for Active; 'I' for Inactive)
REMARK    3  A    between atoms: CA   and  CB  
ROOT
ATOM      9  CA  VAL A 134     -29.766 132.051   9.815  1.00 40.75     0.159 C 
ENDROOT
BRANCH   9  10
ATOM     10  CB  VAL A 134     -30.864 132.765   9.009  1.00 40.76     0.029 C 
ATOM     11  CG1 VAL A 134     -30.899 132.253   7.576  1.00 41.76     0.002 C 
ATOM     12  CG2 VAL A 134     -32.227 132.621   9.667  1.00 40.56     0.002 C 
ENDBRANCH   9  10
END_RES VAL A 134
BEGIN_RES TYR A 338
REMARK  3 active torsions:
REMARK  status: ('A' for Active; 'I' for Inactive)
REMARK    4  A    between atoms: CA   and  CB  
REMARK    5  A    between atoms: CB   and  CG  
REMARK    6  A    between atoms: CZ   and  OH  
ROOT
ATOM     13  CA  TYR A 338     -41.631 124.950   6.058  1.00 38.23     0.164 C 
ENDROOT
BRANCH  13  14
ATOM     14  CB  TYR A 338     -41.621 126.456   6.339  1.00 39.15     0.058 C 
BRANCH  14  15
ATOM     15  CG  TYR A 338     -40.430 127.216   5.802  1.00 39.03    -0.020 A 
ATOM     16  CD2 TYR A 338     -40.229 128.541   6.150  1.00 40.65    -0.002 A 
ATOM     17  CE2 TYR A 338     -39.156 129.272   5.664  1.00 40.91     0.024 A 
ATOM     18  CZ  TYR A 338     -38.252 128.676   4.805  1.00 42.33     0.089 A 
ATOM     19  CE1 TYR A 338     -38.428 127.351   4.447  1.00 40.63     0.024 A 
ATOM     20  CD1 TYR A 338     -39.515 126.641   4.933  1.00 39.27    -0.002 A 
BRANCH  18  21
ATOM     21  OH  TYR A 338     -37.188 129.387   4.324  1.00 43.36    -0.359 OA
ATOM     22  HH  TYR A 338     -36.514 128.955   3.812  1.00  0.00     0.217 HD
ENDBRANCH  18  21
ENDBRANCH  14  15
ENDBRANCH  13  14
END_RES TYR A 338
ENDMDL
