MODEL 1
REMARK VINA RESULT:    -9.716      0.000      0.000
REMARK INTER + INTRA:         -16.512
REMARK INTER:                  -9.716
REMARK INTRA:                  -6.796
REMARK UNBOUND:                -6.796
REMARK  0 active torsions:
REMARK  status: ('A' for Active; 'I' for Inactive)
REMARK       I    between atoms: C6_6  and  C7_7 
REMARK       I    between atoms: C8_8  and  C9_9 
REMARK       I    between atoms: C10_10  and  C11_11 
REMARK       I    between atoms: C12_16  and  C13_17 
REMARK       I    between atoms: C14_18  and  C15_19 
REMARK       I    between atoms: C16_20  and  C17_21 
REMARK       I    between atoms: C18_22  and  C19_23 
REMARK       I    between atoms: C20_24  and  C21_25 
REMARK       I    between atoms: C22_26  and  C23_27 
REMARK       I    between atoms: C24_28  and  C25_29 
ROOT
HETATM    1  C1  BCR B 619     -50.862 150.046  10.632  1.00 42.12    -0.020 C 
HETATM    2  C2  BCR B 619     -52.332 150.334  10.454  1.00 44.03     0.014 C 
HETATM    3  C3  BCR B 619     -52.598 150.892   9.093  1.00 50.07     0.005 C 
HETATM    4  C4  BCR B 619     -52.165 149.883   8.068  1.00 50.24     0.034 C 
HETATM    5  C5  BCR B 619     -50.740 149.523   8.261  1.00 48.46    -0.077 C 
HETATM    6  C6  BCR B 619     -50.131 149.573   9.428  1.00 42.37    -0.048 C 
HETATM    7  C7  BCR B 619     -48.708 149.217   9.590  1.00 45.45     0.009 C 
HETATM    8  C8  BCR B 619     -48.241 147.995   9.301  1.00 42.13     0.007 C 
HETATM    9  C9  BCR B 619     -46.877 147.538   9.545  1.00 40.32    -0.062 C 
HETATM   10  C10 BCR B 619     -46.562 146.293   9.178  1.00 42.22     0.007 C 
HETATM   11  C11 BCR B 619     -45.309 145.655   9.479  1.00 37.87     0.001 C 
HETATM   12  C33 BCR B 619     -50.053 149.080   7.028  1.00 60.09     0.044 C 
HETATM   13  C31 BCR B 619     -50.764 149.022  11.727  1.00 42.93     0.020 C 
HETATM   14  C32 BCR B 619     -50.253 151.341  11.123  1.00 43.16     0.020 C 
HETATM   15  C34 BCR B 619     -45.816 148.524   9.801  1.00 35.96     0.048 C 
HETATM   16  C12 BCR B 619     -45.181 144.367   9.178  1.00 36.26     0.007 C 
HETATM   17  C13 BCR B 619     -43.910 143.699   9.073  1.00 36.16    -0.062 C 
HETATM   18  C14 BCR B 619     -43.924 142.418   8.677  1.00 32.11     0.007 C 
HETATM   19  C15 BCR B 619     -42.860 141.472   8.920  1.00 30.20     0.001 C 
HETATM   20  C16 BCR B 619     -42.969 140.217   8.471  1.00 25.50     0.001 C 
HETATM   21  C17 BCR B 619     -41.837 139.343   8.608  1.00 29.93     0.007 C 
HETATM   22  C18 BCR B 619     -41.710 138.128   8.056  1.00 33.52    -0.062 C 
HETATM   23  C19 BCR B 619     -40.701 137.210   8.592  1.00 31.39     0.007 C 
HETATM   24  C20 BCR B 619     -40.529 135.948   8.169  1.00 33.08     0.001 C 
HETATM   25  C21 BCR B 619     -39.432 135.172   8.691  1.00 29.74     0.007 C 
HETATM   26  C22 BCR B 619     -38.977 134.002   8.219  1.00 34.33    -0.062 C 
HETATM   27  C23 BCR B 619     -37.813 133.400   8.874  1.00 29.24     0.007 C 
HETATM   28  C24 BCR B 619     -37.406 132.138   8.697  1.00 34.82     0.009 C 
HETATM   29  C25 BCR B 619     -36.191 131.599   9.308  1.00 36.91    -0.048 C 
HETATM   30  C26 BCR B 619     -36.083 131.564  10.633  1.00 42.58    -0.077 C 
HETATM   31  C27 BCR B 619     -34.911 131.049  11.371  1.00 34.32     0.034 C 
HETATM   32  C28 BCR B 619     -34.241 129.959  10.577  1.00 33.19     0.005 C 
HETATM   33  C29 BCR B 619     -33.914 130.449   9.201  1.00 42.41     0.014 C 
HETATM   34  C30 BCR B 619     -35.060 131.109   8.440  1.00 41.48    -0.020 C 
HETATM   35  C35 BCR B 619     -42.760 144.293   9.778  1.00 29.99     0.048 C 
HETATM   36  C36 BCR B 619     -42.842 137.585   7.270  1.00 37.35     0.048 C 
HETATM   37  C37 BCR B 619     -39.863 133.156   7.396  1.00 37.12     0.048 C 
HETATM   38  C38 BCR B 619     -37.157 132.063  11.510  1.00 40.40     0.044 C 
HETATM   39  C39 BCR B 619     -35.592 130.221   7.322  1.00 51.26     0.020 C 
HETATM   40  C40 BCR B 619     -34.311 132.266   7.787  1.00 40.72     0.020 C 
ENDROOT
TORSDOF 10
BEGIN_RES PHE A  61
REMARK  2 active torsions:
REMARK  status: ('A' for Active; 'I' for Inactive)
REMARK    1  A    between atoms: CA   and  CB  
REMARK    2  A    between atoms: CB   and  CG  
ROOT
ATOM      1  CA  PHE A  61     -36.237 128.293  12.768  1.00 39.40     0.164 C 
ENDROOT
BRANCH   1   2
ATOM      2  CB  PHE A  61     -36.813 128.951  11.509  1.00 39.41     0.058 C 
BRANCH   2   3
ATOM      3  CG  PHE A  61     -36.690 128.116  10.257  1.00 39.01    -0.020 A 
ATOM      4  CD2 PHE A  61     -35.550 127.368  10.009  1.00 40.32    -0.004 A 
ATOM      5  CE2 PHE A  61     -35.437 126.603   8.855  1.00 40.20    -0.000 A 
ATOM      6  CZ  PHE A  61     -36.463 126.574   7.938  1.00 40.34    -0.000 A 
ATOM      7  CE1 PHE A  61     -37.603 127.311   8.171  1.00 41.51    -0.000 A 
ATOM      8  CD1 PHE A  61     -37.714 128.081   9.321  1.00 39.94    -0.004 A 
ENDBRANCH   2   3
ENDBRANCH   1   2
END_RES PHE A  61
BEGIN_RES VAL A 134
REMARK  1 active torsions:
REMARK  status: ('A' for Active; 'I' for Inactive)
REMARK    3  A    between atoms: CA   and  CB  
ROOT
ATOM      9  CA  VAL A 134     -29.766 132.051   9.815  1.00 40.75     0.159 C 
ENDROOT
BRANCH   9  10
ATOM     10  CB  VAL A 134     -30.864 132.765   9.009  1.00 40.76     0.029 C 
ATOM     11  CG1 VAL A 134     -31.226 131.965   7.766  1.00 41.76     0.002 C 
ATOM     12  CG2 VAL A 134     -32.098 133.033   9.857  1.00 40.56     0.002 C 
ENDBRANCH   9  10
END_RES VAL A 134
BEGIN_RES TYR A 338
REMARK  3 active torsions:
REMARK  status: ('A' for Active; 'I' for Inactive)
REMARK    4  A    between atoms: CA   and  CB  
REMARK    5  A    between atoms: CB   and  CG  
REMARK    6  A    between atoms: CZ   and  OH  
ROOT
ATOM     13  CA  TYR A 338     -41.631 124.950   6.058  1.00 38.23     0.164 C 
ENDROOT
BRANCH  13  14
ATOM     14  CB  TYR A 338     -41.621 126.456   6.339  1.00 39.15     0.058 C 
BRANCH  14  15
ATOM     15  CG  TYR A 338     -40.395 127.203   5.868  1.00 39.03    -0.020 A 
ATOM     16  CD2 TYR A 338     -40.212 128.534   6.205  1.00 40.65    -0.002 A 
ATOM     17  CE2 TYR A 338     -39.107 129.254   5.777  1.00 40.91     0.024 A 
ATOM     18  CZ  TYR A 338     -38.152 128.641   4.989  1.00 42.33     0.089 A 
ATOM     19  CE1 TYR A 338     -38.309 127.311   4.643  1.00 40.63     0.024 A 
ATOM     20  CD1 TYR A 338     -39.428 126.611   5.070  1.00 39.27    -0.002 A 
BRANCH  18  21
ATOM     21  OH  TYR A 338     -37.056 129.340   4.565  1.00 43.36    -0.359 OA
ATOM     22  HH  TYR A 338     -37.149 130.229   4.242  1.00  0.00     0.217 HD
ENDBRANCH  18  21
ENDBRANCH  14  15
ENDBRANCH  13  14
END_RES TYR A 338
ENDMDL
MODEL 2
REMARK VINA RESULT:    -7.339      3.352      5.118
REMARK INTER + INTRA:         -14.135
REMARK INTER:                 -11.841
REMARK INTRA:                  -2.295
REMARK UNBOUND:                -6.796
REMARK  0 active torsions:
REMARK  status: ('A' for Active; 'I' for Inactive)
REMARK       I    between atoms: C6_6  and  C7_7 
REMARK       I    between atoms: C8_8  and  C9_9 
REMARK       I    between atoms: C10_10  and  C11_11 
REMARK       I    between atoms: C12_16  and  C13_17 
REMARK       I    between atoms: C14_18  and  C15_19 
REMARK       I    between atoms: C16_20  and  C17_21 
REMARK       I    between atoms: C18_22  and  C19_23 
REMARK       I    between atoms: C20_24  and  C21_25 
REMARK       I    between atoms: C22_26  and  C23_27 
REMARK       I    between atoms: C24_28  and  C25_29 
ROOT
HETATM    1  C1  BCR B 619     -44.435 148.106  14.327  1.00 42.12    -0.020 C 
HETATM    2  C2  BCR B 619     -45.324 148.548  15.464  1.00 44.03     0.014 C 
HETATM    3  C3  BCR B 619     -46.748 148.624  15.021  1.00 50.07     0.005 C 
HETATM    4  C4  BCR B 619     -47.181 147.263  14.556  1.00 50.24     0.034 C 
HETATM    5  C5  BCR B 619     -46.282 146.767  13.486  1.00 48.46    -0.077 C 
HETATM    6  C6  BCR B 619     -45.020 147.127  13.375  1.00 42.37    -0.048 C 
HETATM    7  C7  BCR B 619     -44.150 146.625  12.293  1.00 45.45     0.009 C 
HETATM    8  C8  BCR B 619     -43.883 145.322  12.139  1.00 42.13     0.007 C 
HETATM    9  C9  BCR B 619     -42.945 144.765  11.170  1.00 40.32    -0.062 C 
HETATM   10  C10 BCR B 619     -42.807 143.437  11.127  1.00 42.22     0.007 C 
HETATM   11  C11 BCR B 619     -41.826 142.752  10.331  1.00 37.87     0.001 C 
HETATM   12  C33 BCR B 619     -46.919 145.812  12.552  1.00 60.09     0.044 C 
HETATM   13  C31 BCR B 619     -43.198 147.533  14.958  1.00 42.93     0.020 C 
HETATM   14  C32 BCR B 619     -44.062 149.374  13.590  1.00 43.16     0.020 C 
HETATM   15  C34 BCR B 619     -42.492 145.591  10.041  1.00 35.96     0.048 C 
HETATM   16  C12 BCR B 619     -41.706 141.438  10.490  1.00 36.26     0.007 C 
HETATM   17  C13 BCR B 619     -41.056 140.580   9.534  1.00 36.16    -0.062 C 
HETATM   18  C14 BCR B 619     -41.082 139.261   9.780  1.00 32.11     0.007 C 
HETATM   19  C15 BCR B 619     -40.159 138.303   9.220  1.00 30.20     0.001 C 
HETATM   20  C16 BCR B 619     -40.281 137.005   9.522  1.00 25.50     0.001 C 
HETATM   21  C17 BCR B 619     -39.434 136.065   8.840  1.00 29.93     0.007 C 
HETATM   22  C18 BCR B 619     -39.548 134.730   8.885  1.00 33.52    -0.062 C 
HETATM   23  C19 BCR B 619     -38.405 133.909   8.475  1.00 31.39     0.007 C 
HETATM   24  C20 BCR B 619     -38.376 132.570   8.542  1.00 33.08     0.001 C 
HETATM   25  C21 BCR B 619     -37.241 131.861   8.006  1.00 29.74     0.007 C 
HETATM   26  C22 BCR B 619     -37.149 130.542   7.779  1.00 34.33    -0.062 C 
HETATM   27  C23 BCR B 619     -35.912 130.030   7.182  1.00 29.24     0.007 C 
HETATM   28  C24 BCR B 619     -35.566 128.738   7.135  1.00 34.82     0.009 C 
HETATM   29  C25 BCR B 619     -34.360 128.260   6.459  1.00 36.91    -0.048 C 
HETATM   30  C26 BCR B 619     -33.167 128.678   6.872  1.00 42.58    -0.077 C 
HETATM   31  C27 BCR B 619     -31.877 128.274   6.275  1.00 34.32     0.034 C 
HETATM   32  C28 BCR B 619     -31.985 126.880   5.714  1.00 33.19     0.005 C 
HETATM   33  C29 BCR B 619     -33.139 126.793   4.764  1.00 42.41     0.014 C 
HETATM   34  C30 BCR B 619     -34.472 127.319   5.287  1.00 41.48    -0.020 C 
HETATM   35  C35 BCR B 619     -40.081 141.189   8.613  1.00 29.99     0.048 C 
HETATM   36  C36 BCR B 619     -40.597 134.136   9.745  1.00 37.35     0.048 C 
HETATM   37  C37 BCR B 619     -38.043 129.616   8.499  1.00 37.12     0.048 C 
HETATM   38  C38 BCR B 619     -33.024 129.621   7.995  1.00 40.40     0.044 C 
HETATM   39  C39 BCR B 619     -35.449 126.193   5.599  1.00 51.26     0.020 C 
HETATM   40  C40 BCR B 619     -34.981 128.033   4.039  1.00 40.72     0.020 C 
ENDROOT
TORSDOF 10
BEGIN_RES PHE A  61
REMARK  2 active torsions:
REMARK  status: ('A' for Active; 'I' for Inactive)
REMARK    1  A    between atoms: CA   and  CB  
REMARK    2  A    between atoms: CB   and  CG  
ROOT
ATOM      1  CA  PHE A  61     -36.237 128.293  12.768  1.00 39.40     0.164 C 
ENDROOT
BRANCH   1   2
ATOM      2  CB  PHE A  61     -36.813 128.951  11.509  1.00 39.41     0.058 C 
BRANCH   2   3
ATOM      3  CG  PHE A  61     -36.312 130.352  11.252  1.00 39.01    -0.020 A 
ATOM      4  CD2 PHE A  61     -35.082 130.569  10.650  1.00 40.32    -0.004 A 
ATOM      5  CE2 PHE A  61     -34.621 131.858  10.417  1.00 40.20    -0.000 A 
ATOM      6  CZ  PHE A  61     -35.384 132.944  10.780  1.00 40.34    -0.000 A 
ATOM      7  CE1 PHE A  61     -36.609 132.746  11.377  1.00 41.51    -0.000 A 
ATOM      8  CD1 PHE A  61     -37.068 131.457  11.616  1.00 39.94    -0.004 A 
ENDBRANCH   2   3
ENDBRANCH   1   2
END_RES PHE A  61
BEGIN_RES VAL A 134
REMARK  1 active torsions:
REMARK  status: ('A' for Active; 'I' for Inactive)
REMARK    3  A    between atoms: CA   and  CB  
ROOT
ATOM      9  CA  VAL A 134     -29.766 132.051   9.815  1.00 40.75     0.159 C 
ENDROOT
BRANCH   9  10
ATOM     10  CB  VAL A 134     -30.864 132.765   9.009  1.00 40.76     0.029 C 
ATOM     11  CG1 VAL A 134     -31.215 131.973   7.758  1.00 41.76     0.002 C 
ATOM     12  CG2 VAL A 134     -32.104 133.020   9.853  1.00 40.56     0.002 C 
ENDBRANCH   9  10
END_RES VAL A 134
BEGIN_RES TYR A 338
REMARK  3 active torsions:
REMARK  status: ('A' for Active; 'I' for Inactive)
REMARK    4  A    between atoms: CA   and  CB  
REMARK    5  A    between atoms: CB   and  CG  
REMARK    6  A    between atoms: CZ   and  OH  
ROOT
ATOM     13  CA  TYR A 338     -41.631 124.950   6.058  1.00 38.23     0.164 C 
ENDROOT
BRANCH  13  14
ATOM     14  CB  TYR A 338     -41.621 126.456   6.339  1.00 39.15     0.058 C 
BRANCH  14  15
ATOM     15  CG  TYR A 338     -40.434 127.217   5.795  1.00 39.03    -0.020 A 
ATOM     16  CD2 TYR A 338     -40.324 128.582   5.997  1.00 40.65    -0.002 A 
ATOM     17  CE2 TYR A 338     -39.258 129.314   5.499  1.00 40.91     0.024 A 
ATOM     18  CZ  TYR A 338     -38.266 128.678   4.777  1.00 42.33     0.089 A 
ATOM     19  CE1 TYR A 338     -38.350 127.313   4.567  1.00 40.63     0.024 A 
ATOM     20  CD1 TYR A 338     -39.432 126.601   5.061  1.00 39.27    -0.002 A 
BRANCH  18  21
ATOM     21  OH  TYR A 338     -37.207 129.389   4.285  1.00 43.36    -0.359 OA
ATOM     22  HH  TYR A 338     -36.381 129.408   4.755  1.00  0.00     0.217 HD
ENDBRANCH  18  21
ENDBRANCH  14  15
ENDBRANCH  13  14
END_RES TYR A 338
ENDMDL
MODEL 3
REMARK VINA RESULT:    -6.931      2.821      4.847
REMARK INTER + INTRA:         -13.727
REMARK INTER:                 -10.877
REMARK INTRA:                  -2.850
REMARK UNBOUND:                -6.796
REMARK  0 active torsions:
REMARK  status: ('A' for Active; 'I' for Inactive)
REMARK       I    between atoms: C6_6  and  C7_7 
REMARK       I    between atoms: C8_8  and  C9_9 
REMARK       I    between atoms: C10_10  and  C11_11 
REMARK       I    between atoms: C12_16  and  C13_17 
REMARK       I    between atoms: C14_18  and  C15_19 
REMARK       I    between atoms: C16_20  and  C17_21 
REMARK       I    between atoms: C18_22  and  C19_23 
REMARK       I    between atoms: C20_24  and  C21_25 
REMARK       I    between atoms: C22_26  and  C23_27 
REMARK       I    between atoms: C24_28  and  C25_29 
ROOT
HETATM    1  C1  BCR B 619     -44.632 148.793  11.731  1.00 42.12    -0.020 C 
HETATM    2  C2  BCR B 619     -44.771 149.766  12.877  1.00 44.03     0.014 C 
HETATM    3  C3  BCR B 619     -46.034 149.512  13.633  1.00 50.07     0.005 C 
HETATM    4  C4  BCR B 619     -45.995 148.113  14.177  1.00 50.24     0.034 C 
HETATM    5  C5  BCR B 619     -45.787 147.134  13.082  1.00 48.46    -0.077 C 
HETATM    6  C6  BCR B 619     -45.151 147.420  11.965  1.00 42.37    -0.048 C 
HETATM    7  C7  BCR B 619     -44.966 146.429  10.888  1.00 45.45     0.009 C 
HETATM    8  C8  BCR B 619     -44.296 145.285  11.078  1.00 42.13     0.007 C 
HETATM    9  C9  BCR B 619     -43.974 144.316  10.036  1.00 40.32    -0.062 C 
HETATM   10  C10 BCR B 619     -43.316 143.210  10.394  1.00 42.22     0.007 C 
HETATM   11  C11 BCR B 619     -42.807 142.237   9.466  1.00 37.87     0.001 C 
HETATM   12  C33 BCR B 619     -46.341 145.790  13.356  1.00 60.09     0.044 C 
HETATM   13  C31 BCR B 619     -43.167 148.739  11.401  1.00 42.93     0.020 C 
HETATM   14  C32 BCR B 619     -45.369 149.427  10.571  1.00 43.16     0.020 C 
HETATM   15  C34 BCR B 619     -44.689 144.367   8.751  1.00 35.96     0.048 C 
HETATM   16  C12 BCR B 619     -42.051 141.257   9.949  1.00 36.26     0.007 C 
HETATM   17  C13 BCR B 619     -41.784 140.035   9.235  1.00 36.16    -0.062 C 
HETATM   18  C14 BCR B 619     -41.074 139.095   9.876  1.00 32.11     0.007 C 
HETATM   19  C15 BCR B 619     -40.347 138.030   9.227  1.00 30.20     0.001 C 
HETATM   20  C16 BCR B 619     -39.679 137.135   9.963  1.00 25.50     0.001 C 
HETATM   21  C17 BCR B 619     -39.082 136.012   9.293  1.00 29.93     0.007 C 
HETATM   22  C18 BCR B 619     -38.542 134.939   9.888  1.00 33.52    -0.062 C 
HETATM   23  C19 BCR B 619     -37.638 134.082   9.115  1.00 31.39     0.007 C 
HETATM   24  C20 BCR B 619     -36.986 133.024   9.620  1.00 33.08     0.001 C 
HETATM   25  C21 BCR B 619     -36.210 132.187   8.739  1.00 29.74     0.007 C 
HETATM   26  C22 BCR B 619     -35.695 130.981   9.021  1.00 34.33    -0.062 C 
HETATM   27  C23 BCR B 619     -34.973 130.275   7.960  1.00 29.24     0.007 C 
HETATM   28  C24 BCR B 619     -34.192 129.205   8.150  1.00 34.82     0.009 C 
HETATM   29  C25 BCR B 619     -33.551 128.480   7.053  1.00 36.91    -0.048 C 
HETATM   30  C26 BCR B 619     -32.684 129.111   6.268  1.00 42.58    -0.077 C 
HETATM   31  C27 BCR B 619     -31.973 128.495   5.127  1.00 34.32     0.034 C 
HETATM   32  C28 BCR B 619     -31.755 127.028   5.389  1.00 33.19     0.005 C 
HETATM   33  C29 BCR B 619     -33.057 126.363   5.715  1.00 42.41     0.014 C 
HETATM   34  C30 BCR B 619     -33.893 127.034   6.799  1.00 41.48    -0.020 C 
HETATM   35  C35 BCR B 619     -41.926 140.051   7.768  1.00 29.99     0.048 C 
HETATM   36  C36 BCR B 619     -38.493 134.898  11.368  1.00 37.35     0.048 C 
HETATM   37  C37 BCR B 619     -35.475 130.596  10.428  1.00 37.12     0.048 C 
HETATM   38  C38 BCR B 619     -32.350 130.532   6.469  1.00 40.40     0.044 C 
HETATM   39  C39 BCR B 619     -33.878 126.247   8.104  1.00 51.26     0.020 C 
HETATM   40  C40 BCR B 619     -35.283 126.883   6.191  1.00 40.72     0.020 C 
ENDROOT
TORSDOF 10
BEGIN_RES PHE A  61
REMARK  2 active torsions:
REMARK  status: ('A' for Active; 'I' for Inactive)
REMARK    1  A    between atoms: CA   and  CB  
REMARK    2  A    between atoms: CB   and  CG  
ROOT
ATOM      1  CA  PHE A  61     -36.237 128.293  12.768  1.00 39.40     0.164 C 
ENDROOT
BRANCH   1   2
ATOM      2  CB  PHE A  61     -36.813 128.951  11.509  1.00 39.41     0.058 C 
BRANCH   2   3
ATOM      3  CG  PHE A  61     -37.048 128.000  10.360  1.00 39.01    -0.020 A 
ATOM      4  CD2 PHE A  61     -36.327 126.821  10.253  1.00 40.32    -0.004 A 
ATOM      5  CE2 PHE A  61     -36.542 125.949   9.193  1.00 40.20    -0.000 A 
ATOM      6  CZ  PHE A  61     -37.482 126.243   8.232  1.00 40.34    -0.000 A 
ATOM      7  CE1 PHE A  61     -38.208 127.410   8.325  1.00 41.51    -0.000 A 
ATOM      8  CD1 PHE A  61     -37.989 128.285   9.380  1.00 39.94    -0.004 A 
ENDBRANCH   2   3
ENDBRANCH   1   2
END_RES PHE A  61
BEGIN_RES VAL A 134
REMARK  1 active torsions:
REMARK  status: ('A' for Active; 'I' for Inactive)
REMARK    3  A    between atoms: CA   and  CB  
ROOT
ATOM      9  CA  VAL A 134     -29.766 132.051   9.815  1.00 40.75     0.159 C 
ENDROOT
BRANCH   9  10
ATOM     10  CB  VAL A 134     -30.864 132.765   9.009  1.00 40.76     0.029 C 
ATOM     11  CG1 VAL A 134     -30.841 132.317   7.555  1.00 41.76     0.002 C 
ATOM     12  CG2 VAL A 134     -32.240 132.548   9.620  1.00 40.56     0.002 C 
ENDBRANCH   9  10
END_RES VAL A 134
BEGIN_RES TYR A 338
REMARK  3 active torsions:
REMARK  status: ('A' for Active; 'I' for Inactive)
REMARK    4  A    between atoms: CA   and  CB  
REMARK    5  A    between atoms: CB   and  CG  
REMARK    6  A    between atoms: CZ   and  OH  
ROOT
ATOM     13  CA  TYR A 338     -41.631 124.950   6.058  1.00 38.23     0.164 C 
ENDROOT
BRANCH  13  14
ATOM     14  CB  TYR A 338     -41.621 126.456   6.339  1.00 39.15     0.058 C 
BRANCH  14  15
ATOM     15  CG  TYR A 338     -40.399 127.205   5.859  1.00 39.03    -0.020 A 
ATOM     16  CD2 TYR A 338     -40.226 128.541   6.178  1.00 40.65    -0.002 A 
ATOM     17  CE2 TYR A 338     -39.125 129.263   5.742  1.00 40.91     0.024 A 
ATOM     18  CZ  TYR A 338     -38.164 128.645   4.964  1.00 42.33     0.089 A 
ATOM     19  CE1 TYR A 338     -38.313 127.309   4.636  1.00 40.63     0.024 A 
ATOM     20  CD1 TYR A 338     -39.427 126.608   5.071  1.00 39.27    -0.002 A 
BRANCH  18  21
ATOM     21  OH  TYR A 338     -37.073 129.346   4.532  1.00 43.36    -0.359 OA
ATOM     22  HH  TYR A 338     -36.941 130.246   4.805  1.00  0.00     0.217 HD
ENDBRANCH  18  21
ENDBRANCH  14  15
ENDBRANCH  13  14
END_RES TYR A 338
ENDMDL
