MODEL 1
REMARK VINA RESULT:    -8.572      0.000      0.000
REMARK INTER + INTRA:         -11.818
REMARK INTER:                  -8.572
REMARK INTRA:                  -3.247
REMARK UNBOUND:                -3.247
REMARK  0 active torsions:
REMARK  status: ('A' for Active; 'I' for Inactive)
REMARK       I    between atoms: C6_6  and  C7_7 
REMARK       I    between atoms: C8_8  and  C9_9 
REMARK       I    between atoms: C10_10  and  C11_11 
REMARK       I    between atoms: C12_16  and  C13_17 
REMARK       I    between atoms: C14_18  and  C15_19 
REMARK       I    between atoms: C16_20  and  C17_21 
REMARK       I    between atoms: C18_22  and  C19_23 
REMARK       I    between atoms: C20_24  and  C21_25 
REMARK       I    between atoms: C22_26  and  C23_27 
REMARK       I    between atoms: C24_28  and  C25_29 
ROOT
HETATM    1  C1  BCR K 102     -34.382 126.765   6.163  1.00 44.36    -0.020 C 
HETATM    2  C2  BCR K 102     -33.880 125.926   5.000  1.00 45.66     0.014 C 
HETATM    3  C3  BCR K 102     -32.986 126.720   4.077  1.00 45.76     0.005 C 
HETATM    4  C4  BCR K 102     -31.790 127.277   4.821  1.00 46.84     0.034 C 
HETATM    5  C5  BCR K 102     -32.184 127.932   6.118  1.00 45.49    -0.077 C 
HETATM    6  C6  BCR K 102     -33.417 127.839   6.607  1.00 44.85    -0.048 C 
HETATM    7  C7  BCR K 102     -33.919 128.739   7.658  1.00 41.42     0.009 C 
HETATM    8  C8  BCR K 102     -34.148 130.033   7.490  1.00 39.50     0.007 C 
HETATM    9  C9  BCR K 102     -34.706 130.779   8.628  1.00 44.88    -0.062 C 
HETATM   10  C10 BCR K 102     -35.532 131.797   8.367  1.00 44.81     0.007 C 
HETATM   11  C11 BCR K 102     -36.224 132.607   9.365  1.00 45.72     0.001 C 
HETATM   12  C33 BCR K 102     -31.121 128.680   6.865  1.00 46.47     0.044 C 
HETATM   13  C31 BCR K 102     -34.643 125.858   7.352  1.00 48.64     0.020 C 
HETATM   14  C32 BCR K 102     -35.674 127.447   5.758  1.00 40.14     0.020 C 
HETATM   15  C34 BCR K 102     -34.379 130.391  10.032  1.00 47.98     0.048 C 
HETATM   16  C12 BCR K 102     -37.064 133.497   8.848  1.00 46.57     0.007 C 
HETATM   17  C13 BCR K 102     -37.940 134.404   9.603  1.00 43.65    -0.062 C 
HETATM   18  C14 BCR K 102     -38.507 135.451   8.986  1.00 41.27     0.007 C 
HETATM   19  C15 BCR K 102     -39.420 136.322   9.710  1.00 46.01     0.001 C 
HETATM   20  C16 BCR K 102     -40.000 137.365   9.122  1.00 47.96     0.001 C 
HETATM   21  C17 BCR K 102     -40.946 138.161   9.899  1.00 48.87     0.007 C 
HETATM   22  C18 BCR K 102     -41.593 139.226   9.404  1.00 44.87    -0.062 C 
HETATM   23  C19 BCR K 102     -42.558 139.936  10.255  1.00 44.84     0.007 C 
HETATM   24  C20 BCR K 102     -43.333 140.895   9.764  1.00 40.19     0.001 C 
HETATM   25  C21 BCR K 102     -44.278 141.499  10.683  1.00 40.61     0.007 C 
HETATM   26  C22 BCR K 102     -45.377 142.128  10.259  1.00 41.40    -0.062 C 
HETATM   27  C23 BCR K 102     -46.314 142.674  11.252  1.00 40.78     0.007 C 
HETATM   28  C24 BCR K 102     -47.395 143.336  10.867  1.00 40.34     0.009 C 
HETATM   29  C25 BCR K 102     -48.384 143.871  11.819  1.00 39.31    -0.048 C 
HETATM   30  C26 BCR K 102     -48.153 144.934  12.584  1.00 41.98    -0.077 C 
HETATM   31  C27 BCR K 102     -49.115 145.403  13.643  1.00 42.86     0.034 C 
HETATM   32  C28 BCR K 102     -50.117 144.317  13.968  1.00 43.57     0.005 C 
HETATM   33  C29 BCR K 102     -50.741 143.822  12.680  1.00 41.79     0.014 C 
HETATM   34  C30 BCR K 102     -49.692 143.143  11.827  1.00 41.39    -0.020 C 
HETATM   35  C35 BCR K 102     -38.247 134.117  11.035  1.00 47.44     0.048 C 
HETATM   36  C36 BCR K 102     -41.373 139.693   8.002  1.00 40.18     0.048 C 
HETATM   37  C37 BCR K 102     -45.669 142.253   8.797  1.00 41.35     0.048 C 
HETATM   38  C38 BCR K 102     -46.907 145.737  12.399  1.00 46.90     0.044 C 
HETATM   39  C39 BCR K 102     -50.137 143.091  10.376  1.00 44.18     0.020 C 
HETATM   40  C40 BCR K 102     -49.468 141.730  12.323  1.00 41.68     0.020 C 
ENDROOT
TORSDOF 10
BEGIN_RES PHE A  61
REMARK  2 active torsions:
REMARK  status: ('A' for Active; 'I' for Inactive)
REMARK    1  A    between atoms: CA   and  CB  
REMARK    2  A    between atoms: CB   and  CG  
ROOT
ATOM      1  CA  PHE A  61     -36.237 128.293  12.768  1.00 39.40     0.164 C 
ENDROOT
BRANCH   1   2
ATOM      2  CB  PHE A  61     -36.813 128.951  11.509  1.00 39.41     0.058 C 
BRANCH   2   3
ATOM      3  CG  PHE A  61     -37.024 128.005  10.351  1.00 39.01    -0.020 A 
ATOM      4  CD2 PHE A  61     -36.279 126.842  10.238  1.00 40.32    -0.004 A 
ATOM      5  CE2 PHE A  61     -36.472 125.973   9.171  1.00 40.20    -0.000 A 
ATOM      6  CZ  PHE A  61     -37.414 126.256   8.208  1.00 40.34    -0.000 A 
ATOM      7  CE1 PHE A  61     -38.164 127.407   8.307  1.00 41.51    -0.000 A 
ATOM      8  CD1 PHE A  61     -37.967 128.279   9.370  1.00 39.94    -0.004 A 
ENDBRANCH   2   3
ENDBRANCH   1   2
END_RES PHE A  61
BEGIN_RES VAL A 134
REMARK  1 active torsions:
REMARK  status: ('A' for Active; 'I' for Inactive)
REMARK    3  A    between atoms: CA   and  CB  
ROOT
ATOM      9  CA  VAL A 134     -29.766 132.051   9.815  1.00 40.75     0.159 C 
ENDROOT
BRANCH   9  10
ATOM     10  CB  VAL A 134     -30.864 132.765   9.009  1.00 40.76     0.029 C 
ATOM     11  CG1 VAL A 134     -31.211 131.975   7.756  1.00 41.76     0.002 C 
ATOM     12  CG2 VAL A 134     -32.105 133.016   9.851  1.00 40.56     0.002 C 
ENDBRANCH   9  10
END_RES VAL A 134
BEGIN_RES TYR A 338
REMARK  3 active torsions:
REMARK  status: ('A' for Active; 'I' for Inactive)
REMARK    4  A    between atoms: CA   and  CB  
REMARK    5  A    between atoms: CB   and  CG  
REMARK    6  A    between atoms: CZ   and  OH  
ROOT
ATOM     13  CA  TYR A 338     -41.631 124.950   6.058  1.00 38.23     0.164 C 
ENDROOT
BRANCH  13  14
ATOM     14  CB  TYR A 338     -41.621 126.456   6.339  1.00 39.15     0.058 C 
BRANCH  14  15
ATOM     15  CG  TYR A 338     -40.424 127.214   5.812  1.00 39.03    -0.020 A 
ATOM     16  CD2 TYR A 338     -40.250 128.552   6.122  1.00 40.65    -0.002 A 
ATOM     17  CE2 TYR A 338     -39.173 129.282   5.643  1.00 40.91     0.024 A 
ATOM     18  CZ  TYR A 338     -38.236 128.670   4.832  1.00 42.33     0.089 A 
ATOM     19  CE1 TYR A 338     -38.385 127.332   4.512  1.00 40.63     0.024 A 
ATOM     20  CD1 TYR A 338     -39.477 126.623   4.990  1.00 39.27    -0.002 A 
BRANCH  18  21
ATOM     21  OH  TYR A 338     -37.167 129.379   4.358  1.00 43.36    -0.359 OA
ATOM     22  HH  TYR A 338     -36.690 129.075   3.595  1.00  0.00     0.217 HD
ENDBRANCH  18  21
ENDBRANCH  14  15
ENDBRANCH  13  14
END_RES TYR A 338
ENDMDL
MODEL 2
REMARK VINA RESULT:    -7.006      1.365      1.683
REMARK INTER + INTRA:         -10.252
REMARK INTER:                  -7.277
REMARK INTRA:                  -2.975
REMARK UNBOUND:                -3.247
REMARK  0 active torsions:
REMARK  status: ('A' for Active; 'I' for Inactive)
REMARK       I    between atoms: C6_6  and  C7_7 
REMARK       I    between atoms: C8_8  and  C9_9 
REMARK       I    between atoms: C10_10  and  C11_11 
REMARK       I    between atoms: C12_16  and  C13_17 
REMARK       I    between atoms: C14_18  and  C15_19 
REMARK       I    between atoms: C16_20  and  C17_21 
REMARK       I    between atoms: C18_22  and  C19_23 
REMARK       I    between atoms: C20_24  and  C21_25 
REMARK       I    between atoms: C22_26  and  C23_27 
REMARK       I    between atoms: C24_28  and  C25_29 
ROOT
HETATM    1  C1  BCR K 102     -34.454 128.008   6.323  1.00 44.36    -0.020 C 
HETATM    2  C2  BCR K 102     -33.588 127.318   5.282  1.00 45.66     0.014 C 
HETATM    3  C3  BCR K 102     -32.399 128.164   4.889  1.00 45.76     0.005 C 
HETATM    4  C4  BCR K 102     -31.539 128.490   6.093  1.00 46.84     0.034 C 
HETATM    5  C5  BCR K 102     -32.359 128.968   7.262  1.00 45.49    -0.077 C 
HETATM    6  C6  BCR K 102     -33.687 128.910   7.260  1.00 44.85    -0.048 C 
HETATM    7  C7  BCR K 102     -34.512 129.677   8.208  1.00 41.42     0.009 C 
HETATM    8  C8  BCR K 102     -34.630 130.996   8.202  1.00 39.50     0.007 C 
HETATM    9  C9  BCR K 102     -35.542 131.603   9.184  1.00 44.88    -0.062 C 
HETATM   10  C10 BCR K 102     -36.190 132.719   8.832  1.00 44.81     0.007 C 
HETATM   11  C11 BCR K 102     -37.174 133.422   9.649  1.00 45.72     0.001 C 
HETATM   12  C33 BCR K 102     -31.620 129.494   8.455  1.00 46.47     0.044 C 
HETATM   13  C31 BCR K 102     -35.153 126.953   7.163  1.00 48.64     0.020 C 
HETATM   14  C32 BCR K 102     -35.494 128.856   5.616  1.00 40.14     0.020 C 
HETATM   15  C34 BCR K 102     -35.757 130.974  10.520  1.00 47.98     0.048 C 
HETATM   16  C12 BCR K 102     -37.745 134.452   9.036  1.00 46.57     0.007 C 
HETATM   17  C13 BCR K 102     -38.811 135.305   9.581  1.00 43.65    -0.062 C 
HETATM   18  C14 BCR K 102     -39.088 136.481   9.000  1.00 41.27     0.007 C 
HETATM   19  C15 BCR K 102     -40.178 137.307   9.497  1.00 46.01     0.001 C 
HETATM   20  C16 BCR K 102     -40.477 138.476   8.937  1.00 47.96     0.001 C 
HETATM   21  C17 BCR K 102     -41.619 139.222   9.459  1.00 48.87     0.007 C 
HETATM   22  C18 BCR K 102     -42.014 140.404   8.963  1.00 44.87    -0.062 C 
HETATM   23  C19 BCR K 102     -43.202 141.055   9.532  1.00 44.84     0.007 C 
HETATM   24  C20 BCR K 102     -43.720 142.144   8.977  1.00 40.19     0.001 C 
HETATM   25  C21 BCR K 102     -44.918 142.680   9.595  1.00 40.61     0.007 C 
HETATM   26  C22 BCR K 102     -45.772 143.461   8.930  1.00 41.40    -0.062 C 
HETATM   27  C23 BCR K 102     -46.990 143.928   9.609  1.00 40.78     0.007 C 
HETATM   28  C24 BCR K 102     -47.839 144.735   8.991  1.00 40.34     0.009 C 
HETATM   29  C25 BCR K 102     -49.091 145.200   9.612  1.00 39.31    -0.048 C 
HETATM   30  C26 BCR K 102     -49.125 146.108  10.585  1.00 41.98    -0.077 C 
HETATM   31  C27 BCR K 102     -50.393 146.490  11.302  1.00 42.86     0.034 C 
HETATM   32  C28 BCR K 102     -51.473 145.460  11.056  1.00 43.57     0.005 C 
HETATM   33  C29 BCR K 102     -51.600 145.228   9.565  1.00 41.79     0.014 C 
HETATM   34  C30 BCR K 102     -50.332 144.599   9.030  1.00 41.39    -0.020 C 
HETATM   35  C35 BCR K 102     -39.623 134.827  10.738  1.00 47.44     0.048 C 
HETATM   36  C36 BCR K 102     -41.288 141.061   7.835  1.00 40.18     0.048 C 
HETATM   37  C37 BCR K 102     -45.510 143.838   7.505  1.00 41.35     0.048 C 
HETATM   38  C38 BCR K 102     -47.876 146.816  10.996  1.00 46.90     0.044 C 
HETATM   39  C39 BCR K 102     -50.223 144.812   7.531  1.00 44.18     0.020 C 
HETATM   40  C40 BCR K 102     -50.341 143.112   9.315  1.00 41.68     0.020 C 
ENDROOT
TORSDOF 10
BEGIN_RES PHE A  61
REMARK  2 active torsions:
REMARK  status: ('A' for Active; 'I' for Inactive)
REMARK    1  A    between atoms: CA   and  CB  
REMARK    2  A    between atoms: CB   and  CG  
ROOT
ATOM      1  CA  PHE A  61     -36.237 128.293  12.768  1.00 39.40     0.164 C 
ENDROOT
BRANCH   1   2
ATOM      2  CB  PHE A  61     -36.813 128.951  11.509  1.00 39.41     0.058 C 
BRANCH   2   3
ATOM      3  CG  PHE A  61     -37.030 128.004  10.354  1.00 39.01    -0.020 A 
ATOM      4  CD2 PHE A  61     -36.296 126.833  10.245  1.00 40.32    -0.004 A 
ATOM      5  CE2 PHE A  61     -36.495 125.964   9.180  1.00 40.20    -0.000 A 
ATOM      6  CZ  PHE A  61     -37.432 126.253   8.214  1.00 40.34    -0.000 A 
ATOM      7  CE1 PHE A  61     -38.171 127.411   8.308  1.00 41.51    -0.000 A 
ATOM      8  CD1 PHE A  61     -37.968 128.284   9.370  1.00 39.94    -0.004 A 
ENDBRANCH   2   3
ENDBRANCH   1   2
END_RES PHE A  61
BEGIN_RES VAL A 134
REMARK  1 active torsions:
REMARK  status: ('A' for Active; 'I' for Inactive)
REMARK    3  A    between atoms: CA   and  CB  
ROOT
ATOM      9  CA  VAL A 134     -29.766 132.051   9.815  1.00 40.75     0.159 C 
ENDROOT
BRANCH   9  10
ATOM     10  CB  VAL A 134     -30.864 132.765   9.009  1.00 40.76     0.029 C 
ATOM     11  CG1 VAL A 134     -30.996 132.155   7.621  1.00 41.76     0.002 C 
ATOM     12  CG2 VAL A 134     -32.199 132.744   9.738  1.00 40.56     0.002 C 
ENDBRANCH   9  10
END_RES VAL A 134
BEGIN_RES TYR A 338
REMARK  3 active torsions:
REMARK  status: ('A' for Active; 'I' for Inactive)
REMARK    4  A    between atoms: CA   and  CB  
REMARK    5  A    between atoms: CB   and  CG  
REMARK    6  A    between atoms: CZ   and  OH  
ROOT
ATOM     13  CA  TYR A 338     -41.631 124.950   6.058  1.00 38.23     0.164 C 
ENDROOT
BRANCH  13  14
ATOM     14  CB  TYR A 338     -41.621 126.456   6.339  1.00 39.15     0.058 C 
BRANCH  14  15
ATOM     15  CG  TYR A 338     -40.429 127.216   5.803  1.00 39.03    -0.020 A 
ATOM     16  CD2 TYR A 338     -40.275 128.563   6.080  1.00 40.65    -0.002 A 
ATOM     17  CE2 TYR A 338     -39.203 129.294   5.592  1.00 40.91     0.024 A 
ATOM     18  CZ  TYR A 338     -38.252 128.675   4.803  1.00 42.33     0.089 A 
ATOM     19  CE1 TYR A 338     -38.382 127.328   4.516  1.00 40.63     0.024 A 
ATOM     20  CD1 TYR A 338     -39.468 126.617   5.003  1.00 39.27    -0.002 A 
BRANCH  18  21
ATOM     21  OH  TYR A 338     -37.188 129.385   4.320  1.00 43.36    -0.359 OA
ATOM     22  HH  TYR A 338     -36.868 129.231   3.439  1.00  0.00     0.217 HD
ENDBRANCH  18  21
ENDBRANCH  14  15
ENDBRANCH  13  14
END_RES TYR A 338
ENDMDL
MODEL 3
REMARK VINA RESULT:    -6.682      1.604     15.964
REMARK INTER + INTRA:          -9.929
REMARK INTER:                  -5.636
REMARK INTRA:                  -4.293
REMARK UNBOUND:                -3.247
REMARK  0 active torsions:
REMARK  status: ('A' for Active; 'I' for Inactive)
REMARK       I    between atoms: C6_6  and  C7_7 
REMARK       I    between atoms: C8_8  and  C9_9 
REMARK       I    between atoms: C10_10  and  C11_11 
REMARK       I    between atoms: C12_16  and  C13_17 
REMARK       I    between atoms: C14_18  and  C15_19 
REMARK       I    between atoms: C16_20  and  C17_21 
REMARK       I    between atoms: C18_22  and  C19_23 
REMARK       I    between atoms: C20_24  and  C21_25 
REMARK       I    between atoms: C22_26  and  C23_27 
REMARK       I    between atoms: C24_28  and  C25_29 
ROOT
HETATM    1  C1  BCR K 102     -50.185 145.051   8.497  1.00 44.36    -0.020 C 
HETATM    2  C2  BCR K 102     -51.606 145.318   8.963  1.00 45.66     0.014 C 
HETATM    3  C3  BCR K 102     -51.706 145.352  10.471  1.00 45.76     0.005 C 
HETATM    4  C4  BCR K 102     -50.798 146.414  11.055  1.00 46.84     0.034 C 
HETATM    5  C5  BCR K 102     -49.414 146.363  10.465  1.00 45.49    -0.077 C 
HETATM    6  C6  BCR K 102     -49.122 145.593   9.422  1.00 44.85    -0.048 C 
HETATM    7  C7  BCR K 102     -47.738 145.254   9.054  1.00 41.42     0.009 C 
HETATM    8  C8  BCR K 102     -46.939 144.479   9.773  1.00 39.50     0.007 C 
HETATM    9  C9  BCR K 102     -45.601 144.192   9.233  1.00 44.88    -0.062 C 
HETATM   10  C10 BCR K 102     -45.058 143.001   9.502  1.00 44.81     0.007 C 
HETATM   11  C11 BCR K 102     -43.773 142.521   9.003  1.00 45.72     0.001 C 
HETATM   12  C33 BCR K 102     -48.367 147.241  11.083  1.00 46.47     0.044 C 
HETATM   13  C31 BCR K 102     -49.983 145.690   7.134  1.00 48.64     0.020 C 
HETATM   14  C32 BCR K 102     -49.977 143.553   8.383  1.00 40.14     0.020 C 
HETATM   15  C34 BCR K 102     -44.886 145.194   8.388  1.00 47.98     0.048 C 
HETATM   16  C12 BCR K 102     -43.502 141.265   9.336  1.00 46.57     0.007 C 
HETATM   17  C13 BCR K 102     -42.317 140.494   8.928  1.00 43.65    -0.062 C 
HETATM   18  C14 BCR K 102     -42.008 139.357   9.567  1.00 41.27     0.007 C 
HETATM   19  C15 BCR K 102     -40.871 138.558   9.133  1.00 46.01     0.001 C 
HETATM   20  C16 BCR K 102     -40.544 137.424   9.746  1.00 47.96     0.001 C 
HETATM   21  C17 BCR K 102     -39.423 136.651   9.219  1.00 48.87     0.007 C 
HETATM   22  C18 BCR K 102     -39.014 135.490   9.753  1.00 44.87    -0.062 C 
HETATM   23  C19 BCR K 102     -37.901 134.767   9.123  1.00 44.84     0.007 C 
HETATM   24  C20 BCR K 102     -37.562 133.546   9.519  1.00 40.19     0.001 C 
HETATM   25  C21 BCR K 102     -36.476 132.909   8.800  1.00 40.61     0.007 C 
HETATM   26  C22 BCR K 102     -36.321 131.583   8.778  1.00 41.40    -0.062 C 
HETATM   27  C23 BCR K 102     -35.223 131.007   7.988  1.00 40.78     0.007 C 
HETATM   28  C24 BCR K 102     -35.017 129.698   7.974  1.00 40.34     0.009 C 
HETATM   29  C25 BCR K 102     -33.956 129.067   7.170  1.00 39.31    -0.048 C 
HETATM   30  C26 BCR K 102     -32.665 129.145   7.483  1.00 41.98    -0.077 C 
HETATM   31  C27 BCR K 102     -31.575 128.606   6.595  1.00 42.86     0.034 C 
HETATM   32  C28 BCR K 102     -32.103 128.354   5.200  1.00 43.57     0.005 C 
HETATM   33  C29 BCR K 102     -33.358 127.512   5.293  1.00 41.79     0.014 C 
HETATM   34  C30 BCR K 102     -34.452 128.291   5.990  1.00 41.39    -0.020 C 
HETATM   35  C35 BCR K 102     -41.505 140.948   7.761  1.00 47.44     0.048 C 
HETATM   36  C36 BCR K 102     -39.678 134.906  10.957  1.00 40.18     0.048 C 
HETATM   37  C37 BCR K 102     -37.263 130.692   9.524  1.00 41.35     0.048 C 
HETATM   38  C38 BCR K 102     -32.240 129.766   8.773  1.00 46.90     0.044 C 
HETATM   39  C39 BCR K 102     -35.511 127.350   6.538  1.00 44.18     0.020 C 
HETATM   40  C40 BCR K 102     -35.102 129.245   5.010  1.00 41.68     0.020 C 
ENDROOT
TORSDOF 10
BEGIN_RES PHE A  61
REMARK  2 active torsions:
REMARK  status: ('A' for Active; 'I' for Inactive)
REMARK    1  A    between atoms: CA   and  CB  
REMARK    2  A    between atoms: CB   and  CG  
ROOT
ATOM      1  CA  PHE A  61     -36.237 128.293  12.768  1.00 39.40     0.164 C 
ENDROOT
BRANCH   1   2
ATOM      2  CB  PHE A  61     -36.813 128.951  11.509  1.00 39.41     0.058 C 
BRANCH   2   3
ATOM      3  CG  PHE A  61     -36.935 128.026  10.322  1.00 39.01    -0.020 A 
ATOM      4  CD2 PHE A  61     -38.025 128.104   9.468  1.00 40.32    -0.004 A 
ATOM      5  CE2 PHE A  61     -38.138 127.250   8.378  1.00 40.20    -0.000 A 
ATOM      6  CZ  PHE A  61     -37.162 126.312   8.127  1.00 40.34    -0.000 A 
ATOM      7  CE1 PHE A  61     -36.072 126.224   8.965  1.00 41.51    -0.000 A 
ATOM      8  CD1 PHE A  61     -35.962 127.073  10.058  1.00 39.94    -0.004 A 
ENDBRANCH   2   3
ENDBRANCH   1   2
END_RES PHE A  61
BEGIN_RES VAL A 134
REMARK  1 active torsions:
REMARK  status: ('A' for Active; 'I' for Inactive)
REMARK    3  A    between atoms: CA   and  CB  
ROOT
ATOM      9  CA  VAL A 134     -29.766 132.051   9.815  1.00 40.75     0.159 C 
ENDROOT
BRANCH   9  10
ATOM     10  CB  VAL A 134     -30.864 132.765   9.009  1.00 40.76     0.029 C 
ATOM     11  CG1 VAL A 134     -30.935 132.215   7.592  1.00 41.76     0.002 C 
ATOM     12  CG2 VAL A 134     -32.218 132.667   9.696  1.00 40.56     0.002 C 
ENDBRANCH   9  10
END_RES VAL A 134
BEGIN_RES TYR A 338
REMARK  3 active torsions:
REMARK  status: ('A' for Active; 'I' for Inactive)
REMARK    4  A    between atoms: CA   and  CB  
REMARK    5  A    between atoms: CB   and  CG  
REMARK    6  A    between atoms: CZ   and  OH  
ROOT
ATOM     13  CA  TYR A 338     -41.631 124.950   6.058  1.00 38.23     0.164 C 
ENDROOT
BRANCH  13  14
ATOM     14  CB  TYR A 338     -41.621 126.456   6.339  1.00 39.15     0.058 C 
BRANCH  14  15
ATOM     15  CG  TYR A 338     -40.425 127.214   5.810  1.00 39.03    -0.020 A 
ATOM     16  CD2 TYR A 338     -40.247 128.550   6.127  1.00 40.65    -0.002 A 
ATOM     17  CE2 TYR A 338     -39.170 129.280   5.647  1.00 40.91     0.024 A 
ATOM     18  CZ  TYR A 338     -38.239 128.672   4.826  1.00 42.33     0.089 A 
ATOM     19  CE1 TYR A 338     -38.393 127.336   4.500  1.00 40.63     0.024 A 
ATOM     20  CD1 TYR A 338     -39.484 126.627   4.979  1.00 39.27    -0.002 A 
BRANCH  18  21
ATOM     21  OH  TYR A 338     -37.172 129.380   4.351  1.00 43.36    -0.359 OA
ATOM     22  HH  TYR A 338     -37.120 129.612   3.431  1.00  0.00     0.217 HD
ENDBRANCH  18  21
ENDBRANCH  14  15
ENDBRANCH  13  14
END_RES TYR A 338
ENDMDL
MODEL 4
REMARK VINA RESULT:    -6.306      1.652      3.002
REMARK INTER + INTRA:          -9.552
REMARK INTER:                  -9.706
REMARK INTRA:                   0.154
REMARK UNBOUND:                -3.247
REMARK  0 active torsions:
REMARK  status: ('A' for Active; 'I' for Inactive)
REMARK       I    between atoms: C6_6  and  C7_7 
REMARK       I    between atoms: C8_8  and  C9_9 
REMARK       I    between atoms: C10_10  and  C11_11 
REMARK       I    between atoms: C12_16  and  C13_17 
REMARK       I    between atoms: C14_18  and  C15_19 
REMARK       I    between atoms: C16_20  and  C17_21 
REMARK       I    between atoms: C18_22  and  C19_23 
REMARK       I    between atoms: C20_24  and  C21_25 
REMARK       I    between atoms: C22_26  and  C23_27 
REMARK       I    between atoms: C24_28  and  C25_29 
ROOT
HETATM    1  C1  BCR K 102     -35.721 127.269   8.557  1.00 44.36    -0.020 C 
HETATM    2  C2  BCR K 102     -35.583 125.863   7.997  1.00 45.66     0.014 C 
HETATM    3  C3  BCR K 102     -35.654 125.850   6.487  1.00 45.76     0.005 C 
HETATM    4  C4  BCR K 102     -34.572 126.720   5.882  1.00 46.84     0.034 C 
HETATM    5  C5  BCR K 102     -34.488 128.067   6.548  1.00 45.49    -0.077 C 
HETATM    6  C6  BCR K 102     -35.168 128.347   7.656  1.00 44.85    -0.048 C 
HETATM    7  C7  BCR K 102     -35.385 129.726   8.121  1.00 41.42     0.009 C 
HETATM    8  C8  BCR K 102     -36.149 130.615   7.502  1.00 39.50     0.007 C 
HETATM    9  C9  BCR K 102     -36.306 131.935   8.131  1.00 44.88    -0.062 C 
HETATM   10  C10 BCR K 102     -37.472 132.569   7.975  1.00 44.81     0.007 C 
HETATM   11  C11 BCR K 102     -37.828 133.851   8.574  1.00 45.72     0.001 C 
HETATM   12  C33 BCR K 102     -33.583 129.089   5.930  1.00 46.47     0.044 C 
HETATM   13  C31 BCR K 102     -34.982 127.348   9.882  1.00 48.64     0.020 C 
HETATM   14  C32 BCR K 102     -37.190 127.568   8.785  1.00 40.14     0.020 C 
HETATM   15  C34 BCR K 102     -35.205 132.532   8.943  1.00 47.98     0.048 C 
HETATM   16  C12 BCR K 102     -39.082 134.224   8.344  1.00 46.57     0.007 C 
HETATM   17  C13 BCR K 102     -39.740 135.430   8.867  1.00 43.65    -0.062 C 
HETATM   18  C14 BCR K 102     -40.892 135.850   8.326  1.00 41.27     0.007 C 
HETATM   19  C15 BCR K 102     -41.581 137.009   8.874  1.00 46.01     0.001 C 
HETATM   20  C16 BCR K 102     -42.728 137.445   8.360  1.00 47.96     0.001 C 
HETATM   21  C17 BCR K 102     -43.385 138.582   8.998  1.00 48.87     0.007 C 
HETATM   22  C18 BCR K 102     -44.547 139.096   8.568  1.00 44.87    -0.062 C 
HETATM   23  C19 BCR K 102     -45.149 140.215   9.306  1.00 44.84     0.007 C 
HETATM   24  C20 BCR K 102     -46.366 140.655   9.013  1.00 40.19     0.001 C 
HETATM   25  C21 BCR K 102     -46.879 141.737   9.832  1.00 40.61     0.007 C 
HETATM   26  C22 BCR K 102     -48.187 141.977   9.953  1.00 41.40    -0.062 C 
HETATM   27  C23 BCR K 102     -48.634 143.062  10.840  1.00 40.78     0.007 C 
HETATM   28  C24 BCR K 102     -49.921 143.352  10.955  1.00 40.34     0.009 C 
HETATM   29  C25 BCR K 102     -50.424 144.403  11.856  1.00 39.31    -0.048 C 
HETATM   30  C26 BCR K 102     -50.278 145.702  11.609  1.00 41.98    -0.077 C 
HETATM   31  C27 BCR K 102     -50.681 146.771  12.590  1.00 42.86     0.034 C 
HETATM   32  C28 BCR K 102     -50.877 146.179  13.968  1.00 43.57     0.005 C 
HETATM   33  C29 BCR K 102     -51.808 144.990  13.866  1.00 41.79     0.014 C 
HETATM   34  C30 BCR K 102     -51.154 143.890  13.058  1.00 41.39    -0.020 C 
HETATM   35  C35 BCR K 102     -39.157 136.141  10.043  1.00 47.44     0.048 C 
HETATM   36  C36 BCR K 102     -45.252 138.544   7.372  1.00 40.18     0.048 C 
HETATM   37  C37 BCR K 102     -49.187 141.141   9.220  1.00 41.35     0.048 C 
HETATM   38  C38 BCR K 102     -49.713 146.160  10.304  1.00 46.90     0.044 C 
HETATM   39  C39 BCR K 102     -52.199 142.929  12.520  1.00 44.18     0.020 C 
HETATM   40  C40 BCR K 102     -50.186 143.123  13.934  1.00 41.68     0.020 C 
ENDROOT
TORSDOF 10
BEGIN_RES PHE A  61
REMARK  2 active torsions:
REMARK  status: ('A' for Active; 'I' for Inactive)
REMARK    1  A    between atoms: CA   and  CB  
REMARK    2  A    between atoms: CB   and  CG  
ROOT
ATOM      1  CA  PHE A  61     -36.237 128.293  12.768  1.00 39.40     0.164 C 
ENDROOT
BRANCH   1   2
ATOM      2  CB  PHE A  61     -36.813 128.951  11.509  1.00 39.41     0.058 C 
BRANCH   2   3
ATOM      3  CG  PHE A  61     -36.776 130.460  11.521  1.00 39.01    -0.020 A 
ATOM      4  CD2 PHE A  61     -37.937 131.202  11.374  1.00 40.32    -0.004 A 
ATOM      5  CE2 PHE A  61     -37.901 132.591  11.382  1.00 40.20    -0.000 A 
ATOM      6  CZ  PHE A  61     -36.705 133.253  11.541  1.00 40.34    -0.000 A 
ATOM      7  CE1 PHE A  61     -35.542 132.531  11.691  1.00 41.51    -0.000 A 
ATOM      8  CD1 PHE A  61     -35.577 131.142  11.677  1.00 39.94    -0.004 A 
ENDBRANCH   2   3
ENDBRANCH   1   2
END_RES PHE A  61
BEGIN_RES VAL A 134
REMARK  1 active torsions:
REMARK  status: ('A' for Active; 'I' for Inactive)
REMARK    3  A    between atoms: CA   and  CB  
ROOT
ATOM      9  CA  VAL A 134     -29.766 132.051   9.815  1.00 40.75     0.159 C 
ENDROOT
BRANCH   9  10
ATOM     10  CB  VAL A 134     -30.864 132.765   9.009  1.00 40.76     0.029 C 
ATOM     11  CG1 VAL A 134     -31.228 131.963   7.768  1.00 41.76     0.002 C 
ATOM     12  CG2 VAL A 134     -32.096 133.037   9.858  1.00 40.56     0.002 C 
ENDBRANCH   9  10
END_RES VAL A 134
BEGIN_RES TYR A 338
REMARK  3 active torsions:
REMARK  status: ('A' for Active; 'I' for Inactive)
REMARK    4  A    between atoms: CA   and  CB  
REMARK    5  A    between atoms: CB   and  CG  
REMARK    6  A    between atoms: CZ   and  OH  
ROOT
ATOM     13  CA  TYR A 338     -41.631 124.950   6.058  1.00 38.23     0.164 C 
ENDROOT
BRANCH  13  14
ATOM     14  CB  TYR A 338     -41.621 126.456   6.339  1.00 39.15     0.058 C 
BRANCH  14  15
ATOM     15  CG  TYR A 338     -40.376 127.196   5.907  1.00 39.03    -0.020 A 
ATOM     16  CD2 TYR A 338     -40.135 128.484   6.354  1.00 40.65    -0.002 A 
ATOM     17  CE2 TYR A 338     -39.012 129.197   5.967  1.00 40.91     0.024 A 
ATOM     18  CZ  TYR A 338     -38.095 128.621   5.108  1.00 42.33     0.089 A 
ATOM     19  CE1 TYR A 338     -38.311 127.332   4.651  1.00 40.63     0.024 A 
ATOM     20  CD1 TYR A 338     -39.447 126.640   5.040  1.00 39.27    -0.002 A 
BRANCH  18  21
ATOM     21  OH  TYR A 338     -36.982 129.313   4.722  1.00 43.36    -0.359 OA
ATOM     22  HH  TYR A 338     -37.052 130.217   4.438  1.00  0.00     0.217 HD
ENDBRANCH  18  21
ENDBRANCH  14  15
ENDBRANCH  13  14
END_RES TYR A 338
ENDMDL
