MODEL 1
REMARK VINA RESULT:    -8.915      0.000      0.000
REMARK INTER + INTRA:         -11.402
REMARK INTER:                  -8.915
REMARK INTRA:                  -2.486
REMARK UNBOUND:                -2.486
REMARK  0 active torsions:
REMARK  status: ('A' for Active; 'I' for Inactive)
REMARK       I    between atoms: C6_6  and  C7_7 
REMARK       I    between atoms: C8_8  and  C9_9 
REMARK       I    between atoms: C10_10  and  C11_11 
REMARK       I    between atoms: C12_16  and  C13_17 
REMARK       I    between atoms: C14_18  and  C15_19 
REMARK       I    between atoms: C16_20  and  C17_21 
REMARK       I    between atoms: C18_22  and  C19_23 
REMARK       I    between atoms: C20_24  and  C21_25 
REMARK       I    between atoms: C22_26  and  C23_27 
REMARK       I    between atoms: C24_28  and  C25_29 
ROOT
HETATM    1  C1  BCR B 616     -32.237 129.982   7.579  1.00 31.32    -0.020 C 
HETATM    2  C2  BCR B 616     -31.395 128.934   6.880  1.00 32.97     0.014 C 
HETATM    3  C3  BCR B 616     -31.958 128.708   5.495  1.00 29.93     0.005 C 
HETATM    4  C4  BCR B 616     -33.306 128.040   5.612  1.00 26.02     0.034 C 
HETATM    5  C5  BCR B 616     -34.164 128.727   6.648  1.00 31.50    -0.077 C 
HETATM    6  C6  BCR B 616     -33.696 129.633   7.526  1.00 32.71    -0.048 C 
HETATM    7  C7  BCR B 616     -34.663 130.290   8.437  1.00 27.07     0.009 C 
HETATM    8  C8  BCR B 616     -35.121 131.523   8.219  1.00 26.19     0.007 C 
HETATM    9  C9  BCR B 616     -36.129 132.172   9.087  1.00 26.80    -0.062 C 
HETATM   10  C10 BCR B 616     -36.684 133.330   8.726  1.00 24.87     0.007 C 
HETATM   11  C11 BCR B 616     -37.722 133.979   9.520  1.00 26.76     0.001 C 
HETATM   12  C33 BCR B 616     -35.609 128.333   6.660  1.00 25.10     0.044 C 
HETATM   13  C31 BCR B 616     -32.012 131.312   6.880  1.00 28.04     0.020 C 
HETATM   14  C32 BCR B 616     -31.838 130.053   9.033  1.00 25.30     0.020 C 
HETATM   15  C34 BCR B 616     -36.581 131.540  10.361  1.00 25.88     0.048 C 
HETATM   16  C12 BCR B 616     -38.191 135.144   9.081  1.00 27.03     0.007 C 
HETATM   17  C13 BCR B 616     -39.273 135.906   9.721  1.00 24.87    -0.062 C 
HETATM   18  C14 BCR B 616     -39.689 137.052   9.158  1.00 25.36     0.007 C 
HETATM   19  C15 BCR B 616     -40.789 137.835   9.713  1.00 24.12     0.001 C 
HETATM   20  C16 BCR B 616     -41.311 138.868   9.067  1.00 24.28     0.001 C 
HETATM   21  C17 BCR B 616     -42.432 139.594   9.642  1.00 25.58     0.007 C 
HETATM   22  C18 BCR B 616     -42.988 140.651   9.038  1.00 28.46    -0.062 C 
HETATM   23  C19 BCR B 616     -44.135 141.306   9.692  1.00 23.05     0.007 C 
HETATM   24  C20 BCR B 616     -44.904 142.238   9.146  1.00 21.86     0.001 C 
HETATM   25  C21 BCR B 616     -46.000 142.735   9.965  1.00 26.78     0.007 C 
HETATM   26  C22 BCR B 616     -46.997 143.521   9.538  1.00 25.31    -0.062 C 
HETATM   27  C23 BCR B 616     -48.045 143.944  10.490  1.00 19.67     0.007 C 
HETATM   28  C24 BCR B 616     -49.038 144.740  10.112  1.00 21.08     0.009 C 
HETATM   29  C25 BCR B 616     -50.117 145.226  11.000  1.00 24.69    -0.048 C 
HETATM   30  C26 BCR B 616     -50.880 144.395  11.706  1.00 24.70    -0.077 C 
HETATM   31  C27 BCR B 616     -51.657 144.889  12.894  1.00 28.87     0.034 C 
HETATM   32  C28 BCR B 616     -52.287 146.216  12.551  1.00 22.34     0.005 C 
HETATM   33  C29 BCR B 616     -51.161 147.179  12.270  1.00 23.43     0.014 C 
HETATM   34  C30 BCR B 616     -50.348 146.727  11.069  1.00 25.38    -0.020 C 
HETATM   35  C35 BCR B 616     -39.916 135.372  10.958  1.00 22.52     0.048 C 
HETATM   36  C36 BCR B 616     -42.455 141.157   7.734  1.00 21.22     0.048 C 
HETATM   37  C37 BCR B 616     -47.031 143.971   8.114  1.00 24.02     0.048 C 
HETATM   38  C38 BCR B 616     -51.032 142.947  11.363  1.00 26.85     0.044 C 
HETATM   39  C39 BCR B 616     -49.007 147.426  11.139  1.00 22.16     0.020 C 
HETATM   40  C40 BCR B 616     -51.065 147.192   9.823  1.00 23.21     0.020 C 
ENDROOT
TORSDOF 10
BEGIN_RES PHE A  61
REMARK  2 active torsions:
REMARK  status: ('A' for Active; 'I' for Inactive)
REMARK    1  A    between atoms: CA   and  CB  
REMARK    2  A    between atoms: CB   and  CG  
ROOT
ATOM      1  CA  PHE A  61     -36.237 128.293  12.768  1.00 39.40     0.164 C 
ENDROOT
BRANCH   1   2
ATOM      2  CB  PHE A  61     -36.813 128.951  11.509  1.00 39.41     0.058 C 
BRANCH   2   3
ATOM      3  CG  PHE A  61     -36.852 128.051  10.297  1.00 39.01    -0.020 A 
ATOM      4  CD2 PHE A  61     -37.932 128.073   9.429  1.00 40.32    -0.004 A 
ATOM      5  CE2 PHE A  61     -37.968 127.243   8.316  1.00 40.20    -0.000 A 
ATOM      6  CZ  PHE A  61     -36.924 126.385   8.056  1.00 40.34    -0.000 A 
ATOM      7  CE1 PHE A  61     -35.843 126.352   8.908  1.00 41.51    -0.000 A 
ATOM      8  CD1 PHE A  61     -35.809 127.177  10.025  1.00 39.94    -0.004 A 
ENDBRANCH   2   3
ENDBRANCH   1   2
END_RES PHE A  61
BEGIN_RES VAL A 134
REMARK  1 active torsions:
REMARK  status: ('A' for Active; 'I' for Inactive)
REMARK    3  A    between atoms: CA   and  CB  
ROOT
ATOM      9  CA  VAL A 134     -29.766 132.051   9.815  1.00 40.75     0.159 C 
ENDROOT
BRANCH   9  10
ATOM     10  CB  VAL A 134     -30.864 132.765   9.009  1.00 40.76     0.029 C 
ATOM     11  CG1 VAL A 134     -32.099 132.995   9.868  1.00 41.76     0.002 C 
ATOM     12  CG2 VAL A 134     -30.365 134.075   8.419  1.00 40.56     0.002 C 
ENDBRANCH   9  10
END_RES VAL A 134
BEGIN_RES TYR A 338
REMARK  3 active torsions:
REMARK  status: ('A' for Active; 'I' for Inactive)
REMARK    4  A    between atoms: CA   and  CB  
REMARK    5  A    between atoms: CB   and  CG  
REMARK    6  A    between atoms: CZ   and  OH  
ROOT
ATOM     13  CA  TYR A 338     -41.631 124.950   6.058  1.00 38.23     0.164 C 
ENDROOT
BRANCH  13  14
ATOM     14  CB  TYR A 338     -41.621 126.456   6.339  1.00 39.15     0.058 C 
BRANCH  14  15
ATOM     15  CG  TYR A 338     -40.416 127.211   5.828  1.00 39.03    -0.020 A 
ATOM     16  CD2 TYR A 338     -40.254 128.555   6.120  1.00 40.65    -0.002 A 
ATOM     17  CE2 TYR A 338     -39.170 129.282   5.654  1.00 40.91     0.024 A 
ATOM     18  CZ  TYR A 338     -38.212 128.662   4.873  1.00 42.33     0.089 A 
ATOM     19  CE1 TYR A 338     -38.349 127.318   4.572  1.00 40.63     0.024 A 
ATOM     20  CD1 TYR A 338     -39.448 126.612   5.036  1.00 39.27    -0.002 A 
BRANCH  18  21
ATOM     21  OH  TYR A 338     -37.136 129.368   4.413  1.00 43.36    -0.359 OA
ATOM     22  HH  TYR A 338     -36.290 129.286   4.838  1.00  0.00     0.217 HD
ENDBRANCH  18  21
ENDBRANCH  14  15
ENDBRANCH  13  14
END_RES TYR A 338
ENDMDL
MODEL 2
REMARK VINA RESULT:    -8.527      1.561     16.448
REMARK INTER + INTRA:         -11.013
REMARK INTER:                  -9.659
REMARK INTRA:                  -1.354
REMARK UNBOUND:                -2.486
REMARK  0 active torsions:
REMARK  status: ('A' for Active; 'I' for Inactive)
REMARK       I    between atoms: C6_6  and  C7_7 
REMARK       I    between atoms: C8_8  and  C9_9 
REMARK       I    between atoms: C10_10  and  C11_11 
REMARK       I    between atoms: C12_16  and  C13_17 
REMARK       I    between atoms: C14_18  and  C15_19 
REMARK       I    between atoms: C16_20  and  C17_21 
REMARK       I    between atoms: C18_22  and  C19_23 
REMARK       I    between atoms: C20_24  and  C21_25 
REMARK       I    between atoms: C22_26  and  C23_27 
REMARK       I    between atoms: C24_28  and  C25_29 
ROOT
HETATM    1  C1  BCR B 616     -50.927 146.944  10.228  1.00 31.32    -0.020 C 
HETATM    2  C2  BCR B 616     -51.554 148.180  10.839  1.00 32.97     0.014 C 
HETATM    3  C3  BCR B 616     -50.719 148.610  12.024  1.00 29.93     0.005 C 
HETATM    4  C4  BCR B 616     -50.851 147.583  13.122  1.00 26.02     0.034 C 
HETATM    5  C5  BCR B 616     -50.684 146.183  12.578  1.00 31.50    -0.077 C 
HETATM    6  C6  BCR B 616     -50.686 145.885  11.266  1.00 32.71    -0.048 C 
HETATM    7  C7  BCR B 616     -50.433 144.480  10.867  1.00 27.07     0.009 C 
HETATM    8  C8  BCR B 616     -49.247 144.072  10.415  1.00 26.19     0.007 C 
HETATM    9  C9  BCR B 616     -48.961 142.663  10.065  1.00 26.80    -0.062 C 
HETATM   10  C10 BCR B 616     -47.714 142.276   9.791  1.00 24.87     0.007 C 
HETATM   11  C11 BCR B 616     -47.374 140.887   9.497  1.00 26.76     0.001 C 
HETATM   12  C33 BCR B 616     -50.520 145.103  13.602  1.00 25.10     0.044 C 
HETATM   13  C31 BCR B 616     -49.601 147.346   9.604  1.00 28.04     0.020 C 
HETATM   14  C32 BCR B 616     -51.865 146.366   9.197  1.00 25.30     0.020 C 
HETATM   15  C34 BCR B 616     -50.040 141.632  10.046  1.00 25.88     0.048 C 
HETATM   16  C12 BCR B 616     -46.103 140.614   9.214  1.00 27.03     0.007 C 
HETATM   17  C13 BCR B 616     -45.575 139.268   8.951  1.00 24.87    -0.062 C 
HETATM   18  C14 BCR B 616     -44.262 139.114   8.717  1.00 25.36     0.007 C 
HETATM   19  C15 BCR B 616     -43.662 137.802   8.495  1.00 24.12     0.001 C 
HETATM   20  C16 BCR B 616     -42.348 137.631   8.436  1.00 24.28     0.001 C 
HETATM   21  C17 BCR B 616     -41.795 136.300   8.252  1.00 25.58     0.007 C 
HETATM   22  C18 BCR B 616     -40.479 136.074   8.174  1.00 28.46    -0.062 C 
HETATM   23  C19 BCR B 616     -40.017 134.684   8.009  1.00 23.05     0.007 C 
HETATM   24  C20 BCR B 616     -38.758 134.275   8.096  1.00 21.86     0.001 C 
HETATM   25  C21 BCR B 616     -38.528 132.848   7.919  1.00 26.78     0.007 C 
HETATM   26  C22 BCR B 616     -37.375 132.210   8.161  1.00 25.31    -0.062 C 
HETATM   27  C23 BCR B 616     -37.293 130.752   7.937  1.00 19.67     0.007 C 
HETATM   28  C24 BCR B 616     -36.163 130.086   8.145  1.00 21.08     0.009 C 
HETATM   29  C25 BCR B 616     -35.986 128.632   7.929  1.00 24.69    -0.048 C 
HETATM   30  C26 BCR B 616     -36.776 127.731   8.508  1.00 24.70    -0.077 C 
HETATM   31  C27 BCR B 616     -36.868 126.332   7.968  1.00 28.87     0.034 C 
HETATM   32  C28 BCR B 616     -35.483 125.850   7.613  1.00 22.34     0.005 C 
HETATM   33  C29 BCR B 616     -34.965 126.760   6.527  1.00 23.43     0.014 C 
HETATM   34  C30 BCR B 616     -34.846 128.189   7.028  1.00 25.38    -0.020 C 
HETATM   35  C35 BCR B 616     -46.499 138.095   8.989  1.00 22.52     0.048 C 
HETATM   36  C36 BCR B 616     -39.501 137.204   8.249  1.00 21.22     0.048 C 
HETATM   37  C37 BCR B 616     -36.186 132.979   8.639  1.00 24.02     0.048 C 
HETATM   38  C38 BCR B 616     -37.593 128.033   9.725  1.00 26.85     0.044 C 
HETATM   39  C39 BCR B 616     -34.800 129.093   5.815  1.00 22.16     0.020 C 
HETATM   40  C40 BCR B 616     -33.533 128.313   7.766  1.00 23.21     0.020 C 
ENDROOT
TORSDOF 10
BEGIN_RES PHE A  61
REMARK  2 active torsions:
REMARK  status: ('A' for Active; 'I' for Inactive)
REMARK    1  A    between atoms: CA   and  CB  
REMARK    2  A    between atoms: CB   and  CG  
ROOT
ATOM      1  CA  PHE A  61     -36.237 128.293  12.768  1.00 39.40     0.164 C 
ENDROOT
BRANCH   1   2
ATOM      2  CB  PHE A  61     -36.813 128.951  11.509  1.00 39.41     0.058 C 
BRANCH   2   3
ATOM      3  CG  PHE A  61     -36.651 130.451  11.459  1.00 39.01    -0.020 A 
ATOM      4  CD2 PHE A  61     -35.408 131.026  11.246  1.00 40.32    -0.004 A 
ATOM      5  CE2 PHE A  61     -35.259 132.407  11.203  1.00 40.20    -0.000 A 
ATOM      6  CZ  PHE A  61     -36.351 133.227  11.370  1.00 40.34    -0.000 A 
ATOM      7  CE1 PHE A  61     -37.594 132.672  11.580  1.00 41.51    -0.000 A 
ATOM      8  CD1 PHE A  61     -37.742 131.292  11.630  1.00 39.94    -0.004 A 
ENDBRANCH   2   3
ENDBRANCH   1   2
END_RES PHE A  61
BEGIN_RES VAL A 134
REMARK  1 active torsions:
REMARK  status: ('A' for Active; 'I' for Inactive)
REMARK    3  A    between atoms: CA   and  CB  
ROOT
ATOM      9  CA  VAL A 134     -29.766 132.051   9.815  1.00 40.75     0.159 C 
ENDROOT
BRANCH   9  10
ATOM     10  CB  VAL A 134     -30.864 132.765   9.009  1.00 40.76     0.029 C 
ATOM     11  CG1 VAL A 134     -31.225 131.965   7.766  1.00 41.76     0.002 C 
ATOM     12  CG2 VAL A 134     -32.098 133.033   9.857  1.00 40.56     0.002 C 
ENDBRANCH   9  10
END_RES VAL A 134
BEGIN_RES TYR A 338
REMARK  3 active torsions:
REMARK  status: ('A' for Active; 'I' for Inactive)
REMARK    4  A    between atoms: CA   and  CB  
REMARK    5  A    between atoms: CB   and  CG  
REMARK    6  A    between atoms: CZ   and  OH  
ROOT
ATOM     13  CA  TYR A 338     -41.631 124.950   6.058  1.00 38.23     0.164 C 
ENDROOT
BRANCH  13  14
ATOM     14  CB  TYR A 338     -41.621 126.456   6.339  1.00 39.15     0.058 C 
BRANCH  14  15
ATOM     15  CG  TYR A 338     -40.396 127.204   5.865  1.00 39.03    -0.020 A 
ATOM     16  CD2 TYR A 338     -40.228 128.542   6.177  1.00 40.65    -0.002 A 
ATOM     17  CE2 TYR A 338     -39.125 129.263   5.746  1.00 40.91     0.024 A 
ATOM     18  CZ  TYR A 338     -38.156 128.642   4.980  1.00 42.33     0.089 A 
ATOM     19  CE1 TYR A 338     -38.299 127.304   4.659  1.00 40.63     0.024 A 
ATOM     20  CD1 TYR A 338     -39.416 126.604   5.089  1.00 39.27    -0.002 A 
BRANCH  18  21
ATOM     21  OH  TYR A 338     -37.062 129.342   4.553  1.00 43.36    -0.359 OA
ATOM     22  HH  TYR A 338     -36.317 129.467   5.130  1.00  0.00     0.217 HD
ENDBRANCH  18  21
ENDBRANCH  14  15
ENDBRANCH  13  14
END_RES TYR A 338
ENDMDL
MODEL 3
REMARK VINA RESULT:    -8.125      1.868      3.026
REMARK INTER + INTRA:         -10.611
REMARK INTER:                  -8.487
REMARK INTRA:                  -2.124
REMARK UNBOUND:                -2.486
REMARK  0 active torsions:
REMARK  status: ('A' for Active; 'I' for Inactive)
REMARK       I    between atoms: C6_6  and  C7_7 
REMARK       I    between atoms: C8_8  and  C9_9 
REMARK       I    between atoms: C10_10  and  C11_11 
REMARK       I    between atoms: C12_16  and  C13_17 
REMARK       I    between atoms: C14_18  and  C15_19 
REMARK       I    between atoms: C16_20  and  C17_21 
REMARK       I    between atoms: C18_22  and  C19_23 
REMARK       I    between atoms: C20_24  and  C21_25 
REMARK       I    between atoms: C22_26  and  C23_27 
REMARK       I    between atoms: C24_28  and  C25_29 
ROOT
HETATM    1  C1  BCR B 616     -33.706 127.687   7.521  1.00 31.32    -0.020 C 
HETATM    2  C2  BCR B 616     -32.697 126.753   6.885  1.00 32.97     0.014 C 
HETATM    3  C3  BCR B 616     -32.061 127.458   5.709  1.00 29.93     0.005 C 
HETATM    4  C4  BCR B 616     -33.093 127.638   4.622  1.00 26.02     0.034 C 
HETATM    5  C5  BCR B 616     -34.388 128.175   5.186  1.00 31.50    -0.077 C 
HETATM    6  C6  BCR B 616     -34.664 128.231   6.502  1.00 32.71    -0.048 C 
HETATM    7  C7  BCR B 616     -35.941 128.856   6.922  1.00 27.07     0.009 C 
HETATM    8  C8  BCR B 616     -36.000 130.101   7.399  1.00 26.19     0.007 C 
HETATM    9  C9  BCR B 616     -37.272 130.759   7.771  1.00 26.80    -0.062 C 
HETATM   10  C10 BCR B 616     -37.296 132.059   8.069  1.00 24.87     0.007 C 
HETATM   11  C11 BCR B 616     -38.533 132.765   8.386  1.00 26.76     0.001 C 
HETATM   12  C33 BCR B 616     -35.388 128.652   4.178  1.00 25.10     0.044 C 
HETATM   13  C31 BCR B 616     -32.947 128.837   8.162  1.00 28.04     0.020 C 
HETATM   14  C32 BCR B 616     -34.513 126.926   8.545  1.00 25.30     0.020 C 
HETATM   15  C34 BCR B 616     -38.562 130.008   7.785  1.00 25.88     0.048 C 
HETATM   16  C12 BCR B 616     -38.441 134.056   8.693  1.00 27.03     0.007 C 
HETATM   17  C13 BCR B 616     -39.585 134.932   8.982  1.00 24.87    -0.062 C 
HETATM   18  C14 BCR B 616     -39.367 136.232   9.239  1.00 25.36     0.007 C 
HETATM   19  C15 BCR B 616     -40.460 137.167   9.487  1.00 24.12     0.001 C 
HETATM   20  C16 BCR B 616     -40.259 138.476   9.569  1.00 24.28     0.001 C 
HETATM   21  C17 BCR B 616     -41.383 139.372   9.778  1.00 25.58     0.007 C 
HETATM   22  C18 BCR B 616     -41.235 140.698   9.881  1.00 28.46    -0.062 C 
HETATM   23  C19 BCR B 616     -42.441 141.524  10.071  1.00 23.05     0.007 C 
HETATM   24  C20 BCR B 616     -42.485 142.848  10.010  1.00 21.86     0.001 C 
HETATM   25  C21 BCR B 616     -43.790 143.462  10.208  1.00 26.78     0.007 C 
HETATM   26  C22 BCR B 616     -44.085 144.751   9.993  1.00 25.31    -0.062 C 
HETATM   27  C23 BCR B 616     -45.461 145.230  10.236  1.00 19.67     0.007 C 
HETATM   28  C24 BCR B 616     -45.789 146.503  10.055  1.00 21.08     0.009 C 
HETATM   29  C25 BCR B 616     -47.135 147.072  10.293  1.00 24.69    -0.048 C 
HETATM   30  C26 BCR B 616     -48.224 146.575   9.712  1.00 24.70    -0.077 C 
HETATM   31  C27 BCR B 616     -49.590 146.864  10.269  1.00 28.87     0.034 C 
HETATM   32  C28 BCR B 616     -49.666 148.321  10.651  1.00 22.34     0.005 C 
HETATM   33  C29 BCR B 616     -48.640 148.546  11.734  1.00 23.43     0.014 C 
HETATM   34  C30 BCR B 616     -47.238 148.274  11.217  1.00 25.38    -0.020 C 
HETATM   35  C35 BCR B 616     -40.969 134.370   8.944  1.00 22.52     0.048 C 
HETATM   36  C36 BCR B 616     -39.878 141.326   9.808  1.00 21.22     0.048 C 
HETATM   37  C37 BCR B 616     -43.021 145.689   9.524  1.00 24.02     0.048 C 
HETATM   38  C38 BCR B 616     -48.171 145.730   8.479  1.00 26.85     0.044 C 
HETATM   39  C39 BCR B 616     -46.347 148.044  12.419  1.00 22.16     0.020 C 
HETATM   40  C40 BCR B 616     -46.761 149.515  10.499  1.00 23.21     0.020 C 
ENDROOT
TORSDOF 10
BEGIN_RES PHE A  61
REMARK  2 active torsions:
REMARK  status: ('A' for Active; 'I' for Inactive)
REMARK    1  A    between atoms: CA   and  CB  
REMARK    2  A    between atoms: CB   and  CG  
ROOT
ATOM      1  CA  PHE A  61     -36.237 128.293  12.768  1.00 39.40     0.164 C 
ENDROOT
BRANCH   1   2
ATOM      2  CB  PHE A  61     -36.813 128.951  11.509  1.00 39.41     0.058 C 
BRANCH   2   3
ATOM      3  CG  PHE A  61     -36.143 130.247  11.120  1.00 39.01    -0.020 A 
ATOM      4  CD2 PHE A  61     -34.897 130.249  10.513  1.00 40.32    -0.004 A 
ATOM      5  CE2 PHE A  61     -34.279 131.442  10.158  1.00 40.20    -0.000 A 
ATOM      6  CZ  PHE A  61     -34.902 132.645  10.402  1.00 40.34    -0.000 A 
ATOM      7  CE1 PHE A  61     -36.142 132.660  11.003  1.00 41.51    -0.000 A 
ATOM      8  CD1 PHE A  61     -36.756 131.467  11.364  1.00 39.94    -0.004 A 
ENDBRANCH   2   3
ENDBRANCH   1   2
END_RES PHE A  61
BEGIN_RES VAL A 134
REMARK  1 active torsions:
REMARK  status: ('A' for Active; 'I' for Inactive)
REMARK    3  A    between atoms: CA   and  CB  
ROOT
ATOM      9  CA  VAL A 134     -29.766 132.051   9.815  1.00 40.75     0.159 C 
ENDROOT
BRANCH   9  10
ATOM     10  CB  VAL A 134     -30.864 132.765   9.009  1.00 40.76     0.029 C 
ATOM     11  CG1 VAL A 134     -31.420 131.849   7.929  1.00 41.76     0.002 C 
ATOM     12  CG2 VAL A 134     -31.978 133.277   9.909  1.00 40.56     0.002 C 
ENDBRANCH   9  10
END_RES VAL A 134
BEGIN_RES TYR A 338
REMARK  3 active torsions:
REMARK  status: ('A' for Active; 'I' for Inactive)
REMARK    4  A    between atoms: CA   and  CB  
REMARK    5  A    between atoms: CB   and  CG  
REMARK    6  A    between atoms: CZ   and  OH  
ROOT
ATOM     13  CA  TYR A 338     -41.631 124.950   6.058  1.00 38.23     0.164 C 
ENDROOT
BRANCH  13  14
ATOM     14  CB  TYR A 338     -41.621 126.456   6.339  1.00 39.15     0.058 C 
BRANCH  14  15
ATOM     15  CG  TYR A 338     -40.459 127.225   5.754  1.00 39.03    -0.020 A 
ATOM     16  CD2 TYR A 338     -40.429 128.607   5.820  1.00 40.65    -0.002 A 
ATOM     17  CE2 TYR A 338     -39.386 129.345   5.281  1.00 40.91     0.024 A 
ATOM     18  CZ  TYR A 338     -38.339 128.697   4.653  1.00 42.33     0.089 A 
ATOM     19  CE1 TYR A 338     -38.344 127.315   4.579  1.00 40.63     0.024 A 
ATOM     20  CD1 TYR A 338     -39.403 126.596   5.113  1.00 39.27    -0.002 A 
BRANCH  18  21
ATOM     21  OH  TYR A 338     -37.304 129.414   4.122  1.00 43.36    -0.359 OA
ATOM     22  HH  TYR A 338     -37.300 130.363   4.174  1.00  0.00     0.217 HD
ENDBRANCH  18  21
ENDBRANCH  14  15
ENDBRANCH  13  14
END_RES TYR A 338
ENDMDL
MODEL 4
REMARK VINA RESULT:    -6.859      1.618     16.341
REMARK INTER + INTRA:          -9.345
REMARK INTER:                  -6.894
REMARK INTRA:                  -2.451
REMARK UNBOUND:                -2.486
REMARK  0 active torsions:
REMARK  status: ('A' for Active; 'I' for Inactive)
REMARK       I    between atoms: C6_6  and  C7_7 
REMARK       I    between atoms: C8_8  and  C9_9 
REMARK       I    between atoms: C10_10  and  C11_11 
REMARK       I    between atoms: C12_16  and  C13_17 
REMARK       I    between atoms: C14_18  and  C15_19 
REMARK       I    between atoms: C16_20  and  C17_21 
REMARK       I    between atoms: C18_22  and  C19_23 
REMARK       I    between atoms: C20_24  and  C21_25 
REMARK       I    between atoms: C22_26  and  C23_27 
REMARK       I    between atoms: C24_28  and  C25_29 
ROOT
HETATM    1  C1  BCR B 616     -49.981 148.761   9.028  1.00 31.32    -0.020 C 
HETATM    2  C2  BCR B 616     -51.237 149.540   9.362  1.00 32.97     0.014 C 
HETATM    3  C3  BCR B 616     -52.065 148.728  10.331  1.00 29.93     0.005 C 
HETATM    4  C4  BCR B 616     -52.600 147.506   9.624  1.00 26.02     0.034 C 
HETATM    5  C5  BCR B 616     -51.511 146.817   8.834  1.00 31.50    -0.077 C 
HETATM    6  C6  BCR B 616     -50.308 147.364   8.584  1.00 32.71    -0.048 C 
HETATM    7  C7  BCR B 616     -49.303 146.546   7.864  1.00 27.07     0.009 C 
HETATM    8  C8  BCR B 616     -48.301 145.933   8.495  1.00 26.19     0.007 C 
HETATM    9  C9  BCR B 616     -47.323 145.067   7.800  1.00 26.80    -0.062 C 
HETATM   10  C10 BCR B 616     -46.453 144.337   8.499  1.00 24.87     0.007 C 
HETATM   11  C11 BCR B 616     -45.508 143.425   7.861  1.00 26.76     0.001 C 
HETATM   12  C33 BCR B 616     -51.849 145.453   8.318  1.00 25.10     0.044 C 
HETATM   13  C31 BCR B 616     -49.116 148.702  10.276  1.00 28.04     0.020 C 
HETATM   14  C32 BCR B 616     -49.258 149.443   7.892  1.00 25.30     0.020 C 
HETATM   15  C34 BCR B 616     -47.304 144.954   6.312  1.00 25.88     0.048 C 
HETATM   16  C12 BCR B 616     -44.668 142.762   8.651  1.00 27.03     0.007 C 
HETATM   17  C13 BCR B 616     -43.692 141.766   8.187  1.00 24.87    -0.062 C 
HETATM   18  C14 BCR B 616     -42.925 141.131   9.087  1.00 25.36     0.007 C 
HETATM   19  C15 BCR B 616     -41.970 140.097   8.701  1.00 24.12     0.001 C 
HETATM   20  C16 BCR B 616     -41.340 139.352   9.599  1.00 24.28     0.001 C 
HETATM   21  C17 BCR B 616     -40.426 138.308   9.167  1.00 25.58     0.007 C 
HETATM   22  C18 BCR B 616     -39.756 137.537  10.031  1.00 28.46    -0.062 C 
HETATM   23  C19 BCR B 616     -38.869 136.490   9.492  1.00 23.05     0.007 C 
HETATM   24  C20 BCR B 616     -38.283 135.536  10.202  1.00 21.86     0.001 C 
HETATM   25  C21 BCR B 616     -37.462 134.589   9.461  1.00 26.78     0.007 C 
HETATM   26  C22 BCR B 616     -36.950 133.452   9.950  1.00 25.31    -0.062 C 
HETATM   27  C23 BCR B 616     -36.135 132.588   9.074  1.00 19.67     0.007 C 
HETATM   28  C24 BCR B 616     -35.593 131.463   9.526  1.00 21.08     0.009 C 
HETATM   29  C25 BCR B 616     -34.749 130.548   8.725  1.00 24.69    -0.048 C 
HETATM   30  C26 BCR B 616     -35.164 130.035   7.569  1.00 24.70    -0.077 C 
HETATM   31  C27 BCR B 616     -34.179 129.476   6.581  1.00 28.87     0.034 C 
HETATM   32  C28 BCR B 616     -33.150 128.659   7.322  1.00 22.34     0.005 C 
HETATM   33  C29 BCR B 616     -32.426 129.601   8.252  1.00 23.43     0.014 C 
HETATM   34  C30 BCR B 616     -33.380 130.189   9.278  1.00 25.38    -0.020 C 
HETATM   35  C35 BCR B 616     -43.601 141.450   6.730  1.00 22.52     0.048 C 
HETATM   36  C36 BCR B 616     -39.902 137.734  11.507  1.00 21.22     0.048 C 
HETATM   37  C37 BCR B 616     -37.197 133.080  11.376  1.00 24.02     0.048 C 
HETATM   38  C38 BCR B 616     -36.609 129.960   7.188  1.00 26.85     0.044 C 
HETATM   39  C39 BCR B 616     -32.733 131.439   9.836  1.00 22.16     0.020 C 
HETATM   40  C40 BCR B 616     -33.528 129.186  10.399  1.00 23.21     0.020 C 
ENDROOT
TORSDOF 10
BEGIN_RES PHE A  61
REMARK  2 active torsions:
REMARK  status: ('A' for Active; 'I' for Inactive)
REMARK    1  A    between atoms: CA   and  CB  
REMARK    2  A    between atoms: CB   and  CG  
ROOT
ATOM      1  CA  PHE A  61     -36.237 128.293  12.768  1.00 39.40     0.164 C 
ENDROOT
BRANCH   1   2
ATOM      2  CB  PHE A  61     -36.813 128.951  11.509  1.00 39.41     0.058 C 
BRANCH   2   3
ATOM      3  CG  PHE A  61     -36.780 128.078  10.278  1.00 39.01    -0.020 A 
ATOM      4  CD2 PHE A  61     -37.880 127.987   9.439  1.00 40.32    -0.004 A 
ATOM      5  CE2 PHE A  61     -37.849 127.181   8.309  1.00 40.20    -0.000 A 
ATOM      6  CZ  PHE A  61     -36.718 126.460   8.001  1.00 40.34    -0.000 A 
ATOM      7  CE1 PHE A  61     -35.615 126.541   8.823  1.00 41.51    -0.000 A 
ATOM      8  CD1 PHE A  61     -35.648 127.341   9.957  1.00 39.94    -0.004 A 
ENDBRANCH   2   3
ENDBRANCH   1   2
END_RES PHE A  61
BEGIN_RES VAL A 134
REMARK  1 active torsions:
REMARK  status: ('A' for Active; 'I' for Inactive)
REMARK    3  A    between atoms: CA   and  CB  
ROOT
ATOM      9  CA  VAL A 134     -29.766 132.051   9.815  1.00 40.75     0.159 C 
ENDROOT
BRANCH   9  10
ATOM     10  CB  VAL A 134     -30.864 132.765   9.009  1.00 40.76     0.029 C 
ATOM     11  CG1 VAL A 134     -30.640 134.270   9.010  1.00 41.76     0.002 C 
ATOM     12  CG2 VAL A 134     -30.952 132.233   7.587  1.00 40.56     0.002 C 
ENDBRANCH   9  10
END_RES VAL A 134
BEGIN_RES TYR A 338
REMARK  3 active torsions:
REMARK  status: ('A' for Active; 'I' for Inactive)
REMARK    4  A    between atoms: CA   and  CB  
REMARK    5  A    between atoms: CB   and  CG  
REMARK    6  A    between atoms: CZ   and  OH  
ROOT
ATOM     13  CA  TYR A 338     -41.631 124.950   6.058  1.00 38.23     0.164 C 
ENDROOT
BRANCH  13  14
ATOM     14  CB  TYR A 338     -41.621 126.456   6.339  1.00 39.15     0.058 C 
BRANCH  14  15
ATOM     15  CG  TYR A 338     -40.415 127.211   5.829  1.00 39.03    -0.020 A 
ATOM     16  CD2 TYR A 338     -39.440 126.559   5.093  1.00 40.65    -0.002 A 
ATOM     17  CE2 TYR A 338     -38.314 127.216   4.623  1.00 40.91     0.024 A 
ATOM     18  CZ  TYR A 338     -38.143 128.561   4.888  1.00 42.33     0.089 A 
ATOM     19  CE1 TYR A 338     -39.106 129.236   5.618  1.00 40.63     0.024 A 
ATOM     20  CD1 TYR A 338     -40.219 128.558   6.090  1.00 39.27    -0.002 A 
BRANCH  18  21
ATOM     21  OH  TYR A 338     -37.039 129.221   4.426  1.00 43.36    -0.359 OA
ATOM     22  HH  TYR A 338     -36.946 129.412   3.500  1.00  0.00     0.217 HD
ENDBRANCH  18  21
ENDBRANCH  14  15
ENDBRANCH  13  14
END_RES TYR A 338
ENDMDL
MODEL 5
REMARK VINA RESULT:    -6.344      1.720     16.461
REMARK INTER + INTRA:          -8.831
REMARK INTER:                  -5.870
REMARK INTRA:                  -2.961
REMARK UNBOUND:                -2.486
REMARK  0 active torsions:
REMARK  status: ('A' for Active; 'I' for Inactive)
REMARK       I    between atoms: C6_6  and  C7_7 
REMARK       I    between atoms: C8_8  and  C9_9 
REMARK       I    between atoms: C10_10  and  C11_11 
REMARK       I    between atoms: C12_16  and  C13_17 
REMARK       I    between atoms: C14_18  and  C15_19 
REMARK       I    between atoms: C16_20  and  C17_21 
REMARK       I    between atoms: C18_22  and  C19_23 
REMARK       I    between atoms: C20_24  and  C21_25 
REMARK       I    between atoms: C22_26  and  C23_27 
REMARK       I    between atoms: C24_28  and  C25_29 
ROOT
HETATM    1  C1  BCR B 616     -48.813 146.698   9.857  1.00 31.32    -0.020 C 
HETATM    2  C2  BCR B 616     -50.093 147.463  10.121  1.00 32.97     0.014 C 
HETATM    3  C3  BCR B 616     -51.206 146.471  10.366  1.00 29.93     0.005 C 
HETATM    4  C4  BCR B 616     -51.507 145.736   9.083  1.00 26.02     0.034 C 
HETATM    5  C5  BCR B 616     -50.235 145.261   8.419  1.00 31.50    -0.077 C 
HETATM    6  C6  BCR B 616     -49.005 145.667   8.782  1.00 32.71    -0.048 C 
HETATM    7  C7  BCR B 616     -47.838 145.061   8.099  1.00 27.07     0.009 C 
HETATM    8  C8  BCR B 616     -47.106 144.098   8.661  1.00 26.19     0.007 C 
HETATM    9  C9  BCR B 616     -45.973 143.443   7.971  1.00 26.80    -0.062 C 
HETATM   10  C10 BCR B 616     -45.391 142.367   8.503  1.00 24.87     0.007 C 
HETATM   11  C11 BCR B 616     -44.308 141.653   7.833  1.00 26.76     0.001 C 
HETATM   12  C33 BCR B 616     -50.414 144.290   7.293  1.00 25.10     0.044 C 
HETATM   13  C31 BCR B 616     -48.400 146.009  11.146  1.00 28.04     0.020 C 
HETATM   14  C32 BCR B 616     -47.747 147.657   9.382  1.00 25.30     0.020 C 
HETATM   15  C34 BCR B 616     -45.475 143.935   6.653  1.00 25.88     0.048 C 
HETATM   16  C12 BCR B 616     -43.782 140.606   8.463  1.00 27.03     0.007 C 
HETATM   17  C13 BCR B 616     -42.729 139.742   7.914  1.00 24.87    -0.062 C 
HETATM   18  C14 BCR B 616     -42.307 138.687   8.630  1.00 25.36     0.007 C 
HETATM   19  C15 BCR B 616     -41.299 137.760   8.127  1.00 24.12     0.001 C 
HETATM   20  C16 BCR B 616     -41.008 136.628   8.754  1.00 24.28     0.001 C 
HETATM   21  C17 BCR B 616     -40.025 135.717   8.194  1.00 25.58     0.007 C 
HETATM   22  C18 BCR B 616     -39.686 134.569   8.793  1.00 28.46    -0.062 C 
HETATM   23  C19 BCR B 616     -38.693 133.703   8.133  1.00 23.05     0.007 C 
HETATM   24  C20 BCR B 616     -38.387 132.465   8.498  1.00 21.86     0.001 C 
HETATM   25  C21 BCR B 616     -37.389 131.780   7.689  1.00 26.78     0.007 C 
HETATM   26  C22 BCR B 616     -37.086 130.477   7.765  1.00 25.31    -0.062 C 
HETATM   27  C23 BCR B 616     -36.048 129.922   6.873  1.00 19.67     0.007 C 
HETATM   28  C24 BCR B 616     -35.704 128.641   6.931  1.00 21.08     0.009 C 
HETATM   29  C25 BCR B 616     -34.664 128.005   6.091  1.00 24.69    -0.048 C 
HETATM   30  C26 BCR B 616     -34.692 128.071   4.762  1.00 24.70    -0.077 C 
HETATM   31  C27 BCR B 616     -33.452 127.809   3.955  1.00 28.87     0.034 C 
HETATM   32  C28 BCR B 616     -32.735 126.613   4.530  1.00 22.34     0.005 C 
HETATM   33  C29 BCR B 616     -32.332 126.977   5.939  1.00 23.43     0.014 C 
HETATM   34  C30 BCR B 616     -33.556 127.244   6.799  1.00 25.38    -0.020 C 
HETATM   35  C35 BCR B 616     -42.177 140.027   6.556  1.00 22.52     0.048 C 
HETATM   36  C36 BCR B 616     -40.298 134.178  10.102  1.00 21.22     0.048 C 
HETATM   37  C37 BCR B 616     -37.789 129.607   8.755  1.00 24.02     0.048 C 
HETATM   38  C38 BCR B 616     -35.937 128.381   3.993  1.00 26.85     0.044 C 
HETATM   39  C39 BCR B 616     -33.100 128.047   7.999  1.00 22.16     0.020 C 
HETATM   40  C40 BCR B 616     -34.079 125.913   7.286  1.00 23.21     0.020 C 
ENDROOT
TORSDOF 10
BEGIN_RES PHE A  61
REMARK  2 active torsions:
REMARK  status: ('A' for Active; 'I' for Inactive)
REMARK    1  A    between atoms: CA   and  CB  
REMARK    2  A    between atoms: CB   and  CG  
ROOT
ATOM      1  CA  PHE A  61     -36.237 128.293  12.768  1.00 39.40     0.164 C 
ENDROOT
BRANCH   1   2
ATOM      2  CB  PHE A  61     -36.813 128.951  11.509  1.00 39.41     0.058 C 
BRANCH   2   3
ATOM      3  CG  PHE A  61     -36.008 130.119  10.991  1.00 39.01    -0.020 A 
ATOM      4  CD2 PHE A  61     -34.796 129.918  10.348  1.00 40.32    -0.004 A 
ATOM      5  CE2 PHE A  61     -34.055 130.994   9.875  1.00 40.20    -0.000 A 
ATOM      6  CZ  PHE A  61     -34.518 132.280  10.036  1.00 40.34    -0.000 A 
ATOM      7  CE1 PHE A  61     -35.721 132.496  10.671  1.00 41.51    -0.000 A 
ATOM      8  CD1 PHE A  61     -36.459 131.421  11.150  1.00 39.94    -0.004 A 
ENDBRANCH   2   3
ENDBRANCH   1   2
END_RES PHE A  61
BEGIN_RES VAL A 134
REMARK  1 active torsions:
REMARK  status: ('A' for Active; 'I' for Inactive)
REMARK    3  A    between atoms: CA   and  CB  
ROOT
ATOM      9  CA  VAL A 134     -29.766 132.051   9.815  1.00 40.75     0.159 C 
ENDROOT
BRANCH   9  10
ATOM     10  CB  VAL A 134     -30.864 132.765   9.009  1.00 40.76     0.029 C 
ATOM     11  CG1 VAL A 134     -31.478 131.823   7.984  1.00 41.76     0.002 C 
ATOM     12  CG2 VAL A 134     -31.936 133.349   9.916  1.00 40.56     0.002 C 
ENDBRANCH   9  10
END_RES VAL A 134
BEGIN_RES TYR A 338
REMARK  3 active torsions:
REMARK  status: ('A' for Active; 'I' for Inactive)
REMARK    4  A    between atoms: CA   and  CB  
REMARK    5  A    between atoms: CB   and  CG  
REMARK    6  A    between atoms: CZ   and  OH  
ROOT
ATOM     13  CA  TYR A 338     -41.631 124.950   6.058  1.00 38.23     0.164 C 
ENDROOT
BRANCH  13  14
ATOM     14  CB  TYR A 338     -41.621 126.456   6.339  1.00 39.15     0.058 C 
BRANCH  14  15
ATOM     15  CG  TYR A 338     -40.467 127.228   5.740  1.00 39.03    -0.020 A 
ATOM     16  CD2 TYR A 338     -40.321 128.580   5.996  1.00 40.65    -0.002 A 
ATOM     17  CE2 TYR A 338     -39.285 129.322   5.451  1.00 40.91     0.024 A 
ATOM     18  CZ  TYR A 338     -38.362 128.708   4.625  1.00 42.33     0.089 A 
ATOM     19  CE1 TYR A 338     -38.484 127.356   4.359  1.00 40.63     0.024 A 
ATOM     20  CD1 TYR A 338     -39.535 126.635   4.903  1.00 39.27    -0.002 A 
BRANCH  18  21
ATOM     21  OH  TYR A 338     -37.333 129.429   4.086  1.00 43.36    -0.359 OA
ATOM     22  HH  TYR A 338     -37.432 129.848   3.239  1.00  0.00     0.217 HD
ENDBRANCH  18  21
ENDBRANCH  14  15
ENDBRANCH  13  14
END_RES TYR A 338
ENDMDL
MODEL 6
REMARK VINA RESULT:    -6.038      1.772      2.929
REMARK INTER + INTRA:          -8.525
REMARK INTER:                  -9.231
REMARK INTRA:                   0.706
REMARK UNBOUND:                -2.486
REMARK  0 active torsions:
REMARK  status: ('A' for Active; 'I' for Inactive)
REMARK       I    between atoms: C6_6  and  C7_7 
REMARK       I    between atoms: C8_8  and  C9_9 
REMARK       I    between atoms: C10_10  and  C11_11 
REMARK       I    between atoms: C12_16  and  C13_17 
REMARK       I    between atoms: C14_18  and  C15_19 
REMARK       I    between atoms: C16_20  and  C17_21 
REMARK       I    between atoms: C18_22  and  C19_23 
REMARK       I    between atoms: C20_24  and  C21_25 
REMARK       I    between atoms: C22_26  and  C23_27 
REMARK       I    between atoms: C24_28  and  C25_29 
ROOT
HETATM    1  C1  BCR B 616     -33.416 128.271   6.253  1.00 31.32    -0.020 C 
HETATM    2  C2  BCR B 616     -32.752 126.915   6.131  1.00 32.97     0.014 C 
HETATM    3  C3  BCR B 616     -33.754 125.850   6.515  1.00 29.93     0.005 C 
HETATM    4  C4  BCR B 616     -34.045 125.954   7.992  1.00 26.02     0.034 C 
HETATM    5  C5  BCR B 616     -34.309 127.387   8.393  1.00 31.50    -0.077 C 
HETATM    6  C6  BCR B 616     -34.056 128.445   7.601  1.00 32.71    -0.048 C 
HETATM    7  C7  BCR B 616     -34.436 129.791   8.088  1.00 27.07     0.009 C 
HETATM    8  C8  BCR B 616     -35.538 130.415   7.669  1.00 26.19     0.007 C 
HETATM    9  C9  BCR B 616     -35.962 131.734   8.186  1.00 26.80    -0.062 C 
HETATM   10  C10 BCR B 616     -37.159 132.230   7.870  1.00 24.87     0.007 C 
HETATM   11  C11 BCR B 616     -37.645 133.500   8.401  1.00 26.76     0.001 C 
HETATM   12  C33 BCR B 616     -34.876 127.584   9.765  1.00 25.10     0.044 C 
HETATM   13  C31 BCR B 616     -34.480 128.375   5.174  1.00 28.04     0.020 C 
HETATM   14  C32 BCR B 616     -32.373 129.352   6.101  1.00 25.30     0.020 C 
HETATM   15  C34 BCR B 616     -35.090 132.528   9.102  1.00 25.88     0.048 C 
HETATM   16  C12 BCR B 616     -38.844 133.913   8.002  1.00 27.03     0.007 C 
HETATM   17  C13 BCR B 616     -39.510 135.133   8.477  1.00 24.87    -0.062 C 
HETATM   18  C14 BCR B 616     -40.743 135.424   8.029  1.00 25.36     0.007 C 
HETATM   19  C15 BCR B 616     -41.481 136.594   8.495  1.00 24.12     0.001 C 
HETATM   20  C16 BCR B 616     -42.757 136.787   8.188  1.00 24.28     0.001 C 
HETATM   21  C17 BCR B 616     -43.462 137.947   8.706  1.00 25.58     0.007 C 
HETATM   22  C18 BCR B 616     -44.745 138.196   8.417  1.00 28.46    -0.062 C 
HETATM   23  C19 BCR B 616     -45.377 139.388   9.011  1.00 23.05     0.007 C 
HETATM   24  C20 BCR B 616     -46.671 139.673   8.972  1.00 21.86     0.001 C 
HETATM   25  C21 BCR B 616     -47.085 140.897   9.644  1.00 26.78     0.007 C 
HETATM   26  C22 BCR B 616     -48.350 141.261   9.889  1.00 25.31    -0.062 C 
HETATM   27  C23 BCR B 616     -48.615 142.536  10.587  1.00 19.67     0.007 C 
HETATM   28  C24 BCR B 616     -49.855 142.943  10.830  1.00 21.08     0.009 C 
HETATM   29  C25 BCR B 616     -50.213 144.211  11.505  1.00 24.69    -0.048 C 
HETATM   30  C26 BCR B 616     -49.734 144.532  12.705  1.00 24.70    -0.077 C 
HETATM   31  C27 BCR B 616     -49.750 145.958  13.180  1.00 28.87     0.034 C 
HETATM   32  C28 BCR B 616     -51.077 146.580  12.823  1.00 22.34     0.005 C 
HETATM   33  C29 BCR B 616     -51.178 146.567  11.318  1.00 23.43     0.014 C 
HETATM   34  C30 BCR B 616     -51.174 145.143  10.787  1.00 25.38    -0.020 C 
HETATM   35  C35 BCR B 616     -38.823 136.004   9.477  1.00 22.52     0.048 C 
HETATM   36  C36 BCR B 616     -45.516 137.288   7.511  1.00 21.22     0.048 C 
HETATM   37  C37 BCR B 616     -49.476 140.385   9.444  1.00 24.02     0.048 C 
HETATM   38  C38 BCR B 616     -49.179 143.517  13.653  1.00 26.85     0.044 C 
HETATM   39  C39 BCR B 616     -50.794 145.206   9.323  1.00 22.16     0.020 C 
HETATM   40  C40 BCR B 616     -52.583 144.606  10.892  1.00 23.21     0.020 C 
ENDROOT
TORSDOF 10
BEGIN_RES PHE A  61
REMARK  2 active torsions:
REMARK  status: ('A' for Active; 'I' for Inactive)
REMARK    1  A    between atoms: CA   and  CB  
REMARK    2  A    between atoms: CB   and  CG  
ROOT
ATOM      1  CA  PHE A  61     -36.237 128.293  12.768  1.00 39.40     0.164 C 
ENDROOT
BRANCH   1   2
ATOM      2  CB  PHE A  61     -36.813 128.951  11.509  1.00 39.41     0.058 C 
BRANCH   2   3
ATOM      3  CG  PHE A  61     -36.806 130.461  11.535  1.00 39.01    -0.020 A 
ATOM      4  CD2 PHE A  61     -35.648 131.162  11.831  1.00 40.32    -0.004 A 
ATOM      5  CE2 PHE A  61     -35.644 132.551  11.858  1.00 40.20    -0.000 A 
ATOM      6  CZ  PHE A  61     -36.796 133.254  11.586  1.00 40.34    -0.000 A 
ATOM      7  CE1 PHE A  61     -37.955 132.572  11.288  1.00 41.51    -0.000 A 
ATOM      8  CD1 PHE A  61     -37.961 131.183  11.267  1.00 39.94    -0.004 A 
ENDBRANCH   2   3
ENDBRANCH   1   2
END_RES PHE A  61
BEGIN_RES VAL A 134
REMARK  1 active torsions:
REMARK  status: ('A' for Active; 'I' for Inactive)
REMARK    3  A    between atoms: CA   and  CB  
ROOT
ATOM      9  CA  VAL A 134     -29.766 132.051   9.815  1.00 40.75     0.159 C 
ENDROOT
BRANCH   9  10
ATOM     10  CB  VAL A 134     -30.864 132.765   9.009  1.00 40.76     0.029 C 
ATOM     11  CG1 VAL A 134     -31.219 131.969   7.762  1.00 41.76     0.002 C 
ATOM     12  CG2 VAL A 134     -32.101 133.026   9.854  1.00 40.56     0.002 C 
ENDBRANCH   9  10
END_RES VAL A 134
BEGIN_RES TYR A 338
REMARK  3 active torsions:
REMARK  status: ('A' for Active; 'I' for Inactive)
REMARK    4  A    between atoms: CA   and  CB  
REMARK    5  A    between atoms: CB   and  CG  
REMARK    6  A    between atoms: CZ   and  OH  
ROOT
ATOM     13  CA  TYR A 338     -41.631 124.950   6.058  1.00 38.23     0.164 C 
ENDROOT
BRANCH  13  14
ATOM     14  CB  TYR A 338     -41.621 126.456   6.339  1.00 39.15     0.058 C 
BRANCH  14  15
ATOM     15  CG  TYR A 338     -40.384 127.199   5.890  1.00 39.03    -0.020 A 
ATOM     16  CD2 TYR A 338     -40.163 128.504   6.298  1.00 40.65    -0.002 A 
ATOM     17  CE2 TYR A 338     -39.047 129.220   5.893  1.00 40.91     0.024 A 
ATOM     18  CZ  TYR A 338     -38.119 128.630   5.056  1.00 42.33     0.089 A 
ATOM     19  CE1 TYR A 338     -38.315 127.325   4.639  1.00 40.63     0.024 A 
ATOM     20  CD1 TYR A 338     -39.444 126.630   5.045  1.00 39.27    -0.002 A 
BRANCH  18  21
ATOM     21  OH  TYR A 338     -37.013 129.325   4.654  1.00 43.36    -0.359 OA
ATOM     22  HH  TYR A 338     -36.342 129.566   5.282  1.00  0.00     0.217 HD
ENDBRANCH  18  21
ENDBRANCH  14  15
ENDBRANCH  13  14
END_RES TYR A 338
ENDMDL
