MODEL 1
REMARK VINA RESULT:   -11.620      0.000      0.000
REMARK INTER + INTRA:         -14.096
REMARK INTER:                 -11.620
REMARK INTRA:                  -2.477
REMARK UNBOUND:                -2.477
REMARK  0 active torsions:
REMARK  status: ('A' for Active; 'I' for Inactive)
REMARK       I    between atoms: C6_6  and  C7_7 
REMARK       I    between atoms: C8_8  and  C9_9 
REMARK       I    between atoms: C10_10  and  C11_11 
REMARK       I    between atoms: C12_16  and  C13_17 
REMARK       I    between atoms: C14_18  and  C15_19 
REMARK       I    between atoms: C16_20  and  C17_21 
REMARK       I    between atoms: C18_22  and  C19_23 
REMARK       I    between atoms: C20_24  and  C21_25 
REMARK       I    between atoms: C22_26  and  C23_27 
REMARK       I    between atoms: C24_28  and  C25_29 
ROOT
HETATM    1  C1  BCR A 411     -34.071 126.705   6.690  1.00 34.05    -0.020 C 
HETATM    2  C2  BCR A 411     -33.244 125.865   5.712  1.00 36.23     0.014 C 
HETATM    3  C3  BCR A 411     -32.777 126.696   4.526  1.00 33.07     0.005 C 
HETATM    4  C4  BCR A 411     -31.830 127.803   4.997  1.00 33.10     0.034 C 
HETATM    5  C5  BCR A 411     -32.434 128.571   6.182  1.00 30.69    -0.077 C 
HETATM    6  C6  BCR A 411     -33.414 128.054   6.959  1.00 30.04    -0.048 C 
HETATM    7  C7  BCR A 411     -33.959 128.843   8.116  1.00 26.76     0.009 C 
HETATM    8  C8  BCR A 411     -34.633 129.993   7.838  1.00 27.28     0.007 C 
HETATM    9  C9  BCR A 411     -35.255 130.817   8.909  1.00 28.08    -0.062 C 
HETATM   10  C10 BCR A 411     -35.860 131.990   8.545  1.00 26.21     0.007 C 
HETATM   11  C11 BCR A 411     -36.540 132.853   9.506  1.00 26.20     0.001 C 
HETATM   12  C33 BCR A 411     -31.787 129.882   6.506  1.00 31.19     0.044 C 
HETATM   13  C31 BCR A 411     -34.206 125.934   8.024  1.00 32.76     0.020 C 
HETATM   14  C32 BCR A 411     -35.463 126.886   6.088  1.00 29.01     0.020 C 
HETATM   15  C34 BCR A 411     -35.234 130.272  10.331  1.00 27.13     0.048 C 
HETATM   16  C12 BCR A 411     -37.269 133.901   9.041  1.00 25.91     0.007 C 
HETATM   17  C13 BCR A 411     -38.003 134.886   9.896  1.00 28.13    -0.062 C 
HETATM   18  C14 BCR A 411     -38.722 135.859   9.297  1.00 26.80     0.007 C 
HETATM   19  C15 BCR A 411     -39.532 136.886   9.995  1.00 23.65     0.001 C 
HETATM   20  C16 BCR A 411     -40.092 137.894   9.299  1.00 25.01     0.001 C 
HETATM   21  C17 BCR A 411     -40.960 138.808  10.058  1.00 24.87     0.007 C 
HETATM   22  C18 BCR A 411     -41.724 139.804   9.544  1.00 26.74    -0.062 C 
HETATM   23  C19 BCR A 411     -42.571 140.623  10.470  1.00 22.57     0.007 C 
HETATM   24  C20 BCR A 411     -43.047 141.810  10.158  1.00 21.95     0.001 C 
HETATM   25  C21 BCR A 411     -43.867 142.552  11.125  1.00 26.44     0.007 C 
HETATM   26  C22 BCR A 411     -44.200 143.851  10.986  1.00 26.69    -0.062 C 
HETATM   27  C23 BCR A 411     -45.025 144.478  12.054  1.00 22.74     0.007 C 
HETATM   28  C24 BCR A 411     -45.267 145.809  12.085  1.00 21.39     0.009 C 
HETATM   29  C25 BCR A 411     -46.051 146.444  13.167  1.00 21.80    -0.048 C 
HETATM   30  C26 BCR A 411     -47.313 145.988  13.433  1.00 24.09    -0.077 C 
HETATM   31  C27 BCR A 411     -48.251 146.498  14.534  1.00 21.42     0.034 C 
HETATM   32  C28 BCR A 411     -47.442 147.346  15.534  1.00 25.08     0.005 C 
HETATM   33  C29 BCR A 411     -46.474 148.302  14.777  1.00 24.49     0.014 C 
HETATM   34  C30 BCR A 411     -45.395 147.602  13.927  1.00 24.42    -0.020 C 
HETATM   35  C35 BCR A 411     -37.931 134.847  11.416  1.00 27.87     0.048 C 
HETATM   36  C36 BCR A 411     -41.700 140.162   8.087  1.00 23.84     0.048 C 
HETATM   37  C37 BCR A 411     -43.715 144.691   9.804  1.00 27.51     0.048 C 
HETATM   38  C38 BCR A 411     -47.976 144.896  12.647  1.00 22.20     0.044 C 
HETATM   39  C39 BCR A 411     -44.180 147.087  14.749  1.00 24.11     0.020 C 
HETATM   40  C40 BCR A 411     -44.864 148.637  12.936  1.00 24.62     0.020 C 
ENDROOT
TORSDOF 10
BEGIN_RES PHE A  61
REMARK  2 active torsions:
REMARK  status: ('A' for Active; 'I' for Inactive)
REMARK    1  A    between atoms: CA   and  CB  
REMARK    2  A    between atoms: CB   and  CG  
ROOT
ATOM      1  CA  PHE A  61     -36.237 128.293  12.768  1.00 39.40     0.164 C 
ENDROOT
BRANCH   1   2
ATOM      2  CB  PHE A  61     -36.813 128.951  11.509  1.00 39.41     0.058 C 
BRANCH   2   3
ATOM      3  CG  PHE A  61     -37.072 127.996  10.368  1.00 39.01    -0.020 A 
ATOM      4  CD2 PHE A  61     -36.401 126.786  10.287  1.00 40.32    -0.004 A 
ATOM      5  CE2 PHE A  61     -36.637 125.910   9.236  1.00 40.20    -0.000 A 
ATOM      6  CZ  PHE A  61     -37.549 126.231   8.256  1.00 40.34    -0.000 A 
ATOM      7  CE1 PHE A  61     -38.226 127.429   8.324  1.00 41.51    -0.000 A 
ATOM      8  CD1 PHE A  61     -37.985 128.308   9.371  1.00 39.94    -0.004 A 
ENDBRANCH   2   3
ENDBRANCH   1   2
END_RES PHE A  61
BEGIN_RES VAL A 134
REMARK  1 active torsions:
REMARK  status: ('A' for Active; 'I' for Inactive)
REMARK    3  A    between atoms: CA   and  CB  
ROOT
ATOM      9  CA  VAL A 134     -29.766 132.051   9.815  1.00 40.75     0.159 C 
ENDROOT
BRANCH   9  10
ATOM     10  CB  VAL A 134     -30.864 132.765   9.009  1.00 40.76     0.029 C 
ATOM     11  CG1 VAL A 134     -30.878 132.276   7.568  1.00 41.76     0.002 C 
ATOM     12  CG2 VAL A 134     -32.232 132.594   9.651  1.00 40.56     0.002 C 
ENDBRANCH   9  10
END_RES VAL A 134
BEGIN_RES TYR A 338
REMARK  3 active torsions:
REMARK  status: ('A' for Active; 'I' for Inactive)
REMARK    4  A    between atoms: CA   and  CB  
REMARK    5  A    between atoms: CB   and  CG  
REMARK    6  A    between atoms: CZ   and  OH  
ROOT
ATOM     13  CA  TYR A 338     -41.631 124.950   6.058  1.00 38.23     0.164 C 
ENDROOT
BRANCH  13  14
ATOM     14  CB  TYR A 338     -41.621 126.456   6.339  1.00 39.15     0.058 C 
BRANCH  14  15
ATOM     15  CG  TYR A 338     -40.408 127.208   5.843  1.00 39.03    -0.020 A 
ATOM     16  CD2 TYR A 338     -40.230 128.543   6.165  1.00 40.65    -0.002 A 
ATOM     17  CE2 TYR A 338     -39.137 129.267   5.715  1.00 40.91     0.024 A 
ATOM     18  CZ  TYR A 338     -38.189 128.654   4.917  1.00 42.33     0.089 A 
ATOM     19  CE1 TYR A 338     -38.342 127.320   4.585  1.00 40.63     0.024 A 
ATOM     20  CD1 TYR A 338     -39.449 126.616   5.035  1.00 39.27    -0.002 A 
BRANCH  18  21
ATOM     21  OH  TYR A 338     -37.105 129.358   4.471  1.00 43.36    -0.359 OA
ATOM     22  HH  TYR A 338     -36.232 128.990   4.540  1.00  0.00     0.217 HD
ENDBRANCH  18  21
ENDBRANCH  14  15
ENDBRANCH  13  14
END_RES TYR A 338
ENDMDL
MODEL 2
REMARK VINA RESULT:   -10.995      2.007      3.089
REMARK INTER + INTRA:         -13.472
REMARK INTER:                 -10.932
REMARK INTRA:                  -2.540
REMARK UNBOUND:                -2.477
REMARK  0 active torsions:
REMARK  status: ('A' for Active; 'I' for Inactive)
REMARK       I    between atoms: C6_6  and  C7_7 
REMARK       I    between atoms: C8_8  and  C9_9 
REMARK       I    between atoms: C10_10  and  C11_11 
REMARK       I    between atoms: C12_16  and  C13_17 
REMARK       I    between atoms: C14_18  and  C15_19 
REMARK       I    between atoms: C16_20  and  C17_21 
REMARK       I    between atoms: C18_22  and  C19_23 
REMARK       I    between atoms: C20_24  and  C21_25 
REMARK       I    between atoms: C22_26  and  C23_27 
REMARK       I    between atoms: C24_28  and  C25_29 
ROOT
HETATM    1  C1  BCR A 411     -34.457 127.325   5.551  1.00 34.05    -0.020 C 
HETATM    2  C2  BCR A 411     -33.140 126.665   5.131  1.00 36.23     0.014 C 
HETATM    3  C3  BCR A 411     -32.006 127.679   5.075  1.00 33.07     0.005 C 
HETATM    4  C4  BCR A 411     -31.737 128.247   6.471  1.00 33.10     0.034 C 
HETATM    5  C5  BCR A 411     -33.044 128.710   7.133  1.00 30.69    -0.077 C 
HETATM    6  C6  BCR A 411     -34.257 128.261   6.737  1.00 30.04    -0.048 C 
HETATM    7  C7  BCR A 411     -35.504 128.735   7.431  1.00 26.76     0.009 C 
HETATM    8  C8  BCR A 411     -35.830 130.053   7.317  1.00 27.28     0.007 C 
HETATM    9  C9  BCR A 411     -37.071 130.608   7.923  1.00 28.08    -0.062 C 
HETATM   10  C10 BCR A 411     -37.289 131.955   7.813  1.00 26.21     0.007 C 
HETATM   11  C11 BCR A 411     -38.492 132.599   8.330  1.00 26.20     0.001 C 
HETATM   12  C33 BCR A 411     -32.889 129.596   8.331  1.00 31.19     0.044 C 
HETATM   13  C31 BCR A 411     -35.468 126.223   5.942  1.00 32.76     0.020 C 
HETATM   14  C32 BCR A 411     -35.005 128.083   4.344  1.00 29.01     0.020 C 
HETATM   15  C34 BCR A 411     -38.047 129.634   8.570  1.00 27.13     0.048 C 
HETATM   16  C12 BCR A 411     -38.718 133.904   8.021  1.00 25.91     0.007 C 
HETATM   17  C13 BCR A 411     -39.889 134.708   8.491  1.00 28.13    -0.062 C 
HETATM   18  C14 BCR A 411     -40.009 135.987   8.075  1.00 26.80     0.007 C 
HETATM   19  C15 BCR A 411     -41.123 136.904   8.416  1.00 23.65     0.001 C 
HETATM   20  C16 BCR A 411     -41.065 138.202   8.060  1.00 25.01     0.001 C 
HETATM   21  C17 BCR A 411     -42.256 139.013   8.352  1.00 24.87     0.007 C 
HETATM   22  C18 BCR A 411     -42.470 140.296   7.968  1.00 26.74    -0.062 C 
HETATM   23  C19 BCR A 411     -43.762 140.960   8.333  1.00 22.57     0.007 C 
HETATM   24  C20 BCR A 411     -43.929 142.266   8.346  1.00 21.95     0.001 C 
HETATM   25  C21 BCR A 411     -45.228 142.839   8.722  1.00 26.44     0.007 C 
HETATM   26  C22 BCR A 411     -45.424 144.146   8.984  1.00 26.69    -0.062 C 
HETATM   27  C23 BCR A 411     -46.794 144.585   9.367  1.00 22.74     0.007 C 
HETATM   28  C24 BCR A 411     -47.049 145.838   9.808  1.00 21.39     0.009 C 
HETATM   29  C25 BCR A 411     -48.401 146.267  10.230  1.00 21.80    -0.048 C 
HETATM   30  C26 BCR A 411     -49.448 146.124   9.363  1.00 24.09    -0.077 C 
HETATM   31  C27 BCR A 411     -50.915 146.476   9.641  1.00 21.42     0.034 C 
HETATM   32  C28 BCR A 411     -51.107 146.674  11.156  1.00 25.08     0.005 C 
HETATM   33  C29 BCR A 411     -49.938 147.514  11.748  1.00 24.49     0.014 C 
HETATM   34  C30 BCR A 411     -48.544 146.865  11.633  1.00 24.42    -0.020 C 
HETATM   35  C35 BCR A 411     -40.925 134.141   9.452  1.00 27.87     0.048 C 
HETATM   36  C36 BCR A 411     -41.428 141.101   7.248  1.00 23.84     0.048 C 
HETATM   37  C37 BCR A 411     -44.281 145.162   8.946  1.00 27.51     0.048 C 
HETATM   38  C38 BCR A 411     -49.295 145.594   7.967  1.00 22.20     0.044 C 
HETATM   39  C39 BCR A 411     -48.261 145.784  12.713  1.00 24.11     0.020 C 
HETATM   40  C40 BCR A 411     -47.515 147.979  11.828  1.00 24.62     0.020 C 
ENDROOT
TORSDOF 10
BEGIN_RES PHE A  61
REMARK  2 active torsions:
REMARK  status: ('A' for Active; 'I' for Inactive)
REMARK    1  A    between atoms: CA   and  CB  
REMARK    2  A    between atoms: CB   and  CG  
ROOT
ATOM      1  CA  PHE A  61     -36.237 128.293  12.768  1.00 39.40     0.164 C 
ENDROOT
BRANCH   1   2
ATOM      2  CB  PHE A  61     -36.813 128.951  11.509  1.00 39.41     0.058 C 
BRANCH   2   3
ATOM      3  CG  PHE A  61     -36.361 130.374  11.286  1.00 39.01    -0.020 A 
ATOM      4  CD2 PHE A  61     -37.210 131.439  11.542  1.00 40.32    -0.004 A 
ATOM      5  CE2 PHE A  61     -36.793 132.748  11.333  1.00 40.20    -0.000 A 
ATOM      6  CZ  PHE A  61     -35.523 133.007  10.871  1.00 40.34    -0.000 A 
ATOM      7  CE1 PHE A  61     -34.666 131.959  10.614  1.00 41.51    -0.000 A 
ATOM      8  CD1 PHE A  61     -35.084 130.651  10.816  1.00 39.94    -0.004 A 
ENDBRANCH   2   3
ENDBRANCH   1   2
END_RES PHE A  61
BEGIN_RES VAL A 134
REMARK  1 active torsions:
REMARK  status: ('A' for Active; 'I' for Inactive)
REMARK    3  A    between atoms: CA   and  CB  
ROOT
ATOM      9  CA  VAL A 134     -29.766 132.051   9.815  1.00 40.75     0.159 C 
ENDROOT
BRANCH   9  10
ATOM     10  CB  VAL A 134     -30.864 132.765   9.009  1.00 40.76     0.029 C 
ATOM     11  CG1 VAL A 134     -31.160 132.014   7.719  1.00 41.76     0.002 C 
ATOM     12  CG2 VAL A 134     -32.132 132.950   9.829  1.00 40.56     0.002 C 
ENDBRANCH   9  10
END_RES VAL A 134
BEGIN_RES TYR A 338
REMARK  3 active torsions:
REMARK  status: ('A' for Active; 'I' for Inactive)
REMARK    4  A    between atoms: CA   and  CB  
REMARK    5  A    between atoms: CB   and  CG  
REMARK    6  A    between atoms: CZ   and  OH  
ROOT
ATOM     13  CA  TYR A 338     -41.631 124.950   6.058  1.00 38.23     0.164 C 
ENDROOT
BRANCH  13  14
ATOM     14  CB  TYR A 338     -41.621 126.456   6.339  1.00 39.15     0.058 C 
BRANCH  14  15
ATOM     15  CG  TYR A 338     -40.420 127.213   5.819  1.00 39.03    -0.020 A 
ATOM     16  CD2 TYR A 338     -40.289 128.570   6.060  1.00 40.65    -0.002 A 
ATOM     17  CE2 TYR A 338     -39.209 129.298   5.584  1.00 40.91     0.024 A 
ATOM     18  CZ  TYR A 338     -38.227 128.666   4.846  1.00 42.33     0.089 A 
ATOM     19  CE1 TYR A 338     -38.334 127.309   4.596  1.00 40.63     0.024 A 
ATOM     20  CD1 TYR A 338     -39.428 126.601   5.069  1.00 39.27    -0.002 A 
BRANCH  18  21
ATOM     21  OH  TYR A 338     -37.156 129.373   4.376  1.00 43.36    -0.359 OA
ATOM     22  HH  TYR A 338     -36.295 128.972   4.336  1.00  0.00     0.217 HD
ENDBRANCH  18  21
ENDBRANCH  14  15
ENDBRANCH  13  14
END_RES TYR A 338
ENDMDL
MODEL 3
REMARK VINA RESULT:   -10.624      2.447     16.433
REMARK INTER + INTRA:         -13.100
REMARK INTER:                 -10.855
REMARK INTRA:                  -2.245
REMARK UNBOUND:                -2.477
REMARK  0 active torsions:
REMARK  status: ('A' for Active; 'I' for Inactive)
REMARK       I    between atoms: C6_6  and  C7_7 
REMARK       I    between atoms: C8_8  and  C9_9 
REMARK       I    between atoms: C10_10  and  C11_11 
REMARK       I    between atoms: C12_16  and  C13_17 
REMARK       I    between atoms: C14_18  and  C15_19 
REMARK       I    between atoms: C16_20  and  C17_21 
REMARK       I    between atoms: C18_22  and  C19_23 
REMARK       I    between atoms: C20_24  and  C21_25 
REMARK       I    between atoms: C22_26  and  C23_27 
REMARK       I    between atoms: C24_28  and  C25_29 
ROOT
HETATM    1  C1  BCR A 411     -50.926 145.990   8.838  1.00 34.05    -0.020 C 
HETATM    2  C2  BCR A 411     -51.868 146.919   9.611  1.00 36.23     0.014 C 
HETATM    3  C3  BCR A 411     -51.473 147.010  11.078  1.00 33.07     0.005 C 
HETATM    4  C4  BCR A 411     -50.088 147.647  11.213  1.00 33.10     0.034 C 
HETATM    5  C5  BCR A 411     -49.081 146.973  10.269  1.00 30.69    -0.077 C 
HETATM    6  C6  BCR A 411     -49.467 146.262   9.184  1.00 30.04    -0.048 C 
HETATM    7  C7  BCR A 411     -48.439 145.635   8.284  1.00 26.76     0.009 C 
HETATM    8  C8  BCR A 411     -47.667 144.639   8.801  1.00 27.28     0.007 C 
HETATM    9  C9  BCR A 411     -46.659 143.920   7.976  1.00 28.08    -0.062 C 
HETATM   10  C10 BCR A 411     -45.884 142.975   8.593  1.00 26.21     0.007 C 
HETATM   11  C11 BCR A 411     -44.895 142.179   7.872  1.00 26.20     0.001 C 
HETATM   12  C33 BCR A 411     -47.637 147.252  10.550  1.00 31.19     0.044 C 
HETATM   13  C31 BCR A 411     -51.135 146.212   7.322  1.00 32.76     0.020 C 
HETATM   14  C32 BCR A 411     -51.308 144.550   9.176  1.00 29.01     0.020 C 
HETATM   15  C34 BCR A 411     -46.597 144.238   6.488  1.00 27.13     0.048 C 
HETATM   16  C12 BCR A 411     -44.299 141.140   8.515  1.00 25.91     0.007 C 
HETATM   17  C13 BCR A 411     -43.254 140.247   7.922  1.00 28.13    -0.062 C 
HETATM   18  C14 BCR A 411     -42.774 139.226   8.663  1.00 26.80     0.007 C 
HETATM   19  C15 BCR A 411     -41.769 138.234   8.214  1.00 23.65     0.001 C 
HETATM   20  C16 BCR A 411     -41.259 137.344   9.088  1.00 25.01     0.001 C 
HETATM   21  C17 BCR A 411     -40.345 136.334   8.533  1.00 24.87     0.007 C 
HETATM   22  C18 BCR A 411     -39.822 135.271   9.194  1.00 26.74    -0.062 C 
HETATM   23  C19 BCR A 411     -38.924 134.326   8.458  1.00 22.57     0.007 C 
HETATM   24  C20 BCR A 411     -38.088 133.504   9.057  1.00 21.95     0.001 C 
HETATM   25  C21 BCR A 411     -37.237 132.610   8.261  1.00 26.44     0.007 C 
HETATM   26  C22 BCR A 411     -36.202 131.911   8.768  1.00 26.69    -0.062 C 
HETATM   27  C23 BCR A 411     -35.416 131.053   7.840  1.00 22.74     0.007 C 
HETATM   28  C24 BCR A 411     -34.267 130.450   8.220  1.00 21.39     0.009 C 
HETATM   29  C25 BCR A 411     -33.459 129.630   7.289  1.00 21.80    -0.048 C 
HETATM   30  C26 BCR A 411     -34.049 128.583   6.638  1.00 24.09    -0.077 C 
HETATM   31  C27 BCR A 411     -33.382 127.654   5.616  1.00 21.42     0.034 C 
HETATM   32  C28 BCR A 411     -32.057 128.287   5.150  1.00 25.08     0.005 C 
HETATM   33  C29 BCR A 411     -31.273 128.863   6.365  1.00 24.49     0.014 C 
HETATM   34  C30 BCR A 411     -31.984 130.006   7.118  1.00 24.42    -0.020 C 
HETATM   35  C35 BCR A 411     -42.690 140.480   6.527  1.00 27.87     0.048 C 
HETATM   36  C36 BCR A 411     -40.055 135.047  10.660  1.00 23.84     0.048 C 
HETATM   37  C37 BCR A 411     -35.793 132.017  10.238  1.00 27.51     0.048 C 
HETATM   38  C38 BCR A 411     -35.479 128.180   6.853  1.00 22.20     0.044 C 
HETATM   39  C39 BCR A 411     -31.856 131.392   6.428  1.00 24.11     0.020 C 
HETATM   40  C40 BCR A 411     -31.317 130.119   8.489  1.00 24.62     0.020 C 
ENDROOT
TORSDOF 10
BEGIN_RES PHE A  61
REMARK  2 active torsions:
REMARK  status: ('A' for Active; 'I' for Inactive)
REMARK    1  A    between atoms: CA   and  CB  
REMARK    2  A    between atoms: CB   and  CG  
ROOT
ATOM      1  CA  PHE A  61     -36.237 128.293  12.768  1.00 39.40     0.164 C 
ENDROOT
BRANCH   1   2
ATOM      2  CB  PHE A  61     -36.813 128.951  11.509  1.00 39.41     0.058 C 
BRANCH   2   3
ATOM      3  CG  PHE A  61     -36.896 128.037  10.310  1.00 39.01    -0.020 A 
ATOM      4  CD2 PHE A  61     -37.973 128.101   9.439  1.00 40.32    -0.004 A 
ATOM      5  CE2 PHE A  61     -38.049 127.258   8.338  1.00 40.20    -0.000 A 
ATOM      6  CZ  PHE A  61     -37.049 126.345   8.092  1.00 40.34    -0.000 A 
ATOM      7  CE1 PHE A  61     -35.971 126.271   8.946  1.00 41.51    -0.000 A 
ATOM      8  CD1 PHE A  61     -35.897 127.109  10.051  1.00 39.94    -0.004 A 
ENDBRANCH   2   3
ENDBRANCH   1   2
END_RES PHE A  61
BEGIN_RES VAL A 134
REMARK  1 active torsions:
REMARK  status: ('A' for Active; 'I' for Inactive)
REMARK    3  A    between atoms: CA   and  CB  
ROOT
ATOM      9  CA  VAL A 134     -29.766 132.051   9.815  1.00 40.75     0.159 C 
ENDROOT
BRANCH   9  10
ATOM     10  CB  VAL A 134     -30.864 132.765   9.009  1.00 40.76     0.029 C 
ATOM     11  CG1 VAL A 134     -32.107 132.974   9.861  1.00 41.76     0.002 C 
ATOM     12  CG2 VAL A 134     -30.372 134.086   8.438  1.00 40.56     0.002 C 
ENDBRANCH   9  10
END_RES VAL A 134
BEGIN_RES TYR A 338
REMARK  3 active torsions:
REMARK  status: ('A' for Active; 'I' for Inactive)
REMARK    4  A    between atoms: CA   and  CB  
REMARK    5  A    between atoms: CB   and  CG  
REMARK    6  A    between atoms: CZ   and  OH  
ROOT
ATOM     13  CA  TYR A 338     -41.631 124.950   6.058  1.00 38.23     0.164 C 
ENDROOT
BRANCH  13  14
ATOM     14  CB  TYR A 338     -41.621 126.456   6.339  1.00 39.15     0.058 C 
BRANCH  14  15
ATOM     15  CG  TYR A 338     -40.404 127.207   5.850  1.00 39.03    -0.020 A 
ATOM     16  CD2 TYR A 338     -40.230 128.543   6.167  1.00 40.65    -0.002 A 
ATOM     17  CE2 TYR A 338     -39.134 129.266   5.723  1.00 40.91     0.024 A 
ATOM     18  CZ  TYR A 338     -38.177 128.650   4.939  1.00 42.33     0.089 A 
ATOM     19  CE1 TYR A 338     -38.326 127.313   4.613  1.00 40.63     0.024 A 
ATOM     20  CD1 TYR A 338     -39.436 126.611   5.056  1.00 39.27    -0.002 A 
BRANCH  18  21
ATOM     21  OH  TYR A 338     -37.090 129.352   4.499  1.00 43.36    -0.359 OA
ATOM     22  HH  TYR A 338     -37.052 129.668   3.603  1.00  0.00     0.217 HD
ENDBRANCH  18  21
ENDBRANCH  14  15
ENDBRANCH  13  14
END_RES TYR A 338
ENDMDL
MODEL 4
REMARK VINA RESULT:   -10.328      1.828      2.415
REMARK INTER + INTRA:         -12.804
REMARK INTER:                 -12.747
REMARK INTRA:                  -0.057
REMARK UNBOUND:                -2.477
REMARK  0 active torsions:
REMARK  status: ('A' for Active; 'I' for Inactive)
REMARK       I    between atoms: C6_6  and  C7_7 
REMARK       I    between atoms: C8_8  and  C9_9 
REMARK       I    between atoms: C10_10  and  C11_11 
REMARK       I    between atoms: C12_16  and  C13_17 
REMARK       I    between atoms: C14_18  and  C15_19 
REMARK       I    between atoms: C16_20  and  C17_21 
REMARK       I    between atoms: C18_22  and  C19_23 
REMARK       I    between atoms: C20_24  and  C21_25 
REMARK       I    between atoms: C22_26  and  C23_27 
REMARK       I    between atoms: C24_28  and  C25_29 
ROOT
HETATM    1  C1  BCR A 411     -33.839 127.574   7.248  1.00 34.05    -0.020 C 
HETATM    2  C2  BCR A 411     -32.770 126.831   6.441  1.00 36.23     0.014 C 
HETATM    3  C3  BCR A 411     -32.260 127.680   5.286  1.00 33.07     0.005 C 
HETATM    4  C4  BCR A 411     -31.556 128.931   5.819  1.00 33.10     0.034 C 
HETATM    5  C5  BCR A 411     -32.427 129.642   6.865  1.00 30.69    -0.077 C 
HETATM    6  C6  BCR A 411     -33.425 129.014   7.528  1.00 30.04    -0.048 C 
HETATM    7  C7  BCR A 411     -34.237 129.754   8.554  1.00 26.76     0.009 C 
HETATM    8  C8  BCR A 411     -35.020 130.782   8.122  1.00 27.28     0.007 C 
HETATM    9  C9  BCR A 411     -35.900 131.541   9.051  1.00 28.08    -0.062 C 
HETATM   10  C10 BCR A 411     -36.605 132.598   8.543  1.00 26.21     0.007 C 
HETATM   11  C11 BCR A 411     -37.531 133.385   9.352  1.00 26.20     0.001 C 
HETATM   12  C33 BCR A 411     -32.025 131.046   7.202  1.00 31.19     0.044 C 
HETATM   13  C31 BCR A 411     -34.055 126.839   8.591  1.00 32.76     0.020 C 
HETATM   14  C32 BCR A 411     -35.142 127.526   6.452  1.00 29.01     0.020 C 
HETATM   15  C34 BCR A 411     -36.006 131.056  10.491  1.00 27.13     0.048 C 
HETATM   16  C12 BCR A 411     -38.327 134.297   8.733  1.00 25.91     0.007 C 
HETATM   17  C13 BCR A 411     -39.308 135.192   9.424  1.00 28.13    -0.062 C 
HETATM   18  C14 BCR A 411     -40.064 136.027   8.679  1.00 26.80     0.007 C 
HETATM   19  C15 BCR A 411     -41.102 136.946   9.201  1.00 23.65     0.001 C 
HETATM   20  C16 BCR A 411     -41.694 137.835   8.379  1.00 25.01     0.001 C 
HETATM   21  C17 BCR A 411     -42.782 138.637   8.960  1.00 24.87     0.007 C 
HETATM   22  C18 BCR A 411     -43.598 139.491   8.292  1.00 26.74    -0.062 C 
HETATM   23  C19 BCR A 411     -44.675 140.207   9.045  1.00 22.57     0.007 C 
HETATM   24  C20 BCR A 411     -45.265 141.299   8.606  1.00 21.95     0.001 C 
HETATM   25  C21 BCR A 411     -46.312 141.945   9.408  1.00 26.44     0.007 C 
HETATM   26  C22 BCR A 411     -46.801 143.175   9.153  1.00 26.69    -0.062 C 
HETATM   27  C23 BCR A 411     -47.852 143.711  10.061  1.00 22.74     0.007 C 
HETATM   28  C24 BCR A 411     -48.281 144.992   9.984  1.00 21.39     0.009 C 
HETATM   29  C25 BCR A 411     -49.295 145.542  10.912  1.00 21.80    -0.048 C 
HETATM   30  C26 BCR A 411     -50.504 144.914  11.028  1.00 24.09    -0.077 C 
HETATM   31  C27 BCR A 411     -51.653 145.318  11.960  1.00 21.42     0.034 C 
HETATM   32  C28 BCR A 411     -51.124 146.311  13.011  1.00 25.08     0.005 C 
HETATM   33  C29 BCR A 411     -50.203 147.372  12.342  1.00 24.49     0.014 C 
HETATM   34  C30 BCR A 411     -48.925 146.809  11.689  1.00 24.42    -0.020 C 
HETATM   35  C35 BCR A 411     -39.450 135.217  10.939  1.00 27.87     0.048 C 
HETATM   36  C36 BCR A 411     -43.415 139.796   6.834  1.00 23.84     0.048 C 
HETATM   37  C37 BCR A 411     -46.276 144.036   8.003  1.00 27.51     0.048 C 
HETATM   38  C38 BCR A 411     -50.887 143.708  10.220  1.00 22.20     0.044 C 
HETATM   39  C39 BCR A 411     -47.780 146.509  12.697  1.00 24.11     0.020 C 
HETATM   40  C40 BCR A 411     -48.409 147.876  10.723  1.00 24.62     0.020 C 
ENDROOT
TORSDOF 10
BEGIN_RES PHE A  61
REMARK  2 active torsions:
REMARK  status: ('A' for Active; 'I' for Inactive)
REMARK    1  A    between atoms: CA   and  CB  
REMARK    2  A    between atoms: CB   and  CG  
ROOT
ATOM      1  CA  PHE A  61     -36.237 128.293  12.768  1.00 39.40     0.164 C 
ENDROOT
BRANCH   1   2
ATOM      2  CB  PHE A  61     -36.813 128.951  11.509  1.00 39.41     0.058 C 
BRANCH   2   3
ATOM      3  CG  PHE A  61     -37.050 128.000  10.360  1.00 39.01    -0.020 A 
ATOM      4  CD2 PHE A  61     -37.939 128.317   9.345  1.00 40.32    -0.004 A 
ATOM      5  CE2 PHE A  61     -38.158 127.439   8.291  1.00 40.20    -0.000 A 
ATOM      6  CZ  PHE A  61     -37.489 126.238   8.238  1.00 40.34    -0.000 A 
ATOM      7  CE1 PHE A  61     -36.601 125.909   9.237  1.00 41.51    -0.000 A 
ATOM      8  CD1 PHE A  61     -36.386 126.783  10.295  1.00 39.94    -0.004 A 
ENDBRANCH   2   3
ENDBRANCH   1   2
END_RES PHE A  61
BEGIN_RES VAL A 134
REMARK  1 active torsions:
REMARK  status: ('A' for Active; 'I' for Inactive)
REMARK    3  A    between atoms: CA   and  CB  
ROOT
ATOM      9  CA  VAL A 134     -29.766 132.051   9.815  1.00 40.75     0.159 C 
ENDROOT
BRANCH   9  10
ATOM     10  CB  VAL A 134     -30.864 132.765   9.009  1.00 40.76     0.029 C 
ATOM     11  CG1 VAL A 134     -32.132 132.909   9.838  1.00 41.76     0.002 C 
ATOM     12  CG2 VAL A 134     -30.395 134.119   8.499  1.00 40.56     0.002 C 
ENDBRANCH   9  10
END_RES VAL A 134
BEGIN_RES TYR A 338
REMARK  3 active torsions:
REMARK  status: ('A' for Active; 'I' for Inactive)
REMARK    4  A    between atoms: CA   and  CB  
REMARK    5  A    between atoms: CB   and  CG  
REMARK    6  A    between atoms: CZ   and  OH  
ROOT
ATOM     13  CA  TYR A 338     -41.631 124.950   6.058  1.00 38.23     0.164 C 
ENDROOT
BRANCH  13  14
ATOM     14  CB  TYR A 338     -41.621 126.456   6.339  1.00 39.15     0.058 C 
BRANCH  14  15
ATOM     15  CG  TYR A 338     -40.406 127.207   5.846  1.00 39.03    -0.020 A 
ATOM     16  CD2 TYR A 338     -40.243 128.549   6.144  1.00 40.65    -0.002 A 
ATOM     17  CE2 TYR A 338     -39.149 129.273   5.696  1.00 40.91     0.024 A 
ATOM     18  CZ  TYR A 338     -38.184 128.652   4.926  1.00 42.33     0.089 A 
ATOM     19  CE1 TYR A 338     -38.321 127.310   4.619  1.00 40.63     0.024 A 
ATOM     20  CD1 TYR A 338     -39.430 126.607   5.066  1.00 39.27    -0.002 A 
BRANCH  18  21
ATOM     21  OH  TYR A 338     -37.098 129.355   4.483  1.00 43.36    -0.359 OA
ATOM     22  HH  TYR A 338     -36.280 129.330   4.964  1.00  0.00     0.217 HD
ENDBRANCH  18  21
ENDBRANCH  14  15
ENDBRANCH  13  14
END_RES TYR A 338
ENDMDL
MODEL 5
REMARK VINA RESULT:    -8.861      0.977     16.445
REMARK INTER + INTRA:         -11.338
REMARK INTER:                  -6.596
REMARK INTRA:                  -4.742
REMARK UNBOUND:                -2.477
REMARK  0 active torsions:
REMARK  status: ('A' for Active; 'I' for Inactive)
REMARK       I    between atoms: C6_6  and  C7_7 
REMARK       I    between atoms: C8_8  and  C9_9 
REMARK       I    between atoms: C10_10  and  C11_11 
REMARK       I    between atoms: C12_16  and  C13_17 
REMARK       I    between atoms: C14_18  and  C15_19 
REMARK       I    between atoms: C16_20  and  C17_21 
REMARK       I    between atoms: C18_22  and  C19_23 
REMARK       I    between atoms: C20_24  and  C21_25 
REMARK       I    between atoms: C22_26  and  C23_27 
REMARK       I    between atoms: C24_28  and  C25_29 
ROOT
HETATM    1  C1  BCR A 411     -48.258 147.064  12.363  1.00 34.05    -0.020 C 
HETATM    2  C2  BCR A 411     -48.970 147.989  13.355  1.00 36.23     0.014 C 
HETATM    3  C3  BCR A 411     -48.426 147.809  14.766  1.00 33.07     0.005 C 
HETATM    4  C4  BCR A 411     -46.955 148.225  14.822  1.00 33.10     0.034 C 
HETATM    5  C5  BCR A 411     -46.157 147.566  13.687  1.00 30.69    -0.077 C 
HETATM    6  C6  BCR A 411     -46.748 147.082  12.570  1.00 30.04    -0.048 C 
HETATM    7  C7  BCR A 411     -45.917 146.460  11.482  1.00 26.76     0.009 C 
HETATM    8  C8  BCR A 411     -45.259 145.302  11.770  1.00 27.28     0.007 C 
HETATM    9  C9  BCR A 411     -44.455 144.582  10.747  1.00 28.08    -0.062 C 
HETATM   10  C10 BCR A 411     -43.776 143.460  11.140  1.00 26.21     0.007 C 
HETATM   11  C11 BCR A 411     -42.993 142.652  10.210  1.00 26.20     0.001 C 
HETATM   12  C33 BCR A 411     -44.667 147.601  13.832  1.00 31.19     0.044 C 
HETATM   13  C31 BCR A 411     -48.575 147.534  10.924  1.00 32.76     0.020 C 
HETATM   14  C32 BCR A 411     -48.819 145.656  12.551  1.00 29.01     0.020 C 
HETATM   15  C34 BCR A 411     -44.488 145.104   9.316  1.00 27.13     0.048 C 
HETATM   16  C12 BCR A 411     -42.502 141.459  10.637  1.00 25.91     0.007 C 
HETATM   17  C13 BCR A 411     -41.666 140.529   9.814  1.00 28.13    -0.062 C 
HETATM   18  C14 BCR A 411     -41.276 139.354  10.354  1.00 26.80     0.007 C 
HETATM   19  C15 BCR A 411     -40.481 138.311   9.664  1.00 23.65     0.001 C 
HETATM   20  C16 BCR A 411     -40.029 137.241  10.348  1.00 25.01     0.001 C 
HETATM   21  C17 BCR A 411     -39.336 136.209   9.563  1.00 24.87     0.007 C 
HETATM   22  C18 BCR A 411     -38.918 134.999  10.013  1.00 26.74    -0.062 C 
HETATM   23  C19 BCR A 411     -38.249 134.059   9.060  1.00 22.57     0.007 C 
HETATM   24  C20 BCR A 411     -37.493 133.052   9.444  1.00 21.95     0.001 C 
HETATM   25  C21 BCR A 411     -36.868 132.177   8.444  1.00 26.44     0.007 C 
HETATM   26  C22 BCR A 411     -35.906 131.277   8.731  1.00 26.69    -0.062 C 
HETATM   27  C23 BCR A 411     -35.351 130.466   7.613  1.00 22.74     0.007 C 
HETATM   28  C24 BCR A 411     -34.275 129.662   7.774  1.00 21.39     0.009 C 
HETATM   29  C25 BCR A 411     -33.694 128.886   6.656  1.00 21.80    -0.048 C 
HETATM   30  C26 BCR A 411     -34.495 128.036   5.945  1.00 24.09    -0.077 C 
HETATM   31  C27 BCR A 411     -34.077 127.186   4.740  1.00 21.42     0.034 C 
HETATM   32  C28 BCR A 411     -32.722 127.693   4.210  1.00 25.08     0.005 C 
HETATM   33  C29 BCR A 411     -31.748 127.973   5.391  1.00 24.49     0.014 C 
HETATM   34  C30 BCR A 411     -32.202 129.078   6.366  1.00 24.42    -0.020 C 
HETATM   35  C35 BCR A 411     -41.209 140.885   8.406  1.00 27.87     0.048 C 
HETATM   36  C36 BCR A 411     -39.041 134.596  11.453  1.00 23.84     0.048 C 
HETATM   37  C37 BCR A 411     -35.347 131.109  10.145  1.00 27.51     0.048 C 
HETATM   38  C38 BCR A 411     -35.942 127.805   6.270  1.00 22.20     0.044 C 
HETATM   39  C39 BCR A 411     -31.933 130.521   5.854  1.00 24.11     0.020 C 
HETATM   40  C40 BCR A 411     -31.397 128.897   7.653  1.00 24.62     0.020 C 
ENDROOT
TORSDOF 10
BEGIN_RES PHE A  61
REMARK  2 active torsions:
REMARK  status: ('A' for Active; 'I' for Inactive)
REMARK    1  A    between atoms: CA   and  CB  
REMARK    2  A    between atoms: CB   and  CG  
ROOT
ATOM      1  CA  PHE A  61     -36.237 128.293  12.768  1.00 39.40     0.164 C 
ENDROOT
BRANCH   1   2
ATOM      2  CB  PHE A  61     -36.813 128.951  11.509  1.00 39.41     0.058 C 
BRANCH   2   3
ATOM      3  CG  PHE A  61     -36.856 128.050  10.298  1.00 39.01    -0.020 A 
ATOM      4  CD2 PHE A  61     -37.938 128.072   9.432  1.00 40.32    -0.004 A 
ATOM      5  CE2 PHE A  61     -37.978 127.240   8.320  1.00 40.20    -0.000 A 
ATOM      6  CZ  PHE A  61     -36.935 126.381   8.059  1.00 40.34    -0.000 A 
ATOM      7  CE1 PHE A  61     -35.852 126.348   8.909  1.00 41.51    -0.000 A 
ATOM      8  CD1 PHE A  61     -35.815 127.175  10.024  1.00 39.94    -0.004 A 
ENDBRANCH   2   3
ENDBRANCH   1   2
END_RES PHE A  61
BEGIN_RES VAL A 134
REMARK  1 active torsions:
REMARK  status: ('A' for Active; 'I' for Inactive)
REMARK    3  A    between atoms: CA   and  CB  
ROOT
ATOM      9  CA  VAL A 134     -29.766 132.051   9.815  1.00 40.75     0.159 C 
ENDROOT
BRANCH   9  10
ATOM     10  CB  VAL A 134     -30.864 132.765   9.009  1.00 40.76     0.029 C 
ATOM     11  CG1 VAL A 134     -30.788 132.382   7.538  1.00 41.76     0.002 C 
ATOM     12  CG2 VAL A 134     -32.248 132.479   9.571  1.00 40.56     0.002 C 
ENDBRANCH   9  10
END_RES VAL A 134
BEGIN_RES TYR A 338
REMARK  3 active torsions:
REMARK  status: ('A' for Active; 'I' for Inactive)
REMARK    4  A    between atoms: CA   and  CB  
REMARK    5  A    between atoms: CB   and  CG  
REMARK    6  A    between atoms: CZ   and  OH  
ROOT
ATOM     13  CA  TYR A 338     -41.631 124.950   6.058  1.00 38.23     0.164 C 
ENDROOT
BRANCH  13  14
ATOM     14  CB  TYR A 338     -41.621 126.456   6.339  1.00 39.15     0.058 C 
BRANCH  14  15
ATOM     15  CG  TYR A 338     -40.427 127.215   5.807  1.00 39.03    -0.020 A 
ATOM     16  CD2 TYR A 338     -40.248 128.551   6.123  1.00 40.65    -0.002 A 
ATOM     17  CE2 TYR A 338     -39.173 129.281   5.641  1.00 40.91     0.024 A 
ATOM     18  CZ  TYR A 338     -38.244 128.673   4.818  1.00 42.33     0.089 A 
ATOM     19  CE1 TYR A 338     -38.399 127.337   4.492  1.00 40.63     0.024 A 
ATOM     20  CD1 TYR A 338     -39.488 126.628   4.974  1.00 39.27    -0.002 A 
BRANCH  18  21
ATOM     21  OH  TYR A 338     -37.178 129.383   4.340  1.00 43.36    -0.359 OA
ATOM     22  HH  TYR A 338     -37.102 129.568   3.411  1.00  0.00     0.217 HD
ENDBRANCH  18  21
ENDBRANCH  14  15
ENDBRANCH  13  14
END_RES TYR A 338
ENDMDL
