MODEL 1
REMARK VINA RESULT:    -9.362      0.000      0.000
REMARK INTER + INTRA:         -16.151
REMARK INTER:                  -9.362
REMARK INTRA:                  -6.789
REMARK UNBOUND:                -6.789
REMARK  0 active torsions:
REMARK  status: ('A' for Active; 'I' for Inactive)
REMARK       I    between atoms: C6_6  and  C7_7 
REMARK       I    between atoms: C8_8  and  C9_9 
REMARK       I    between atoms: C10_10  and  C11_11 
REMARK       I    between atoms: C12_16  and  C13_17 
REMARK       I    between atoms: C14_18  and  C15_19 
REMARK       I    between atoms: C16_20  and  C17_21 
REMARK       I    between atoms: C18_22  and  C19_23 
REMARK       I    between atoms: C20_24  and  C21_25 
REMARK       I    between atoms: C22_26  and  C23_27 
REMARK       I    between atoms: C24_28  and  C25_29 
ROOT
HETATM    1  C1  BCR C 516     -35.315 131.208   8.390  1.00 30.02    -0.020 C 
HETATM    2  C2  BCR C 516     -34.346 130.201   8.973  1.00 30.87     0.014 C 
HETATM    3  C3  BCR C 516     -33.826 130.682  10.306  1.00 30.68     0.005 C 
HETATM    4  C4  BCR C 516     -34.933 130.855  11.322  1.00 31.80     0.034 C 
HETATM    5  C5  BCR C 516     -36.194 131.376  10.694  1.00 32.46    -0.077 C 
HETATM    6  C6  BCR C 516     -36.292 131.684   9.412  1.00 30.66    -0.048 C 
HETATM    7  C7  BCR C 516     -37.425 132.473   8.926  1.00 30.01     0.009 C 
HETATM    8  C8  BCR C 516     -37.530 133.767   9.156  1.00 34.00     0.007 C 
HETATM    9  C9  BCR C 516     -38.706 134.471   8.639  1.00 33.37    -0.062 C 
HETATM   10  C10 BCR C 516     -39.052 135.628   9.192  1.00 32.41     0.007 C 
HETATM   11  C11 BCR C 516     -40.204 136.404   8.764  1.00 36.14     0.001 C 
HETATM   12  C33 BCR C 516     -37.384 131.517  11.584  1.00 28.57     0.044 C 
HETATM   13  C31 BCR C 516     -36.104 130.590   7.252  1.00 26.76     0.020 C 
HETATM   14  C32 BCR C 516     -34.568 132.418   7.870  1.00 31.67     0.020 C 
HETATM   15  C34 BCR C 516     -39.488 133.874   7.508  1.00 31.81     0.048 C 
HETATM   16  C12 BCR C 516     -40.387 137.546   9.403  1.00 35.77     0.007 C 
HETATM   17  C13 BCR C 516     -41.484 138.485   9.148  1.00 38.22    -0.062 C 
HETATM   18  C14 BCR C 516     -41.330 139.753   9.573  1.00 37.80     0.007 C 
HETATM   19  C15 BCR C 516     -42.354 140.779   9.395  1.00 32.13     0.001 C 
HETATM   20  C16 BCR C 516     -42.088 142.080   9.473  1.00 37.10     0.001 C 
HETATM   21  C17 BCR C 516     -43.204 143.002   9.293  1.00 38.20     0.007 C 
HETATM   22  C18 BCR C 516     -43.177 144.297   9.617  1.00 31.50    -0.062 C 
HETATM   23  C19 BCR C 516     -44.401 145.069   9.395  1.00 25.76     0.007 C 
HETATM   24  C20 BCR C 516     -44.556 146.362   9.616  1.00 25.99     0.001 C 
HETATM   25  C21 BCR C 516     -45.893 146.841   9.328  1.00 30.28     0.007 C 
HETATM   26  C22 BCR C 516     -46.333 148.066   9.571  1.00 28.61    -0.062 C 
HETATM   27  C23 BCR C 516     -47.725 148.388   9.246  1.00 24.47     0.007 C 
HETATM   28  C24 BCR C 516     -48.274 149.487   9.742  1.00 23.15     0.009 C 
HETATM   29  C25 BCR C 516     -49.661 149.917   9.510  1.00 23.34    -0.048 C 
HETATM   30  C26 BCR C 516     -50.158 150.169   8.296  1.00 21.26    -0.077 C 
HETATM   31  C27 BCR C 516     -51.583 150.594   8.089  1.00 23.10     0.034 C 
HETATM   32  C28 BCR C 516     -52.438 150.165   9.253  1.00 24.68     0.005 C 
HETATM   33  C29 BCR C 516     -51.845 150.689  10.534  1.00 25.94     0.014 C 
HETATM   34  C30 BCR C 516     -50.468 150.091  10.766  1.00 23.98    -0.020 C 
HETATM   35  C35 BCR C 516     -42.727 138.023   8.451  1.00 31.22     0.048 C 
HETATM   36  C36 BCR C 516     -41.961 144.920  10.210  1.00 33.32     0.048 C 
HETATM   37  C37 BCR C 516     -45.438 149.104  10.169  1.00 23.79     0.048 C 
HETATM   38  C38 BCR C 516     -49.331 150.065   7.053  1.00 23.96     0.044 C 
HETATM   39  C39 BCR C 516     -50.619 148.728  11.411  1.00 22.89     0.020 C 
HETATM   40  C40 BCR C 516     -49.674 150.980  11.703  1.00 22.73     0.020 C 
ENDROOT
TORSDOF 10
BEGIN_RES PHE A  61
REMARK  2 active torsions:
REMARK  status: ('A' for Active; 'I' for Inactive)
REMARK    1  A    between atoms: CA   and  CB  
REMARK    2  A    between atoms: CB   and  CG  
ROOT
ATOM      1  CA  PHE A  61     -36.237 128.293  12.768  1.00 39.40     0.164 C 
ENDROOT
BRANCH   1   2
ATOM      2  CB  PHE A  61     -36.813 128.951  11.509  1.00 39.41     0.058 C 
BRANCH   2   3
ATOM      3  CG  PHE A  61     -36.653 128.134  10.249  1.00 39.01    -0.020 A 
ATOM      4  CD2 PHE A  61     -37.657 128.093   9.295  1.00 40.32    -0.004 A 
ATOM      5  CE2 PHE A  61     -37.510 127.339   8.138  1.00 40.20    -0.000 A 
ATOM      6  CZ  PHE A  61     -36.356 126.621   7.920  1.00 40.34    -0.000 A 
ATOM      7  CE1 PHE A  61     -35.348 126.653   8.857  1.00 41.51    -0.000 A 
ATOM      8  CD1 PHE A  61     -35.497 127.401  10.017  1.00 39.94    -0.004 A 
ENDBRANCH   2   3
ENDBRANCH   1   2
END_RES PHE A  61
BEGIN_RES VAL A 134
REMARK  1 active torsions:
REMARK  status: ('A' for Active; 'I' for Inactive)
REMARK    3  A    between atoms: CA   and  CB  
ROOT
ATOM      9  CA  VAL A 134     -29.766 132.051   9.815  1.00 40.75     0.159 C 
ENDROOT
BRANCH   9  10
ATOM     10  CB  VAL A 134     -30.864 132.765   9.009  1.00 40.76     0.029 C 
ATOM     11  CG1 VAL A 134     -31.305 131.913   7.828  1.00 41.76     0.002 C 
ATOM     12  CG2 VAL A 134     -32.053 133.132   9.883  1.00 40.56     0.002 C 
ENDBRANCH   9  10
END_RES VAL A 134
BEGIN_RES TYR A 338
REMARK  3 active torsions:
REMARK  status: ('A' for Active; 'I' for Inactive)
REMARK    4  A    between atoms: CA   and  CB  
REMARK    5  A    between atoms: CB   and  CG  
REMARK    6  A    between atoms: CZ   and  OH  
ROOT
ATOM     13  CA  TYR A 338     -41.631 124.950   6.058  1.00 38.23     0.164 C 
ENDROOT
BRANCH  13  14
ATOM     14  CB  TYR A 338     -41.621 126.456   6.339  1.00 39.15     0.058 C 
BRANCH  14  15
ATOM     15  CG  TYR A 338     -40.405 127.207   5.847  1.00 39.03    -0.020 A 
ATOM     16  CD2 TYR A 338     -39.430 126.556   5.111  1.00 40.65    -0.002 A 
ATOM     17  CE2 TYR A 338     -38.294 127.210   4.658  1.00 40.91     0.024 A 
ATOM     18  CZ  TYR A 338     -38.115 128.551   4.942  1.00 42.33     0.089 A 
ATOM     19  CE1 TYR A 338     -39.078 129.224   5.672  1.00 40.63     0.024 A 
ATOM     20  CD1 TYR A 338     -40.200 128.549   6.127  1.00 39.27    -0.002 A 
BRANCH  18  21
ATOM     21  OH  TYR A 338     -37.002 129.207   4.496  1.00 43.36    -0.359 OA
ATOM     22  HH  TYR A 338     -37.070 129.853   3.803  1.00  0.00     0.217 HD
ENDBRANCH  18  21
ENDBRANCH  14  15
ENDBRANCH  13  14
END_RES TYR A 338
ENDMDL
MODEL 2
REMARK VINA RESULT:    -8.411      2.823      4.786
REMARK INTER + INTRA:         -15.199
REMARK INTER:                 -12.773
REMARK INTRA:                  -2.426
REMARK UNBOUND:                -6.789
REMARK  0 active torsions:
REMARK  status: ('A' for Active; 'I' for Inactive)
REMARK       I    between atoms: C6_6  and  C7_7 
REMARK       I    between atoms: C8_8  and  C9_9 
REMARK       I    between atoms: C10_10  and  C11_11 
REMARK       I    between atoms: C12_16  and  C13_17 
REMARK       I    between atoms: C14_18  and  C15_19 
REMARK       I    between atoms: C16_20  and  C17_21 
REMARK       I    between atoms: C18_22  and  C19_23 
REMARK       I    between atoms: C20_24  and  C21_25 
REMARK       I    between atoms: C22_26  and  C23_27 
REMARK       I    between atoms: C24_28  and  C25_29 
ROOT
HETATM    1  C1  BCR C 516     -34.700 127.210   5.938  1.00 30.02    -0.020 C 
HETATM    2  C2  BCR C 516     -33.445 126.463   5.540  1.00 30.87     0.014 C 
HETATM    3  C3  BCR C 516     -32.343 127.434   5.193  1.00 30.68     0.005 C 
HETATM    4  C4  BCR C 516     -31.969 128.315   6.364  1.00 31.80     0.034 C 
HETATM    5  C5  BCR C 516     -33.166 128.691   7.189  1.00 32.46    -0.077 C 
HETATM    6  C6  BCR C 516     -34.400 128.322   6.885  1.00 30.66    -0.048 C 
HETATM    7  C7  BCR C 516     -35.544 128.968   7.530  1.00 30.01     0.009 C 
HETATM    8  C8  BCR C 516     -35.926 130.192   7.221  1.00 34.00     0.007 C 
HETATM    9  C9  BCR C 516     -37.076 130.759   7.929  1.00 33.37    -0.062 C 
HETATM   10  C10 BCR C 516     -37.219 132.079   7.959  1.00 32.41     0.007 C 
HETATM   11  C11 BCR C 516     -38.317 132.748   8.638  1.00 36.14     0.001 C 
HETATM   12  C33 BCR C 516     -32.915 129.498   8.418  1.00 28.57     0.044 C 
HETATM   13  C31 BCR C 516     -35.681 126.276   6.620  1.00 26.76     0.020 C 
HETATM   14  C32 BCR C 516     -35.364 127.812   4.717  1.00 31.67     0.020 C 
HETATM   15  C34 BCR C 516     -38.057 129.846   8.599  1.00 31.81     0.048 C 
HETATM   16  C12 BCR C 516     -38.323 134.066   8.544  1.00 35.77     0.007 C 
HETATM   17  C13 BCR C 516     -39.323 134.947   9.155  1.00 38.22    -0.062 C 
HETATM   18  C14 BCR C 516     -39.438 136.195   8.663  1.00 37.80     0.007 C 
HETATM   19  C15 BCR C 516     -40.383 137.173   9.194  1.00 32.13     0.001 C 
HETATM   20  C16 BCR C 516     -40.760 138.251   8.512  1.00 37.10     0.001 C 
HETATM   21  C17 BCR C 516     -41.698 139.159   9.162  1.00 38.20     0.007 C 
HETATM   22  C18 BCR C 516     -41.954 140.404   8.754  1.00 31.50    -0.062 C 
HETATM   23  C19 BCR C 516     -42.903 141.188   9.546  1.00 25.76     0.007 C 
HETATM   24  C20 BCR C 516     -43.311 142.416   9.281  1.00 25.99     0.001 C 
HETATM   25  C21 BCR C 516     -44.235 142.943  10.265  1.00 30.28     0.007 C 
HETATM   26  C22 BCR C 516     -44.700 144.182  10.288  1.00 28.61    -0.062 C 
HETATM   27  C23 BCR C 516     -45.611 144.570  11.368  1.00 24.47     0.007 C 
HETATM   28  C24 BCR C 516     -45.851 145.853  11.590  1.00 23.15     0.009 C 
HETATM   29  C25 BCR C 516     -46.727 146.377  12.649  1.00 23.34    -0.048 C 
HETATM   30  C26 BCR C 516     -48.026 146.077  12.743  1.00 21.26    -0.077 C 
HETATM   31  C27 BCR C 516     -48.892 146.617  13.844  1.00 23.10     0.034 C 
HETATM   32  C28 BCR C 516     -48.054 147.017  15.031  1.00 24.68     0.005 C 
HETATM   33  C29 BCR C 516     -46.987 147.983  14.590  1.00 25.94     0.014 C 
HETATM   34  C30 BCR C 516     -46.045 147.320  13.600  1.00 23.98    -0.020 C 
HETATM   35  C35 BCR C 516     -40.165 134.458  10.294  1.00 31.22     0.048 C 
HETATM   36  C36 BCR C 516     -41.275 140.981   7.559  1.00 33.32     0.048 C 
HETATM   37  C37 BCR C 516     -44.306 145.175   9.241  1.00 23.79     0.048 C 
HETATM   38  C38 BCR C 516     -48.719 145.196  11.753  1.00 23.96     0.044 C 
HETATM   39  C39 BCR C 516     -44.997 146.532  14.360  1.00 22.89     0.020 C 
HETATM   40  C40 BCR C 516     -45.342 148.379  12.773  1.00 22.73     0.020 C 
ENDROOT
TORSDOF 10
BEGIN_RES PHE A  61
REMARK  2 active torsions:
REMARK  status: ('A' for Active; 'I' for Inactive)
REMARK    1  A    between atoms: CA   and  CB  
REMARK    2  A    between atoms: CB   and  CG  
ROOT
ATOM      1  CA  PHE A  61     -36.237 128.293  12.768  1.00 39.40     0.164 C 
ENDROOT
BRANCH   1   2
ATOM      2  CB  PHE A  61     -36.813 128.951  11.509  1.00 39.41     0.058 C 
BRANCH   2   3
ATOM      3  CG  PHE A  61     -36.372 130.379  11.294  1.00 39.01    -0.020 A 
ATOM      4  CD2 PHE A  61     -35.150 130.666  10.706  1.00 40.32    -0.004 A 
ATOM      5  CE2 PHE A  61     -34.744 131.980  10.512  1.00 40.20    -0.000 A 
ATOM      6  CZ  PHE A  61     -35.556 133.021  10.899  1.00 40.34    -0.000 A 
ATOM      7  CE1 PHE A  61     -36.775 132.753  11.482  1.00 41.51    -0.000 A 
ATOM      8  CD1 PHE A  61     -37.178 131.440  11.683  1.00 39.94    -0.004 A 
ENDBRANCH   2   3
ENDBRANCH   1   2
END_RES PHE A  61
BEGIN_RES VAL A 134
REMARK  1 active torsions:
REMARK  status: ('A' for Active; 'I' for Inactive)
REMARK    3  A    between atoms: CA   and  CB  
ROOT
ATOM      9  CA  VAL A 134     -29.766 132.051   9.815  1.00 40.75     0.159 C 
ENDROOT
BRANCH   9  10
ATOM     10  CB  VAL A 134     -30.864 132.765   9.009  1.00 40.76     0.029 C 
ATOM     11  CG1 VAL A 134     -31.174 132.002   7.729  1.00 41.76     0.002 C 
ATOM     12  CG2 VAL A 134     -32.124 132.969   9.836  1.00 40.56     0.002 C 
ENDBRANCH   9  10
END_RES VAL A 134
BEGIN_RES TYR A 338
REMARK  3 active torsions:
REMARK  status: ('A' for Active; 'I' for Inactive)
REMARK    4  A    between atoms: CA   and  CB  
REMARK    5  A    between atoms: CB   and  CG  
REMARK    6  A    between atoms: CZ   and  OH  
ROOT
ATOM     13  CA  TYR A 338     -41.631 124.950   6.058  1.00 38.23     0.164 C 
ENDROOT
BRANCH  13  14
ATOM     14  CB  TYR A 338     -41.621 126.456   6.339  1.00 39.15     0.058 C 
BRANCH  14  15
ATOM     15  CG  TYR A 338     -40.424 127.214   5.812  1.00 39.03    -0.020 A 
ATOM     16  CD2 TYR A 338     -40.260 128.557   6.106  1.00 40.65    -0.002 A 
ATOM     17  CE2 TYR A 338     -39.183 129.287   5.626  1.00 40.91     0.024 A 
ATOM     18  CZ  TYR A 338     -38.238 128.670   4.829  1.00 42.33     0.089 A 
ATOM     19  CE1 TYR A 338     -38.377 127.328   4.525  1.00 40.63     0.024 A 
ATOM     20  CD1 TYR A 338     -39.468 126.619   5.003  1.00 39.27    -0.002 A 
BRANCH  18  21
ATOM     21  OH  TYR A 338     -37.169 129.379   4.354  1.00 43.36    -0.359 OA
ATOM     22  HH  TYR A 338     -36.301 129.238   4.714  1.00  0.00     0.217 HD
ENDBRANCH  18  21
ENDBRANCH  14  15
ENDBRANCH  13  14
END_RES TYR A 338
ENDMDL
MODEL 3
REMARK VINA RESULT:    -6.906      1.720     16.384
REMARK INTER + INTRA:         -13.695
REMARK INTER:                  -9.469
REMARK INTRA:                  -4.226
REMARK UNBOUND:                -6.789
REMARK  0 active torsions:
REMARK  status: ('A' for Active; 'I' for Inactive)
REMARK       I    between atoms: C6_6  and  C7_7 
REMARK       I    between atoms: C8_8  and  C9_9 
REMARK       I    between atoms: C10_10  and  C11_11 
REMARK       I    between atoms: C12_16  and  C13_17 
REMARK       I    between atoms: C14_18  and  C15_19 
REMARK       I    between atoms: C16_20  and  C17_21 
REMARK       I    between atoms: C18_22  and  C19_23 
REMARK       I    between atoms: C20_24  and  C21_25 
REMARK       I    between atoms: C22_26  and  C23_27 
REMARK       I    between atoms: C24_28  and  C25_29 
ROOT
HETATM    1  C1  BCR C 516     -48.102 147.433  10.043  1.00 30.02    -0.020 C 
HETATM    2  C2  BCR C 516     -48.452 148.801  10.588  1.00 30.87     0.014 C 
HETATM    3  C3  BCR C 516     -47.480 149.200  11.671  1.00 30.68     0.005 C 
HETATM    4  C4  BCR C 516     -46.060 149.290  11.159  1.00 31.80     0.034 C 
HETATM    5  C5  BCR C 516     -45.764 148.230  10.138  1.00 32.46    -0.077 C 
HETATM    6  C6  BCR C 516     -46.640 147.307   9.776  1.00 30.66    -0.048 C 
HETATM    7  C7  BCR C 516     -46.203 146.127   9.028  1.00 30.01     0.009 C 
HETATM    8  C8  BCR C 516     -45.532 145.144   9.596  1.00 34.00     0.007 C 
HETATM    9  C9  BCR C 516     -45.128 144.008   8.764  1.00 33.37    -0.062 C 
HETATM   10  C10 BCR C 516     -44.125 143.241   9.175  1.00 32.41     0.007 C 
HETATM   11  C11 BCR C 516     -43.637 142.095   8.425  1.00 36.14     0.001 C 
HETATM   12  C33 BCR C 516     -44.414 148.262   9.502  1.00 28.57     0.044 C 
HETATM   13  C31 BCR C 516     -48.831 147.177   8.738  1.00 26.76     0.020 C 
HETATM   14  C32 BCR C 516     -48.483 146.356  11.036  1.00 31.67     0.020 C 
HETATM   15  C34 BCR C 516     -45.847 143.741   7.477  1.00 31.81     0.048 C 
HETATM   16  C12 BCR C 516     -42.651 141.424   8.993  1.00 35.77     0.007 C 
HETATM   17  C13 BCR C 516     -41.997 140.245   8.417  1.00 38.22    -0.062 C 
HETATM   18  C14 BCR C 516     -41.307 139.445   9.253  1.00 37.80     0.007 C 
HETATM   19  C15 BCR C 516     -40.598 138.251   8.802  1.00 32.13     0.001 C 
HETATM   20  C16 BCR C 516     -40.230 137.278   9.632  1.00 37.10     0.001 C 
HETATM   21  C17 BCR C 516     -39.512 136.146   9.058  1.00 38.20     0.007 C 
HETATM   22  C18 BCR C 516     -38.831 135.242   9.766  1.00 31.50    -0.062 C 
HETATM   23  C19 BCR C 516     -38.144 134.186   9.021  1.00 25.76     0.007 C 
HETATM   24  C20 BCR C 516     -37.456 133.186   9.544  1.00 25.99     0.001 C 
HETATM   25  C21 BCR C 516     -36.864 132.312   8.552  1.00 30.28     0.007 C 
HETATM   26  C22 BCR C 516     -36.040 131.309   8.814  1.00 28.61    -0.062 C 
HETATM   27  C23 BCR C 516     -35.504 130.532   7.694  1.00 24.47     0.007 C 
HETATM   28  C24 BCR C 516     -34.465 129.733   7.892  1.00 23.15     0.009 C 
HETATM   29  C25 BCR C 516     -33.821 128.914   6.854  1.00 23.34    -0.048 C 
HETATM   30  C26 BCR C 516     -34.462 127.972   6.157  1.00 21.26    -0.077 C 
HETATM   31  C27 BCR C 516     -33.780 127.161   5.094  1.00 23.10     0.034 C 
HETATM   32  C28 BCR C 516     -32.567 127.887   4.570  1.00 24.68     0.005 C 
HETATM   33  C29 BCR C 516     -31.659 128.243   5.717  1.00 25.94     0.014 C 
HETATM   34  C30 BCR C 516     -32.356 129.198   6.671  1.00 23.98    -0.020 C 
HETATM   35  C35 BCR C 516     -42.095 139.968   6.949  1.00 31.22     0.048 C 
HETATM   36  C36 BCR C 516     -38.750 135.326  11.251  1.00 33.32     0.048 C 
HETATM   37  C37 BCR C 516     -35.656 130.972  10.219  1.00 23.79     0.048 C 
HETATM   38  C38 BCR C 516     -35.902 127.642   6.393  1.00 23.96     0.044 C 
HETATM   39  C39 BCR C 516     -32.222 130.613   6.145  1.00 22.89     0.020 C 
HETATM   40  C40 BCR C 516     -31.699 129.129   8.035  1.00 22.73     0.020 C 
ENDROOT
TORSDOF 10
BEGIN_RES PHE A  61
REMARK  2 active torsions:
REMARK  status: ('A' for Active; 'I' for Inactive)
REMARK    1  A    between atoms: CA   and  CB  
REMARK    2  A    between atoms: CB   and  CG  
ROOT
ATOM      1  CA  PHE A  61     -36.237 128.293  12.768  1.00 39.40     0.164 C 
ENDROOT
BRANCH   1   2
ATOM      2  CB  PHE A  61     -36.813 128.951  11.509  1.00 39.41     0.058 C 
BRANCH   2   3
ATOM      3  CG  PHE A  61     -36.904 128.035  10.312  1.00 39.01    -0.020 A 
ATOM      4  CD2 PHE A  61     -37.977 128.109   9.439  1.00 40.32    -0.004 A 
ATOM      5  CE2 PHE A  61     -38.061 127.263   8.340  1.00 40.20    -0.000 A 
ATOM      6  CZ  PHE A  61     -37.071 126.338   8.099  1.00 40.34    -0.000 A 
ATOM      7  CE1 PHE A  61     -35.996 126.253   8.956  1.00 41.51    -0.000 A 
ATOM      8  CD1 PHE A  61     -35.916 127.094  10.059  1.00 39.94    -0.004 A 
ENDBRANCH   2   3
ENDBRANCH   1   2
END_RES PHE A  61
BEGIN_RES VAL A 134
REMARK  1 active torsions:
REMARK  status: ('A' for Active; 'I' for Inactive)
REMARK    3  A    between atoms: CA   and  CB  
ROOT
ATOM      9  CA  VAL A 134     -29.766 132.051   9.815  1.00 40.75     0.159 C 
ENDROOT
BRANCH   9  10
ATOM     10  CB  VAL A 134     -30.864 132.765   9.009  1.00 40.76     0.029 C 
ATOM     11  CG1 VAL A 134     -30.703 132.492   7.521  1.00 41.76     0.002 C 
ATOM     12  CG2 VAL A 134     -32.254 132.371   9.483  1.00 40.56     0.002 C 
ENDBRANCH   9  10
END_RES VAL A 134
BEGIN_RES TYR A 338
REMARK  3 active torsions:
REMARK  status: ('A' for Active; 'I' for Inactive)
REMARK    4  A    between atoms: CA   and  CB  
REMARK    5  A    between atoms: CB   and  CG  
REMARK    6  A    between atoms: CZ   and  OH  
ROOT
ATOM     13  CA  TYR A 338     -41.631 124.950   6.058  1.00 38.23     0.164 C 
ENDROOT
BRANCH  13  14
ATOM     14  CB  TYR A 338     -41.621 126.456   6.339  1.00 39.15     0.058 C 
BRANCH  14  15
ATOM     15  CG  TYR A 338     -40.419 127.212   5.822  1.00 39.03    -0.020 A 
ATOM     16  CD2 TYR A 338     -40.235 128.545   6.149  1.00 40.65    -0.002 A 
ATOM     17  CE2 TYR A 338     -39.153 129.273   5.680  1.00 40.91     0.024 A 
ATOM     18  CZ  TYR A 338     -38.221 128.666   4.858  1.00 42.33     0.089 A 
ATOM     19  CE1 TYR A 338     -38.381 127.333   4.521  1.00 40.63     0.024 A 
ATOM     20  CD1 TYR A 338     -39.477 126.626   4.990  1.00 39.27    -0.002 A 
BRANCH  18  21
ATOM     21  OH  TYR A 338     -37.148 129.373   4.393  1.00 43.36    -0.359 OA
ATOM     22  HH  TYR A 338     -36.335 128.928   4.181  1.00  0.00     0.217 HD
ENDBRANCH  18  21
ENDBRANCH  14  15
ENDBRANCH  13  14
END_RES TYR A 338
ENDMDL
