MODEL 1
REMARK VINA RESULT:    -6.367      0.000      0.000
REMARK INTER + INTRA:         -13.476
REMARK INTER:                  -6.367
REMARK INTRA:                  -7.109
REMARK UNBOUND:                -7.109
REMARK  0 active torsions:
REMARK  status: ('A' for Active; 'I' for Inactive)
REMARK       I    between atoms: C6_6  and  C7_7 
REMARK       I    between atoms: C8_8  and  C9_9 
REMARK       I    between atoms: C10_10  and  C11_11 
REMARK       I    between atoms: C12_16  and  C13_17 
REMARK       I    between atoms: C14_18  and  C15_19 
REMARK       I    between atoms: C16_20  and  C17_21 
REMARK       I    between atoms: C18_22  and  C19_23 
REMARK       I    between atoms: C20_24  and  C21_25 
REMARK       I    between atoms: C22_26  and  C23_27 
REMARK       I    between atoms: C24_28  and  C25_29 
ROOT
HETATM    1  C1  BCR B 627     -36.744 133.114   9.918  1.00 20.03    -0.020 C 
HETATM    2  C2  BCR B 627     -35.853 131.888  10.095  1.00 20.04     0.014 C 
HETATM    3  C3  BCR B 627     -36.364 130.635   9.450  1.00 20.04     0.005 C 
HETATM    4  C4  BCR B 627     -36.849 130.916   8.058  1.00 20.06     0.034 C 
HETATM    5  C5  BCR B 627     -37.927 131.918   8.131  1.00 20.07    -0.077 C 
HETATM    6  C6  BCR B 627     -37.905 132.953   8.969  1.00 20.01    -0.048 C 
HETATM    7  C7  BCR B 627     -39.040 133.888   9.048  1.00 19.93     0.009 C 
HETATM    8  C8  BCR B 627     -39.026 135.176   8.708  1.00 19.77     0.007 C 
HETATM    9  C9  BCR B 627     -40.195 136.022   8.588  1.00 19.74    -0.062 C 
HETATM   10  C10 BCR B 627     -40.162 137.211   9.200  1.00 19.67     0.007 C 
HETATM   11  C11 BCR B 627     -41.110 138.277   9.008  1.00 19.57     0.001 C 
HETATM   12  C33 BCR B 627     -39.025 131.669   7.182  1.00 20.11     0.044 C 
HETATM   13  C31 BCR B 627     -35.773 134.196   9.479  1.00 20.01     0.020 C 
HETATM   14  C32 BCR B 627     -37.257 133.480  11.297  1.00 20.03     0.020 C 
HETATM   15  C34 BCR B 627     -41.086 135.795   7.433  1.00 19.74     0.048 C 
HETATM   16  C12 BCR B 627     -41.112 139.293   9.875  1.00 19.46     0.007 C 
HETATM   17  C13 BCR B 627     -42.119 140.321   9.941  1.00 19.38    -0.062 C 
HETATM   18  C14 BCR B 627     -41.972 141.331  10.810  1.00 19.31     0.007 C 
HETATM   19  C15 BCR B 627     -42.974 142.326  11.070  1.00 19.23     0.001 C 
HETATM   20  C16 BCR B 627     -42.678 143.466  11.704  1.00 19.14     0.001 C 
HETATM   21  C17 BCR B 627     -43.767 144.331  12.071  1.00 19.09     0.007 C 
HETATM   22  C18 BCR B 627     -43.709 145.485  12.749  1.00 19.05    -0.062 C 
HETATM   23  C19 BCR B 627     -44.956 146.180  13.039  1.00 18.93     0.007 C 
HETATM   24  C20 BCR B 627     -45.055 147.187  13.907  1.00 18.76     0.001 C 
HETATM   25  C21 BCR B 627     -46.352 147.727  14.238  1.00 18.56     0.007 C 
HETATM   26  C22 BCR B 627     -46.586 148.744  15.072  1.00 18.41    -0.062 C 
HETATM   27  C23 BCR B 627     -47.872 148.798  15.748  1.00 18.24     0.007 C 
HETATM   28  C24 BCR B 627     -48.465 149.922  16.160  1.00 18.04     0.009 C 
HETATM   29  C25 BCR B 627     -49.876 150.083  16.522  1.00 17.92    -0.048 C 
HETATM   30  C26 BCR B 627     -50.857 150.143  15.604  1.00 17.87    -0.077 C 
HETATM   31  C27 BCR B 627     -52.301 150.295  15.882  1.00 17.85     0.034 C 
HETATM   32  C28 BCR B 627     -52.600 149.899  17.299  1.00 17.84     0.005 C 
HETATM   33  C29 BCR B 627     -51.644 150.603  18.220  1.00 17.86     0.014 C 
HETATM   34  C30 BCR B 627     -50.200 150.207  17.985  1.00 17.90    -0.020 C 
HETATM   35  C35 BCR B 627     -43.154 140.381   8.891  1.00 19.38     0.048 C 
HETATM   36  C36 BCR B 627     -42.439 146.017  13.284  1.00 19.05     0.048 C 
HETATM   37  C37 BCR B 627     -45.484 149.597  15.559  1.00 18.42     0.048 C 
HETATM   38  C38 BCR B 627     -50.653 150.061  14.145  1.00 17.77     0.044 C 
HETATM   39  C39 BCR B 627     -49.867 148.941  18.767  1.00 17.89     0.020 C 
HETATM   40  C40 BCR B 627     -49.422 151.350  18.623  1.00 17.88     0.020 C 
ENDROOT
TORSDOF 10
BEGIN_RES PHE A  61
REMARK  2 active torsions:
REMARK  status: ('A' for Active; 'I' for Inactive)
REMARK    1  A    between atoms: CA   and  CB  
REMARK    2  A    between atoms: CB   and  CG  
ROOT
ATOM      1  CA  PHE A  61     -36.237 128.293  12.768  1.00 39.40     0.164 C 
ENDROOT
BRANCH   1   2
ATOM      2  CB  PHE A  61     -36.813 128.951  11.509  1.00 39.41     0.058 C 
BRANCH   2   3
ATOM      3  CG  PHE A  61     -36.599 128.162  10.239  1.00 39.01    -0.020 A 
ATOM      4  CD2 PHE A  61     -35.334 127.730   9.875  1.00 40.32    -0.004 A 
ATOM      5  CE2 PHE A  61     -35.138 127.007   8.705  1.00 40.20    -0.000 A 
ATOM      6  CZ  PHE A  61     -36.204 126.706   7.888  1.00 40.34    -0.000 A 
ATOM      7  CE1 PHE A  61     -37.468 127.127   8.237  1.00 41.51    -0.000 A 
ATOM      8  CD1 PHE A  61     -37.663 127.855   9.404  1.00 39.94    -0.004 A 
ENDBRANCH   2   3
ENDBRANCH   1   2
END_RES PHE A  61
BEGIN_RES VAL A 134
REMARK  1 active torsions:
REMARK  status: ('A' for Active; 'I' for Inactive)
REMARK    3  A    between atoms: CA   and  CB  
ROOT
ATOM      9  CA  VAL A 134     -29.766 132.051   9.815  1.00 40.75     0.159 C 
ENDROOT
BRANCH   9  10
ATOM     10  CB  VAL A 134     -30.864 132.765   9.009  1.00 40.76     0.029 C 
ATOM     11  CG1 VAL A 134     -31.213 131.974   7.757  1.00 41.76     0.002 C 
ATOM     12  CG2 VAL A 134     -32.105 133.017   9.852  1.00 40.56     0.002 C 
ENDBRANCH   9  10
END_RES VAL A 134
BEGIN_RES TYR A 338
REMARK  3 active torsions:
REMARK  status: ('A' for Active; 'I' for Inactive)
REMARK    4  A    between atoms: CA   and  CB  
REMARK    5  A    between atoms: CB   and  CG  
REMARK    6  A    between atoms: CZ   and  OH  
ROOT
ATOM     13  CA  TYR A 338     -41.631 124.950   6.058  1.00 38.23     0.164 C 
ENDROOT
BRANCH  13  14
ATOM     14  CB  TYR A 338     -41.621 126.456   6.339  1.00 39.15     0.058 C 
BRANCH  14  15
ATOM     15  CG  TYR A 338     -40.389 127.201   5.880  1.00 39.03    -0.020 A 
ATOM     16  CD2 TYR A 338     -39.392 126.542   5.181  1.00 40.65    -0.002 A 
ATOM     17  CE2 TYR A 338     -38.241 127.190   4.758  1.00 40.91     0.024 A 
ATOM     18  CZ  TYR A 338     -38.069 128.533   5.036  1.00 42.33     0.089 A 
ATOM     19  CE1 TYR A 338     -39.054 129.215   5.729  1.00 40.63     0.024 A 
ATOM     20  CD1 TYR A 338     -40.191 128.545   6.154  1.00 39.27    -0.002 A 
BRANCH  18  21
ATOM     21  OH  TYR A 338     -36.940 129.184   4.620  1.00 43.36    -0.359 OA
ATOM     22  HH  TYR A 338     -36.210 128.695   4.259  1.00  0.00     0.217 HD
ENDBRANCH  18  21
ENDBRANCH  14  15
ENDBRANCH  13  14
END_RES TYR A 338
ENDMDL
MODEL 2
REMARK VINA RESULT:    -4.769      3.193      6.279
REMARK INTER + INTRA:         -11.878
REMARK INTER:                  -8.266
REMARK INTRA:                  -3.612
REMARK UNBOUND:                -7.109
REMARK  0 active torsions:
REMARK  status: ('A' for Active; 'I' for Inactive)
REMARK       I    between atoms: C6_6  and  C7_7 
REMARK       I    between atoms: C8_8  and  C9_9 
REMARK       I    between atoms: C10_10  and  C11_11 
REMARK       I    between atoms: C12_16  and  C13_17 
REMARK       I    between atoms: C14_18  and  C15_19 
REMARK       I    between atoms: C16_20  and  C17_21 
REMARK       I    between atoms: C18_22  and  C19_23 
REMARK       I    between atoms: C20_24  and  C21_25 
REMARK       I    between atoms: C22_26  and  C23_27 
REMARK       I    between atoms: C24_28  and  C25_29 
ROOT
HETATM    1  C1  BCR B 627     -33.548 128.688   6.130  1.00 20.03    -0.020 C 
HETATM    2  C2  BCR B 627     -32.389 127.776   5.739  1.00 20.04     0.014 C 
HETATM    3  C3  BCR B 627     -32.302 126.495   6.511  1.00 20.04     0.005 C 
HETATM    4  C4  BCR B 627     -33.653 125.851   6.623  1.00 20.06     0.034 C 
HETATM    5  C5  BCR B 627     -34.562 126.788   7.306  1.00 20.07    -0.077 C 
HETATM    6  C6  BCR B 627     -34.550 128.102   7.093  1.00 20.01    -0.048 C 
HETATM    7  C7  BCR B 627     -35.436 129.002   7.852  1.00 19.93     0.009 C 
HETATM    8  C8  BCR B 627     -36.436 129.728   7.355  1.00 19.77     0.007 C 
HETATM    9  C9  BCR B 627     -37.427 130.434   8.140  1.00 19.74    -0.062 C 
HETATM   10  C10 BCR B 627     -37.667 131.712   7.826  1.00 19.67     0.007 C 
HETATM   11  C11 BCR B 627     -38.762 132.504   8.320  1.00 19.57     0.001 C 
HETATM   12  C33 BCR B 627     -35.491 126.129   8.240  1.00 20.11     0.044 C 
HETATM   13  C31 BCR B 627     -34.167 129.066   4.796  1.00 20.01     0.020 C 
HETATM   14  C32 BCR B 627     -32.933 129.938   6.729  1.00 20.03     0.020 C 
HETATM   15  C34 BCR B 627     -38.447 129.628   8.838  1.00 19.74     0.048 C 
HETATM   16  C12 BCR B 627     -38.726 133.827   8.141  1.00 19.46     0.007 C 
HETATM   17  C13 BCR B 627     -39.632 134.768   8.749  1.00 19.38    -0.062 C 
HETATM   18  C14 BCR B 627     -39.538 136.068   8.433  1.00 19.31     0.007 C 
HETATM   19  C15 BCR B 627     -40.281 137.112   9.081  1.00 19.23     0.001 C 
HETATM   20  C16 BCR B 627     -40.384 138.333   8.543  1.00 19.14     0.001 C 
HETATM   21  C17 BCR B 627     -41.003 139.363   9.334  1.00 19.09     0.007 C 
HETATM   22  C18 BCR B 627     -41.164 140.656   9.019  1.00 19.05    -0.062 C 
HETATM   23  C19 BCR B 627     -41.794 141.531   9.999  1.00 18.93     0.007 C 
HETATM   24  C20 BCR B 627     -41.785 142.862   9.913  1.00 18.76     0.001 C 
HETATM   25  C21 BCR B 627     -42.311 143.656  10.996  1.00 18.56     0.007 C 
HETATM   26  C22 BCR B 627     -42.380 144.991  11.026  1.00 18.41    -0.062 C 
HETATM   27  C23 BCR B 627     -42.364 145.652  12.320  1.00 18.24     0.007 C 
HETATM   28  C24 BCR B 627     -42.928 146.836  12.573  1.00 18.04     0.009 C 
HETATM   29  C25 BCR B 627     -43.249 147.387  13.893  1.00 17.92    -0.048 C 
HETATM   30  C26 BCR B 627     -44.296 146.960  14.621  1.00 17.87    -0.077 C 
HETATM   31  C27 BCR B 627     -44.683 147.454  15.959  1.00 17.85     0.034 C 
HETATM   32  C28 BCR B 627     -43.519 148.136  16.617  1.00 17.84     0.005 C 
HETATM   33  C29 BCR B 627     -42.927 149.133  15.661  1.00 17.86     0.014 C 
HETATM   34  C30 BCR B 627     -42.365 148.488  14.410  1.00 17.90    -0.020 C 
HETATM   35  C35 BCR B 627     -40.793 134.262   9.504  1.00 19.38     0.048 C 
HETATM   36  C36 BCR B 627     -40.644 141.228   7.760  1.00 19.05     0.048 C 
HETATM   37  C37 BCR B 627     -42.142 145.791   9.809  1.00 18.42     0.048 C 
HETATM   38  C38 BCR B 627     -45.244 145.910  14.201  1.00 17.77     0.044 C 
HETATM   39  C39 BCR B 627     -40.934 148.021  14.655  1.00 17.89     0.020 C 
HETATM   40  C40 BCR B 627     -42.300 149.647  13.425  1.00 17.88     0.020 C 
ENDROOT
TORSDOF 10
BEGIN_RES PHE A  61
REMARK  2 active torsions:
REMARK  status: ('A' for Active; 'I' for Inactive)
REMARK    1  A    between atoms: CA   and  CB  
REMARK    2  A    between atoms: CB   and  CG  
ROOT
ATOM      1  CA  PHE A  61     -36.237 128.293  12.768  1.00 39.40     0.164 C 
ENDROOT
BRANCH   1   2
ATOM      2  CB  PHE A  61     -36.813 128.951  11.509  1.00 39.41     0.058 C 
BRANCH   2   3
ATOM      3  CG  PHE A  61     -36.158 130.258  11.133  1.00 39.01    -0.020 A 
ATOM      4  CD2 PHE A  61     -34.891 130.284  10.571  1.00 40.32    -0.004 A 
ATOM      5  CE2 PHE A  61     -34.289 131.488  10.228  1.00 40.20    -0.000 A 
ATOM      6  CZ  PHE A  61     -34.946 132.678  10.440  1.00 40.34    -0.000 A 
ATOM      7  CE1 PHE A  61     -36.206 132.670  10.996  1.00 41.51    -0.000 A 
ATOM      8  CD1 PHE A  61     -36.807 131.467  11.345  1.00 39.94    -0.004 A 
ENDBRANCH   2   3
ENDBRANCH   1   2
END_RES PHE A  61
BEGIN_RES VAL A 134
REMARK  1 active torsions:
REMARK  status: ('A' for Active; 'I' for Inactive)
REMARK    3  A    between atoms: CA   and  CB  
ROOT
ATOM      9  CA  VAL A 134     -29.766 132.051   9.815  1.00 40.75     0.159 C 
ENDROOT
BRANCH   9  10
ATOM     10  CB  VAL A 134     -30.864 132.765   9.009  1.00 40.76     0.029 C 
ATOM     11  CG1 VAL A 134     -31.421 131.849   7.929  1.00 41.76     0.002 C 
ATOM     12  CG2 VAL A 134     -31.977 133.278   9.909  1.00 40.56     0.002 C 
ENDBRANCH   9  10
END_RES VAL A 134
BEGIN_RES TYR A 338
REMARK  3 active torsions:
REMARK  status: ('A' for Active; 'I' for Inactive)
REMARK    4  A    between atoms: CA   and  CB  
REMARK    5  A    between atoms: CB   and  CG  
REMARK    6  A    between atoms: CZ   and  OH  
ROOT
ATOM     13  CA  TYR A 338     -41.631 124.950   6.058  1.00 38.23     0.164 C 
ENDROOT
BRANCH  13  14
ATOM     14  CB  TYR A 338     -41.621 126.456   6.339  1.00 39.15     0.058 C 
BRANCH  14  15
ATOM     15  CG  TYR A 338     -40.415 127.211   5.829  1.00 39.03    -0.020 A 
ATOM     16  CD2 TYR A 338     -40.338 128.586   5.969  1.00 40.65    -0.002 A 
ATOM     17  CE2 TYR A 338     -39.254 129.312   5.499  1.00 40.91     0.024 A 
ATOM     18  CZ  TYR A 338     -38.212 128.658   4.870  1.00 42.33     0.089 A 
ATOM     19  CE1 TYR A 338     -38.263 127.283   4.722  1.00 40.63     0.024 A 
ATOM     20  CD1 TYR A 338     -39.362 126.577   5.187  1.00 39.27    -0.002 A 
BRANCH  18  21
ATOM     21  OH  TYR A 338     -37.136 129.363   4.407  1.00 43.36    -0.359 OA
ATOM     22  HH  TYR A 338     -37.022 129.509   3.475  1.00  0.00     0.217 HD
ENDBRANCH  18  21
ENDBRANCH  14  15
ENDBRANCH  13  14
END_RES TYR A 338
ENDMDL
