REMARK VINA RESULT:    -9.011      0.000      0.000
REMARK INTER + INTRA:         -20.996
REMARK INTER:                 -12.698
REMARK INTRA:                  -8.298
REMARK UNBOUND:                -8.298
REMARK  8 active torsions:
REMARK  status: ('A' for Active; 'I' for Inactive)
REMARK    1  A    between atoms: C9_8  and  C8_9 
REMARK    2  A    between atoms: C8_9  and  O1_10 
REMARK    3  A    between atoms: O1_10  and  C7_11 
REMARK    4  A    between atoms: C3_16  and  C2_17 
REMARK    5  A    between atoms: C2_17  and  C1_20 
REMARK    6  A    between atoms: C2_17  and  O_18 
REMARK    7  A    between atoms: C1_20  and  C_21 
REMARK    8  A    between atoms: C_21  and  N_22 
ROOT
HETATM    1  C7  XQ7 A 603     -39.175 135.472   9.417  1.00 66.72     0.069 A 
HETATM    2  C6  XQ7 A 603     -39.748 135.903  10.598  1.00 62.90     0.037 A 
HETATM    3  C5  XQ7 A 603     -39.442 135.247  11.776  1.00 63.00     0.003 A 
HETATM    4  C4  XQ7 A 603     -38.572 134.172  11.777  1.00 62.69     0.010 A 
HETATM    5  C15 XQ7 A 603     -38.298 134.389   9.412  1.00 64.77     0.046 A 
HETATM    6  C3  XQ7 A 603     -37.994 133.726  10.600  1.00 62.38    -0.027 A 
ENDROOT
BRANCH   1   7
HETATM    7  O1  XQ7 A 603     -39.487 136.133   8.249  1.00 71.35    -0.351 OA
BRANCH   7   8
HETATM    8  C8  XQ7 A 603     -40.337 135.513   7.270  1.00 80.50     0.180 C 
BRANCH   8   9
HETATM    9  C9  XQ7 A 603     -41.559 136.388   7.084  1.00 85.44     0.010 C 
HETATM   10  C10 XQ7 A 603     -42.659 136.074   8.091  1.00 88.77     0.013 C 
HETATM   11  C11 XQ7 A 603     -43.911 136.902   7.787  1.00 92.54     0.079 C 
HETATM   12  C12 XQ7 A 603     -43.611 138.368   7.682  1.00 93.77     0.243 C 
HETATM   13  F1  XQ7 A 603     -44.728 139.031   7.225  1.00 90.81    -0.206 F 
HETATM   14  F   XQ7 A 603     -43.404 138.881   8.943  1.00 97.78    -0.206 F 
HETATM   15  C13 XQ7 A 603     -42.442 138.710   6.810  1.00 90.87     0.079 C 
HETATM   16  C14 XQ7 A 603     -41.219 137.870   7.182  1.00 89.05     0.013 C 
ENDBRANCH   8   9
ENDBRANCH   7   8
ENDBRANCH   1   7
BRANCH   6  17
HETATM   17  C2  XQ7 A 603     -37.043 132.542  10.631  1.00 64.70     0.152 C 
BRANCH  17  18
HETATM   18  C1  XQ7 A 603     -36.265 132.352   9.330  1.00 63.76     0.064 C 
BRANCH  18  19
HETATM   19  C   XQ7 A 603     -36.948 131.446   8.312  1.00 64.49     0.232 C 
BRANCH  19  20
HETATM   20  N   XQ7 A 603     -36.139 131.071   7.157  1.00 63.34    -0.079 N 
ATOM     21  HN1 XQ7 A 603     -35.490 130.298   7.304  1.00  0.00     0.274 HD
ATOM     22  HN2 XQ7 A 603     -35.635 131.886   6.805  1.00  0.00     0.274 HD
ATOM     23  HN3 XQ7 A 603     -36.742 130.872   6.359  1.00  0.00     0.274 HD
ENDBRANCH  19  20
ENDBRANCH  18  19
ENDBRANCH  17  18
BRANCH  17  24
HETATM   24  O   XQ7 A 603     -36.137 132.621  11.727  1.00 70.80    -0.391 OA
ATOM     25  HO  XQ7 A 603     -36.328 131.932  12.352  1.00  0.00     0.210 HD
ENDBRANCH  17  24
ENDBRANCH   6  17
TORSDOF 8
