REMARK VINA RESULT:    -9.296      3.350      6.023
REMARK INTER + INTRA:         -16.754
REMARK INTER:                  -9.081
REMARK INTRA:                  -7.673
REMARK UNBOUND:                -7.458
REMARK  0 active torsions:
REMARK  status: ('A' for Active; 'I' for Inactive)
REMARK       I    between atoms: C9_8  and  C8_9 
REMARK       I    between atoms: C8_9  and  O1_10 
REMARK       I    between atoms: O1_10  and  C7_11 
REMARK       I    between atoms: C3_16  and  C2_17 
REMARK       I    between atoms: C2_17  and  O_18 
REMARK       I    between atoms: C2_17  and  C1_20 
REMARK       I    between atoms: C1_20  and  C_21 
REMARK       I    between atoms: C_21  and  N_22 
ROOT
HETATM    1  F1  XQ7 B 603     -35.819 131.362  11.376  1.00 89.50    -0.206 F 
HETATM    2  C12 XQ7 B 603     -36.788 132.194  10.865  1.00 90.63     0.243 C 
HETATM    3  F   XQ7 B 603     -37.807 131.345  10.492  1.00 90.25    -0.206 F 
HETATM    4  C11 XQ7 B 603     -37.274 133.117  11.939  1.00 89.14     0.079 C 
HETATM    5  C10 XQ7 B 603     -38.273 134.142  11.389  1.00 85.92     0.013 C 
HETATM    6  C13 XQ7 B 603     -36.256 132.894   9.654  1.00 88.46     0.079 C 
HETATM    7  C14 XQ7 B 603     -37.272 133.903   9.116  1.00 86.13     0.013 C 
HETATM    8  C9  XQ7 B 603     -37.704 134.900  10.188  1.00 81.25     0.010 C 
HETATM    9  C8  XQ7 B 603     -38.706 135.878   9.608  1.00 76.24     0.180 C 
HETATM   10  O1  XQ7 B 603     -39.975 135.210   9.535  1.00 68.93    -0.351 OA
HETATM   11  C7  XQ7 B 603     -41.023 135.758   8.829  1.00 64.09     0.069 A 
HETATM   12  C6  XQ7 B 603     -42.243 135.111   8.846  1.00 62.20     0.037 A 
HETATM   13  C5  XQ7 B 603     -43.317 135.673   8.183  1.00 61.57     0.003 A 
HETATM   14  C4  XQ7 B 603     -43.170 136.863   7.494  1.00 62.22     0.010 A 
HETATM   15  C15 XQ7 B 603     -40.870 136.957   8.139  1.00 62.13     0.046 A 
HETATM   16  C3  XQ7 B 603     -41.951 137.517   7.459  1.00 59.17    -0.027 A 
HETATM   17  C2  XQ7 B 603     -41.815 138.799   6.658  1.00 59.30     0.152 C 
HETATM   18  O   XQ7 B 603     -41.246 138.566   5.375  1.00 63.67    -0.391 OA
ATOM     19  HO  XQ7 B 603     -41.160 139.368   4.874  1.00  0.00     0.210 HD
HETATM   20  C1  XQ7 B 603     -41.021 139.881   7.375  1.00 56.81     0.064 C 
HETATM   21  C   XQ7 B 603     -41.087 141.215   6.647  1.00 56.65     0.232 C 
HETATM   22  N   XQ7 B 603     -40.235 141.304   5.466  1.00 54.87    -0.079 N 
ATOM     23  HN1 XQ7 B 603     -40.278 142.198   4.978  1.00  0.00     0.274 HD
ATOM     24  HN2 XQ7 B 603     -40.439 140.538   4.824  1.00  0.00     0.274 HD
ATOM     25  HN3 XQ7 B 603     -39.270 141.078   5.708  1.00  0.00     0.274 HD
ENDROOT
TORSDOF 8
