REMARK VINA RESULT:    -7.971      3.490      5.956
REMARK INTER + INTRA:         -19.721
REMARK INTER:                 -11.266
REMARK INTRA:                  -8.456
REMARK UNBOUND:                -8.488
REMARK  8 active torsions:
REMARK  status: ('A' for Active; 'I' for Inactive)
REMARK    1  A    between atoms: C9_8  and  C8_9 
REMARK    2  A    between atoms: C8_9  and  O1_10 
REMARK    3  A    between atoms: O1_10  and  C7_11 
REMARK    4  A    between atoms: C3_16  and  C2_17 
REMARK    5  A    between atoms: C2_17  and  O_18 
REMARK    6  A    between atoms: C2_17  and  C1_20 
REMARK    7  A    between atoms: C1_20  and  C_21 
REMARK    8  A    between atoms: C_21  and  N_22 
ROOT
HETATM    1  C7  XQ7 B 603     -40.336 136.302   8.237  1.00 64.09     0.069 A 
HETATM    2  C6  XQ7 B 603     -40.337 136.091   6.872  1.00 62.20     0.037 A 
HETATM    3  C5  XQ7 B 603     -40.495 137.168   6.021  1.00 61.57     0.003 A 
HETATM    4  C4  XQ7 B 603     -40.633 138.447   6.527  1.00 62.22     0.010 A 
HETATM    5  C15 XQ7 B 603     -40.477 137.587   8.752  1.00 62.13     0.046 A 
HETATM    6  C3  XQ7 B 603     -40.623 138.674   7.892  1.00 59.17    -0.027 A 
ENDROOT
BRANCH   1   7
HETATM    7  O1  XQ7 B 603     -40.227 135.213   9.072  1.00 68.93    -0.351 OA
BRANCH   7   8
HETATM    8  C8  XQ7 B 603     -39.831 135.372  10.444  1.00 76.24     0.180 C 
BRANCH   8   9
HETATM    9  C9  XQ7 B 603     -38.468 134.731  10.606  1.00 81.25     0.010 C 
HETATM   10  C14 XQ7 B 603     -38.218 133.747   9.468  1.00 86.13     0.013 C 
HETATM   11  C13 XQ7 B 603     -36.849 133.075   9.586  1.00 88.46     0.079 C 
HETATM   12  C12 XQ7 B 603     -36.691 132.415  10.920  1.00 90.63     0.243 C 
HETATM   13  F1  XQ7 B 603     -35.420 131.900  11.029  1.00 89.50    -0.206 F 
HETATM   14  F   XQ7 B 603     -37.514 131.313  10.985  1.00 90.25    -0.206 F 
HETATM   15  C11 XQ7 B 603     -36.968 133.316  12.083  1.00 89.14     0.079 C 
HETATM   16  C10 XQ7 B 603     -38.330 134.006  11.946  1.00 85.92     0.013 C 
ENDBRANCH   8   9
ENDBRANCH   7   8
ENDBRANCH   1   7
BRANCH   6  17
HETATM   17  C2  XQ7 B 603     -40.735 140.096   8.413  1.00 59.30     0.152 C 
BRANCH  17  18
HETATM   18  O   XQ7 B 603     -39.552 140.847   8.163  1.00 63.67    -0.391 OA
ATOM     19  HO  XQ7 B 603     -38.794 140.468   8.592  1.00  0.00     0.210 HD
ENDBRANCH  17  18
BRANCH  17  20
HETATM   20  C1  XQ7 B 603     -41.082 140.175   9.892  1.00 56.81     0.064 C 
BRANCH  20  21
HETATM   21  C   XQ7 B 603     -41.280 141.610  10.356  1.00 56.65     0.232 C 
BRANCH  21  22
HETATM   22  N   XQ7 B 603     -40.044 142.343  10.604  1.00 54.87    -0.079 N 
ATOM     23  HN1 XQ7 B 603     -40.095 143.017  11.368  1.00  0.00     0.274 HD
ATOM     24  HN2 XQ7 B 603     -39.725 142.800   9.749  1.00  0.00     0.274 HD
ATOM     25  HN3 XQ7 B 603     -39.271 141.695  10.755  1.00  0.00     0.274 HD
ENDBRANCH  21  22
ENDBRANCH  20  21
ENDBRANCH  17  20
ENDBRANCH   6  17
TORSDOF 8
