REMARK VINA RESULT:    -8.668      4.331      6.491
REMARK INTER + INTRA:         -16.302
REMARK INTER:                  -8.372
REMARK INTRA:                  -7.930
REMARK UNBOUND:                -7.634
REMARK  0 active torsions:
REMARK  status: ('A' for Active; 'I' for Inactive)
REMARK       I    between atoms: C9_8  and  C8_9 
REMARK       I    between atoms: C8_9  and  O1_10 
REMARK       I    between atoms: O1_10  and  C7_11 
REMARK       I    between atoms: C3_16  and  C2_17 
REMARK       I    between atoms: C2_17  and  C1_20 
REMARK       I    between atoms: C2_17  and  O_18 
REMARK       I    between atoms: C1_20  and  C_21 
REMARK       I    between atoms: C_21  and  N_22 
ROOT
HETATM    1  F1  XQ7 A 603     -48.287 137.857  16.188  1.00 90.81    -0.206 F 
HETATM    2  C12 XQ7 A 603     -48.046 137.792  14.834  1.00 93.77     0.243 C 
HETATM    3  F   XQ7 A 603     -48.870 136.781  14.391  1.00 97.78    -0.206 F 
HETATM    4  C11 XQ7 A 603     -48.458 139.084  14.192  1.00 92.54     0.079 C 
HETATM    5  C10 XQ7 A 603     -48.031 139.163  12.724  1.00 88.77     0.013 C 
HETATM    6  C13 XQ7 A 603     -46.618 137.403  14.605  1.00 90.87     0.079 C 
HETATM    7  C14 XQ7 A 603     -46.263 137.477  13.119  1.00 89.05     0.013 C 
HETATM    8  C9  XQ7 A 603     -46.540 138.879  12.590  1.00 85.44     0.010 C 
HETATM    9  C8  XQ7 A 603     -46.043 139.057  11.170  1.00 80.50     0.180 C 
HETATM   10  O1  XQ7 A 603     -46.224 137.814  10.472  1.00 71.35    -0.351 OA
HETATM   11  C7  XQ7 A 603     -45.433 137.504   9.387  1.00 66.72     0.069 A 
HETATM   12  C6  XQ7 A 603     -45.634 136.300   8.740  1.00 62.90     0.037 A 
HETATM   13  C5  XQ7 A 603     -44.845 135.978   7.651  1.00 63.00     0.003 A 
HETATM   14  C4  XQ7 A 603     -43.866 136.849   7.211  1.00 62.69     0.010 A 
HETATM   15  C15 XQ7 A 603     -44.447 138.385   8.948  1.00 64.77     0.046 A 
HETATM   16  C3  XQ7 A 603     -43.656 138.062   7.846  1.00 62.38    -0.027 A 
HETATM   17  C2  XQ7 A 603     -42.573 138.999   7.341  1.00 64.70     0.152 C 
HETATM   18  O   XQ7 A 603     -41.388 138.908   8.124  1.00 70.80    -0.391 OA
ATOM     19  HO  XQ7 A 603     -41.108 138.003   8.181  1.00  0.00     0.210 HD
HETATM   20  C1  XQ7 A 603     -43.023 140.456   7.249  1.00 63.76     0.064 C 
HETATM   21  C   XQ7 A 603     -41.895 141.451   7.000  1.00 64.49     0.232 C 
HETATM   22  N   XQ7 A 603     -40.593 140.867   6.697  1.00 63.34    -0.079 N 
ATOM     23  HN1 XQ7 A 603     -39.838 141.532   6.530  1.00  0.00     0.274 HD
ATOM     24  HN2 XQ7 A 603     -40.674 140.227   5.906  1.00  0.00     0.274 HD
ATOM     25  HN3 XQ7 A 603     -40.324 140.213   7.432  1.00  0.00     0.274 HD
ENDROOT
TORSDOF 8
