REMARK VINA RESULT:    -7.804      3.919      5.961
REMARK INTER + INTRA:         -19.295
REMARK INTER:                 -10.624
REMARK INTRA:                  -8.672
REMARK UNBOUND:                -8.298
REMARK  8 active torsions:
REMARK  status: ('A' for Active; 'I' for Inactive)
REMARK    1  A    between atoms: C9_8  and  C8_9 
REMARK    2  A    between atoms: C8_9  and  O1_10 
REMARK    3  A    between atoms: O1_10  and  C7_11 
REMARK    4  A    between atoms: C3_16  and  C2_17 
REMARK    5  A    between atoms: C2_17  and  C1_20 
REMARK    6  A    between atoms: C2_17  and  O_18 
REMARK    7  A    between atoms: C1_20  and  C_21 
REMARK    8  A    between atoms: C_21  and  N_22 
ROOT
HETATM    1  C7  XQ7 A 603     -45.319 138.267   9.181  1.00 66.72     0.069 A 
HETATM    2  C6  XQ7 A 603     -45.799 136.978   9.061  1.00 62.90     0.037 A 
HETATM    3  C5  XQ7 A 603     -45.109 136.069   8.280  1.00 63.00     0.003 A 
HETATM    4  C4  XQ7 A 603     -43.951 136.443   7.625  1.00 62.69     0.010 A 
HETATM    5  C15 XQ7 A 603     -44.151 138.649   8.524  1.00 64.77     0.046 A 
HETATM    6  C3  XQ7 A 603     -43.459 137.733   7.732  1.00 62.38    -0.027 A 
ENDROOT
BRANCH   1   7
HETATM    7  O1  XQ7 A 603     -46.014 139.164   9.962  1.00 71.35    -0.351 OA
BRANCH   7   8
HETATM    8  C8  XQ7 A 603     -46.952 138.694  10.945  1.00 80.50     0.180 C 
BRANCH   8   9
HETATM    9  C9  XQ7 A 603     -46.196 138.426  12.230  1.00 85.44     0.010 C 
HETATM   10  C10 XQ7 A 603     -46.055 139.673  13.094  1.00 88.77     0.013 C 
HETATM   11  C11 XQ7 A 603     -45.186 139.377  14.319  1.00 92.54     0.079 C 
HETATM   12  C12 XQ7 A 603     -45.673 138.183  15.085  1.00 93.77     0.243 C 
HETATM   13  F1  XQ7 A 603     -44.752 137.856  16.055  1.00 90.81    -0.206 F 
HETATM   14  F   XQ7 A 603     -46.804 138.527  15.792  1.00 97.78    -0.206 F 
HETATM   15  C13 XQ7 A 603     -45.960 136.973  14.250  1.00 90.87     0.079 C 
HETATM   16  C14 XQ7 A 603     -46.854 137.331  13.060  1.00 89.05     0.013 C 
ENDBRANCH   8   9
ENDBRANCH   7   8
ENDBRANCH   1   7
BRANCH   6  17
HETATM   17  C2  XQ7 A 603     -42.184 138.115   7.001  1.00 64.70     0.152 C 
BRANCH  17  18
HETATM   18  C1  XQ7 A 603     -41.526 136.945   6.273  1.00 63.76     0.064 C 
BRANCH  18  19
HETATM   19  C   XQ7 A 603     -40.004 137.011   6.216  1.00 64.49     0.232 C 
BRANCH  19  20
HETATM   20  N   XQ7 A 603     -39.442 138.292   5.799  1.00 63.34    -0.079 N 
ATOM     21  HN1 XQ7 A 603     -38.845 138.265   4.972  1.00  0.00     0.274 HD
ATOM     22  HN2 XQ7 A 603     -38.940 138.722   6.576  1.00  0.00     0.274 HD
ATOM     23  HN3 XQ7 A 603     -40.189 138.974   5.666  1.00  0.00     0.274 HD
ENDBRANCH  19  20
ENDBRANCH  18  19
ENDBRANCH  17  18
BRANCH  17  24
HETATM   24  O   XQ7 A 603     -42.398 139.190   6.092  1.00 70.80    -0.391 OA
ATOM     25  HO  XQ7 A 603     -41.580 139.418   5.666  1.00  0.00     0.210 HD
ENDBRANCH  17  24
ENDBRANCH   6  17
TORSDOF 8
