REMARK VINA RESULT:    -8.739      3.742      6.585
REMARK INTER + INTRA:         -16.197
REMARK INTER:                  -8.264
REMARK INTRA:                  -7.933
REMARK UNBOUND:                -7.458
REMARK  0 active torsions:
REMARK  status: ('A' for Active; 'I' for Inactive)
REMARK       I    between atoms: C9_8  and  C8_9 
REMARK       I    between atoms: C8_9  and  O1_10 
REMARK       I    between atoms: O1_10  and  C7_11 
REMARK       I    between atoms: C3_16  and  C2_17 
REMARK       I    between atoms: C2_17  and  O_18 
REMARK       I    between atoms: C2_17  and  C1_20 
REMARK       I    between atoms: C1_20  and  C_21 
REMARK       I    between atoms: C_21  and  N_22 
ROOT
HETATM    1  F1  XQ7 B 603     -37.189 132.852  10.264  1.00 89.50    -0.206 F 
HETATM    2  C12 XQ7 B 603     -37.930 133.934   9.848  1.00 90.63     0.243 C 
HETATM    3  F   XQ7 B 603     -36.991 134.874   9.487  1.00 90.25    -0.206 F 
HETATM    4  C11 XQ7 B 603     -38.742 133.552   8.648  1.00 89.14     0.079 C 
HETATM    5  C10 XQ7 B 603     -39.673 134.691   8.217  1.00 85.92     0.013 C 
HETATM    6  C13 XQ7 B 603     -38.741 134.454  10.993  1.00 88.46     0.079 C 
HETATM    7  C14 XQ7 B 603     -39.654 135.595  10.541  1.00 86.13     0.013 C 
HETATM    8  C9  XQ7 B 603     -40.545 135.181   9.374  1.00 81.25     0.010 C 
HETATM    9  C8  XQ7 B 603     -41.432 136.341   8.966  1.00 76.24     0.180 C 
HETATM   10  O1  XQ7 B 603     -40.630 137.253   8.198  1.00 68.93    -0.351 OA
HETATM   11  C7  XQ7 B 603     -41.090 138.515   7.894  1.00 64.09     0.069 A 
HETATM   12  C6  XQ7 B 603     -40.311 139.328   7.096  1.00 62.20     0.037 A 
HETATM   13  C5  XQ7 B 603     -40.779 140.579   6.742  1.00 61.57     0.003 A 
HETATM   14  C4  XQ7 B 603     -42.009 141.021   7.194  1.00 62.22     0.010 A 
HETATM   15  C15 XQ7 B 603     -42.329 138.953   8.351  1.00 62.13     0.046 A 
HETATM   16  C3  XQ7 B 603     -42.796 140.220   8.004  1.00 59.17    -0.027 A 
HETATM   17  C2  XQ7 B 603     -44.121 140.753   8.517  1.00 59.30     0.152 C 
HETATM   18  O   XQ7 B 603     -44.013 141.256   9.844  1.00 63.67    -0.391 OA
ATOM     19  HO  XQ7 B 603     -44.842 141.589  10.166  1.00  0.00     0.210 HD
HETATM   20  C1  XQ7 B 603     -45.250 139.735   8.452  1.00 56.81     0.064 C 
HETATM   21  C   XQ7 B 603     -46.601 140.360   8.767  1.00 56.65     0.232 C 
HETATM   22  N   XQ7 B 603     -46.839 140.607  10.185  1.00 54.87    -0.079 N 
ATOM     23  HN1 XQ7 B 603     -47.745 141.026  10.397  1.00  0.00     0.274 HD
ATOM     24  HN2 XQ7 B 603     -46.086 141.172  10.578  1.00  0.00     0.274 HD
ATOM     25  HN3 XQ7 B 603     -46.712 139.748  10.720  1.00  0.00     0.274 HD
ENDROOT
TORSDOF 8
