REMARK VINA RESULT:    -8.241      1.823      2.999
REMARK INTER + INTRA:         -19.911
REMARK INTER:                 -11.014
REMARK INTRA:                  -8.897
REMARK UNBOUND:                -8.298
REMARK  8 active torsions:
REMARK  status: ('A' for Active; 'I' for Inactive)
REMARK    1  A    between atoms: C9_8  and  C8_9 
REMARK    2  A    between atoms: C8_9  and  O1_10 
REMARK    3  A    between atoms: O1_10  and  C7_11 
REMARK    4  A    between atoms: C3_16  and  C2_17 
REMARK    5  A    between atoms: C2_17  and  C1_20 
REMARK    6  A    between atoms: C2_17  and  O_18 
REMARK    7  A    between atoms: C1_20  and  C_21 
REMARK    8  A    between atoms: C_21  and  N_22 
ROOT
HETATM    1  C7  XQ7 A 603     -40.719 137.135   7.680  1.00 66.72     0.069 A 
HETATM    2  C6  XQ7 A 603     -40.902 135.942   7.008  1.00 62.90     0.037 A 
HETATM    3  C5  XQ7 A 603     -40.408 134.774   7.558  1.00 63.00     0.003 A 
HETATM    4  C4  XQ7 A 603     -39.737 134.795   8.767  1.00 62.69     0.010 A 
HETATM    5  C15 XQ7 A 603     -40.043 137.163   8.898  1.00 64.77     0.046 A 
HETATM    6  C3  XQ7 A 603     -39.541 135.984   9.449  1.00 62.38    -0.027 A 
ENDROOT
BRANCH   1   7
HETATM    7  O1  XQ7 A 603     -41.215 138.293   7.123  1.00 71.35    -0.351 OA
BRANCH   7   8
HETATM    8  C8  XQ7 A 603     -42.589 138.366   6.706  1.00 80.50     0.180 C 
BRANCH   8   9
HETATM    9  C9  XQ7 A 603     -43.462 138.006   7.891  1.00 85.44     0.010 C 
HETATM   10  C10 XQ7 A 603     -44.283 139.189   8.390  1.00 88.77     0.013 C 
HETATM   11  C11 XQ7 A 603     -45.056 138.804   9.655  1.00 92.54     0.079 C 
HETATM   12  C12 XQ7 A 603     -45.872 137.560   9.466  1.00 93.77     0.243 C 
HETATM   13  F1  XQ7 A 603     -46.388 137.164  10.679  1.00 90.81    -0.206 F 
HETATM   14  F   XQ7 A 603     -46.981 137.855   8.705  1.00 97.78    -0.206 F 
HETATM   15  C13 XQ7 A 603     -45.136 136.413   8.844  1.00 90.87     0.079 C 
HETATM   16  C14 XQ7 A 603     -44.410 136.856   7.572  1.00 89.05     0.013 C 
ENDBRANCH   8   9
ENDBRANCH   7   8
ENDBRANCH   1   7
BRANCH   6  17
HETATM   17  C2  XQ7 A 603     -38.800 135.977  10.774  1.00 64.70     0.152 C 
BRANCH  17  18
HETATM   18  C1  XQ7 A 603     -39.204 134.824  11.692  1.00 63.76     0.064 C 
BRANCH  18  19
HETATM   19  C   XQ7 A 603     -38.034 134.096  12.344  1.00 64.49     0.232 C 
BRANCH  19  20
HETATM   20  N   XQ7 A 603     -37.227 133.270  11.451  1.00 63.34    -0.079 N 
ATOM     21  HN1 XQ7 A 603     -37.732 132.543  10.945  1.00  0.00     0.274 HD
ATOM     22  HN2 XQ7 A 603     -36.448 132.859  11.967  1.00  0.00     0.274 HD
ATOM     23  HN3 XQ7 A 603     -36.718 133.861  10.795  1.00  0.00     0.274 HD
ENDBRANCH  19  20
ENDBRANCH  18  19
ENDBRANCH  17  18
BRANCH  17  24
HETATM   24  O   XQ7 A 603     -37.388 135.974  10.591  1.00 70.80    -0.391 OA
ATOM     25  HO  XQ7 A 603     -37.061 136.866  10.595  1.00  0.00     0.210 HD
ENDBRANCH  17  24
ENDBRANCH   6  17
TORSDOF 8
