REMARK VINA RESULT:    -8.131      3.415      6.006
REMARK INTER + INTRA:         -19.757
REMARK INTER:                 -11.347
REMARK INTRA:                  -8.410
REMARK UNBOUND:                -8.298
REMARK  8 active torsions:
REMARK  status: ('A' for Active; 'I' for Inactive)
REMARK    1  A    between atoms: C9_8  and  C8_9 
REMARK    2  A    between atoms: C8_9  and  O1_10 
REMARK    3  A    between atoms: O1_10  and  C7_11 
REMARK    4  A    between atoms: C3_16  and  C2_17 
REMARK    5  A    between atoms: C2_17  and  C1_20 
REMARK    6  A    between atoms: C2_17  and  O_18 
REMARK    7  A    between atoms: C1_20  and  C_21 
REMARK    8  A    between atoms: C_21  and  N_22 
ROOT
HETATM    1  C7  XQ7 A 603     -40.127 136.795   8.315  1.00 66.72     0.069 A 
HETATM    2  C6  XQ7 A 603     -39.516 136.726   7.079  1.00 62.90     0.037 A 
HETATM    3  C5  XQ7 A 603     -40.293 136.776   5.936  1.00 63.00     0.003 A 
HETATM    4  C4  XQ7 A 603     -41.668 136.894   6.026  1.00 62.69     0.010 A 
HETATM    5  C15 XQ7 A 603     -41.512 136.915   8.412  1.00 64.77     0.046 A 
HETATM    6  C3  XQ7 A 603     -42.296 136.960   7.259  1.00 62.38    -0.027 A 
ENDROOT
BRANCH   1   7
HETATM    7  O1  XQ7 A 603     -39.343 136.744   9.447  1.00 71.35    -0.351 OA
BRANCH   7   8
HETATM    8  C8  XQ7 A 603     -39.605 135.766  10.467  1.00 80.50     0.180 C 
BRANCH   8   9
HETATM    9  C9  XQ7 A 603     -38.380 134.885  10.603  1.00 85.44     0.010 C 
HETATM   10  C10 XQ7 A 603     -38.397 134.058  11.882  1.00 88.77     0.013 C 
HETATM   11  C11 XQ7 A 603     -37.088 133.276  12.029  1.00 92.54     0.079 C 
HETATM   12  C12 XQ7 A 603     -36.773 132.464  10.807  1.00 93.77     0.243 C 
HETATM   13  F1  XQ7 A 603     -35.505 131.940  10.923  1.00 90.81    -0.206 F 
HETATM   14  F   XQ7 A 603     -37.595 131.360  10.771  1.00 97.78    -0.206 F 
HETATM   15  C13 XQ7 A 603     -36.883 133.207   9.512  1.00 90.87     0.079 C 
HETATM   16  C14 XQ7 A 603     -38.222 133.942   9.416  1.00 89.05     0.013 C 
ENDBRANCH   8   9
ENDBRANCH   7   8
ENDBRANCH   1   7
BRANCH   6  17
HETATM   17  C2  XQ7 A 603     -43.807 137.090   7.327  1.00 64.70     0.152 C 
BRANCH  17  18
HETATM   18  C1  XQ7 A 603     -44.443 136.227   8.415  1.00 63.76     0.064 C 
BRANCH  18  19
HETATM   19  C   XQ7 A 603     -45.829 136.685   8.856  1.00 64.49     0.232 C 
BRANCH  19  20
HETATM   20  N   XQ7 A 603     -45.855 137.763   9.840  1.00 63.34    -0.079 N 
ATOM     21  HN1 XQ7 A 603     -46.780 138.116  10.084  1.00  0.00     0.274 HD
ATOM     22  HN2 XQ7 A 603     -45.259 138.531   9.530  1.00  0.00     0.274 HD
ATOM     23  HN3 XQ7 A 603     -45.358 137.477  10.683  1.00  0.00     0.274 HD
ENDBRANCH  19  20
ENDBRANCH  18  19
ENDBRANCH  17  18
BRANCH  17  24
HETATM   24  O   XQ7 A 603     -44.214 138.445   7.488  1.00 70.80    -0.391 OA
ATOM     25  HO  XQ7 A 603     -44.621 138.756   6.688  1.00  0.00     0.210 HD
ENDBRANCH  17  24
ENDBRANCH   6  17
TORSDOF 8
