REMARK VINA RESULT:    -8.538      4.533      6.541
REMARK INTER + INTRA:         -15.996
REMARK INTER:                  -8.066
REMARK INTRA:                  -7.930
REMARK UNBOUND:                -7.458
REMARK  0 active torsions:
REMARK  status: ('A' for Active; 'I' for Inactive)
REMARK       I    between atoms: C9_8  and  C8_9 
REMARK       I    between atoms: C8_9  and  O1_10 
REMARK       I    between atoms: O1_10  and  C7_11 
REMARK       I    between atoms: C3_16  and  C2_17 
REMARK       I    between atoms: C2_17  and  O_18 
REMARK       I    between atoms: C2_17  and  C1_20 
REMARK       I    between atoms: C1_20  and  C_21 
REMARK       I    between atoms: C_21  and  N_22 
ROOT
HETATM    1  F1  XQ7 B 603     -49.212 138.126  15.658  1.00 89.50    -0.206 F 
HETATM    2  C12 XQ7 B 603     -48.454 138.036  14.512  1.00 90.63     0.243 C 
HETATM    3  F   XQ7 B 603     -48.565 136.718  14.131  1.00 90.25    -0.206 F 
HETATM    4  C11 XQ7 B 603     -49.044 138.915  13.452  1.00 89.14     0.079 C 
HETATM    5  C10 XQ7 B 603     -48.169 138.938  12.194  1.00 85.92     0.013 C 
HETATM    6  C13 XQ7 B 603     -47.025 138.343  14.833  1.00 88.46     0.079 C 
HETATM    7  C14 XQ7 B 603     -46.170 138.351  13.565  1.00 86.13     0.013 C 
HETATM    8  C9  XQ7 B 603     -46.721 139.311  12.515  1.00 81.25     0.010 C 
HETATM    9  C8  XQ7 B 603     -45.841 139.287  11.282  1.00 76.24     0.180 C 
HETATM   10  O1  XQ7 B 603     -46.157 138.096  10.545  1.00 68.93    -0.351 OA
HETATM   11  C7  XQ7 B 603     -45.357 137.673   9.507  1.00 64.09     0.069 A 
HETATM   12  C6  XQ7 B 603     -45.742 136.561   8.785  1.00 62.20     0.037 A 
HETATM   13  C5  XQ7 B 603     -44.975 136.152   7.710  1.00 61.57     0.003 A 
HETATM   14  C4  XQ7 B 603     -43.825 136.839   7.369  1.00 62.22     0.010 A 
HETATM   15  C15 XQ7 B 603     -44.201 138.369   9.166  1.00 62.13     0.046 A 
HETATM   16  C3  XQ7 B 603     -43.421 137.949   8.090  1.00 59.17    -0.027 A 
HETATM   17  C2  XQ7 B 603     -42.131 138.654   7.714  1.00 59.30     0.152 C 
HETATM   18  O   XQ7 B 603     -41.045 138.250   8.541  1.00 63.67    -0.391 OA
ATOM     19  HO  XQ7 B 603     -40.237 138.691   8.306  1.00  0.00     0.210 HD
HETATM   20  C1  XQ7 B 603     -42.241 140.171   7.728  1.00 56.81     0.064 C 
HETATM   21  C   XQ7 B 603     -41.007 140.839   7.142  1.00 56.65     0.232 C 
HETATM   22  N   XQ7 B 603     -39.852 140.866   8.032  1.00 54.87    -0.079 N 
ATOM     23  HN1 XQ7 B 603     -39.024 141.314   7.640  1.00  0.00     0.274 HD
ATOM     24  HN2 XQ7 B 603     -39.627 139.923   8.351  1.00  0.00     0.274 HD
ATOM     25  HN3 XQ7 B 603     -40.100 141.298   8.922  1.00  0.00     0.274 HD
ENDROOT
TORSDOF 8
