REMARK VINA RESULT:    -8.384      3.322      5.212
REMARK INTER + INTRA:         -16.019
REMARK INTER:                  -8.098
REMARK INTRA:                  -7.921
REMARK UNBOUND:                -7.634
REMARK  0 active torsions:
REMARK  status: ('A' for Active; 'I' for Inactive)
REMARK       I    between atoms: C9_8  and  C8_9 
REMARK       I    between atoms: C8_9  and  O1_10 
REMARK       I    between atoms: O1_10  and  C7_11 
REMARK       I    between atoms: C3_16  and  C2_17 
REMARK       I    between atoms: C2_17  and  C1_20 
REMARK       I    between atoms: C2_17  and  O_18 
REMARK       I    between atoms: C1_20  and  C_21 
REMARK       I    between atoms: C_21  and  N_22 
ROOT
HETATM    1  F1  XQ7 A 603     -46.024 145.542   9.012  1.00 90.81    -0.206 F 
HETATM    2  C12 XQ7 A 603     -45.869 144.246   8.574  1.00 93.77     0.243 C 
HETATM    3  F   XQ7 A 603     -46.989 143.594   9.040  1.00 97.78    -0.206 F 
HETATM    4  C11 XQ7 A 603     -45.871 144.224   7.074  1.00 92.54     0.079 C 
HETATM    5  C10 XQ7 A 603     -45.499 142.849   6.514  1.00 88.77     0.013 C 
HETATM    6  C13 XQ7 A 603     -44.649 143.653   9.210  1.00 90.87     0.079 C 
HETATM    7  C14 XQ7 A 603     -44.348 142.271   8.627  1.00 89.05     0.013 C 
HETATM    8  C9  XQ7 A 603     -44.183 142.371   7.116  1.00 85.44     0.010 C 
HETATM    9  C8  XQ7 A 603     -43.710 141.065   6.509  1.00 80.50     0.180 C 
HETATM   10  O1  XQ7 A 603     -44.306 139.986   7.248  1.00 71.35    -0.351 OA
HETATM   11  C7  XQ7 A 603     -43.698 138.751   7.286  1.00 66.72     0.069 A 
HETATM   12  C6  XQ7 A 603     -44.297 137.736   8.007  1.00 62.90     0.037 A 
HETATM   13  C5  XQ7 A 603     -43.695 136.491   8.051  1.00 63.00     0.003 A 
HETATM   14  C4  XQ7 A 603     -42.507 136.262   7.383  1.00 62.69     0.010 A 
HETATM   15  C15 XQ7 A 603     -42.500 138.525   6.610  1.00 64.77     0.046 A 
HETATM   16  C3  XQ7 A 603     -41.896 137.267   6.652  1.00 62.38    -0.027 A 
HETATM   17  C2  XQ7 A 603     -40.592 136.986   5.928  1.00 64.70     0.152 C 
HETATM   18  O   XQ7 A 603     -39.468 137.467   6.657  1.00 70.80    -0.391 OA
ATOM     19  HO  XQ7 A 603     -39.490 137.127   7.544  1.00  0.00     0.210 HD
HETATM   20  C1  XQ7 A 603     -40.556 137.534   4.502  1.00 63.76     0.064 C 
HETATM   21  C   XQ7 A 603     -39.181 137.500   3.846  1.00 64.49     0.232 C 
HETATM   22  N   XQ7 A 603     -38.145 136.785   4.586  1.00 63.34    -0.079 N 
ATOM     23  HN1 XQ7 A 603     -37.224 136.762   4.147  1.00  0.00     0.274 HD
ATOM     24  HN2 XQ7 A 603     -38.457 135.835   4.791  1.00  0.00     0.274 HD
ATOM     25  HN3 XQ7 A 603     -38.071 137.160   5.532  1.00  0.00     0.274 HD
ENDROOT
TORSDOF 8
