REMARK VINA RESULT:   -11.170      0.000      0.000
REMARK INTER + INTRA:         -18.805
REMARK INTER:                 -11.170
REMARK INTRA:                  -7.634
REMARK UNBOUND:                -7.634
REMARK  0 active torsions:
REMARK  status: ('A' for Active; 'I' for Inactive)
REMARK       I    between atoms: C9_8  and  C8_9 
REMARK       I    between atoms: C8_9  and  O1_10 
REMARK       I    between atoms: O1_10  and  C7_11 
REMARK       I    between atoms: C3_16  and  C2_17 
REMARK       I    between atoms: C2_17  and  C1_20 
REMARK       I    between atoms: C2_17  and  O_18 
REMARK       I    between atoms: C1_20  and  C_21 
REMARK       I    between atoms: C_21  and  N_22 
ROOT
HETATM    1  F1  XQ7 A 603     -43.799 139.922   7.330  1.00 90.81    -0.206 F 
HETATM    2  C12 XQ7 A 603     -43.272 138.865   8.037  1.00 93.77     0.243 C 
HETATM    3  F   XQ7 A 603     -43.841 138.975   9.287  1.00 97.78    -0.206 F 
HETATM    4  C11 XQ7 A 603     -43.711 137.577   7.405  1.00 92.54     0.079 C 
HETATM    5  C10 XQ7 A 603     -43.000 136.363   8.010  1.00 88.77     0.013 C 
HETATM    6  C13 XQ7 A 603     -41.789 139.036   8.150  1.00 90.87     0.079 C 
HETATM    7  C14 XQ7 A 603     -41.143 137.804   8.786  1.00 89.05     0.013 C 
HETATM    8  C9  XQ7 A 603     -41.490 136.561   7.974  1.00 85.44     0.010 C 
HETATM    9  C8  XQ7 A 603     -40.734 135.340   8.457  1.00 80.50     0.180 C 
HETATM   10  O1  XQ7 A 603     -40.596 135.434   9.884  1.00 71.35    -0.351 OA
HETATM   11  C7  XQ7 A 603     -39.560 134.790  10.525  1.00 66.72     0.069 A 
HETATM   12  C6  XQ7 A 603     -39.456 134.902  11.898  1.00 62.90     0.037 A 
HETATM   13  C5  XQ7 A 603     -38.420 134.260  12.553  1.00 63.00     0.003 A 
HETATM   14  C4  XQ7 A 603     -37.497 133.514  11.844  1.00 62.69     0.010 A 
HETATM   15  C15 XQ7 A 603     -38.633 134.039   9.806  1.00 64.77     0.046 A 
HETATM   16  C3  XQ7 A 603     -37.591 133.388  10.468  1.00 62.38    -0.027 A 
HETATM   17  C2  XQ7 A 603     -36.564 132.562   9.716  1.00 64.70     0.152 C 
HETATM   18  O   XQ7 A 603     -35.568 133.380   9.110  1.00 70.80    -0.391 OA
ATOM     19  HO  XQ7 A 603     -35.187 133.957   9.760  1.00  0.00     0.210 HD
HETATM   20  C1  XQ7 A 603     -37.177 131.633   8.669  1.00 63.76     0.064 C 
HETATM   21  C   XQ7 A 603     -36.167 130.990   7.725  1.00 64.49     0.232 C 
HETATM   22  N   XQ7 A 603     -34.763 131.196   8.067  1.00 63.34    -0.079 N 
ATOM     23  HN1 XQ7 A 603     -34.087 130.766   7.435  1.00  0.00     0.274 HD
ATOM     24  HN2 XQ7 A 603     -34.589 130.889   9.024  1.00  0.00     0.274 HD
ATOM     25  HN3 XQ7 A 603     -34.569 132.193   8.157  1.00  0.00     0.274 HD
ENDROOT
TORSDOF 8
