REMARK VINA RESULT:    -8.800      3.768      6.472
REMARK INTER + INTRA:         -16.435
REMARK INTER:                  -8.505
REMARK INTRA:                  -7.930
REMARK UNBOUND:                -7.634
REMARK  0 active torsions:
REMARK  status: ('A' for Active; 'I' for Inactive)
REMARK       I    between atoms: C9_8  and  C8_9 
REMARK       I    between atoms: C8_9  and  O1_10 
REMARK       I    between atoms: O1_10  and  C7_11 
REMARK       I    between atoms: C3_16  and  C2_17 
REMARK       I    between atoms: C2_17  and  C1_20 
REMARK       I    between atoms: C2_17  and  O_18 
REMARK       I    between atoms: C1_20  and  C_21 
REMARK       I    between atoms: C_21  and  N_22 
ROOT
HETATM    1  F1  XQ7 A 603     -37.428 132.443  10.159  1.00 90.81    -0.206 F 
HETATM    2  C12 XQ7 A 603     -37.938 133.627   9.675  1.00 93.77     0.243 C 
HETATM    3  F   XQ7 A 603     -36.827 134.335   9.271  1.00 97.78    -0.206 F 
HETATM    4  C11 XQ7 A 603     -38.806 133.345   8.485  1.00 92.54     0.079 C 
HETATM    5  C10 XQ7 A 603     -39.570 134.588   8.018  1.00 88.77     0.013 C 
HETATM    6  C13 XQ7 A 603     -38.617 134.365  10.789  1.00 90.87     0.079 C 
HETATM    7  C14 XQ7 A 603     -39.337 135.607  10.261  1.00 89.05     0.013 C 
HETATM    8  C9  XQ7 A 603     -40.335 135.207   9.181  1.00 85.44     0.010 C 
HETATM    9  C8  XQ7 A 603     -41.200 136.373   8.749  1.00 80.50     0.180 C 
HETATM   10  O1  XQ7 A 603     -40.399 137.566   8.792  1.00 71.35    -0.351 OA
HETATM   11  C7  XQ7 A 603     -40.994 138.797   8.960  1.00 66.72     0.069 A 
HETATM   12  C6  XQ7 A 603     -40.194 139.922   8.999  1.00 62.90     0.037 A 
HETATM   13  C5  XQ7 A 603     -40.781 141.164   9.167  1.00 63.00     0.003 A 
HETATM   14  C4  XQ7 A 603     -42.152 141.280   9.296  1.00 62.69     0.010 A 
HETATM   15  C15 XQ7 A 603     -42.377 138.909   9.090  1.00 64.77     0.046 A 
HETATM   16  C3  XQ7 A 603     -42.967 140.162   9.255  1.00 62.38    -0.027 A 
HETATM   17  C2  XQ7 A 603     -44.471 140.321   9.399  1.00 64.70     0.152 C 
HETATM   18  O   XQ7 A 603     -44.910 140.022  10.720  1.00 70.80    -0.391 OA
ATOM     19  HO  XQ7 A 603     -44.414 140.534  11.347  1.00  0.00     0.210 HD
HETATM   20  C1  XQ7 A 603     -45.269 139.497   8.390  1.00 63.76     0.064 C 
HETATM   21  C   XQ7 A 603     -46.766 139.429   8.673  1.00 64.49     0.232 C 
HETATM   22  N   XQ7 A 603     -47.248 140.302   9.739  1.00 63.34    -0.079 N 
ATOM     23  HN1 XQ7 A 603     -48.249 140.256   9.929  1.00  0.00     0.274 HD
ATOM     24  HN2 XQ7 A 603     -46.972 141.266   9.550  1.00  0.00     0.274 HD
ATOM     25  HN3 XQ7 A 603     -46.723 140.127  10.596  1.00  0.00     0.274 HD
ENDROOT
TORSDOF 8
