REMARK VINA RESULT:    -9.030      1.878      2.782
REMARK INTER + INTRA:         -16.665
REMARK INTER:                  -8.730
REMARK INTRA:                  -7.935
REMARK UNBOUND:                -7.634
REMARK  0 active torsions:
REMARK  status: ('A' for Active; 'I' for Inactive)
REMARK       I    between atoms: C9_8  and  C8_9 
REMARK       I    between atoms: C8_9  and  O1_10 
REMARK       I    between atoms: O1_10  and  C7_11 
REMARK       I    between atoms: C3_16  and  C2_17 
REMARK       I    between atoms: C2_17  and  C1_20 
REMARK       I    between atoms: C2_17  and  O_18 
REMARK       I    between atoms: C1_20  and  C_21 
REMARK       I    between atoms: C_21  and  N_22 
ROOT
HETATM    1  F1  XQ7 A 603     -43.886 139.267   6.877  1.00 90.81    -0.206 F 
HETATM    2  C12 XQ7 A 603     -42.777 138.464   7.023  1.00 93.77     0.243 C 
HETATM    3  F   XQ7 A 603     -42.553 137.963   5.759  1.00 97.78    -0.206 F 
HETATM    4  C11 XQ7 A 603     -41.606 139.304   7.437  1.00 92.54     0.079 C 
HETATM    5  C10 XQ7 A 603     -40.389 138.455   7.817  1.00 88.77     0.013 C 
HETATM    6  C13 XQ7 A 603     -43.103 137.336   7.952  1.00 90.87     0.079 C 
HETATM    7  C14 XQ7 A 603     -41.854 136.511   8.270  1.00 89.05     0.013 C 
HETATM    8  C9  XQ7 A 603     -40.776 137.412   8.860  1.00 85.44     0.010 C 
HETATM    9  C8  XQ7 A 603     -39.584 136.620   9.355  1.00 80.50     0.180 C 
HETATM   10  O1  XQ7 A 603     -39.393 135.500   8.475  1.00 71.35    -0.351 OA
HETATM   11  C7  XQ7 A 603     -38.762 134.361   8.926  1.00 66.72     0.069 A 
HETATM   12  C6  XQ7 A 603     -38.597 133.302   8.054  1.00 62.90     0.037 A 
HETATM   13  C5  XQ7 A 603     -37.966 132.154   8.496  1.00 63.00     0.003 A 
HETATM   14  C4  XQ7 A 603     -37.503 132.063   9.796  1.00 62.69     0.010 A 
HETATM   15  C15 XQ7 A 603     -38.299 134.274  10.237  1.00 64.77     0.046 A 
HETATM   16  C3  XQ7 A 603     -37.657 133.117  10.680  1.00 62.38    -0.027 A 
HETATM   17  C2  XQ7 A 603     -37.140 132.989  12.102  1.00 64.70     0.152 C 
HETATM   18  O   XQ7 A 603     -38.183 132.673  13.018  1.00 70.80    -0.391 OA
ATOM     19  HO  XQ7 A 603     -38.654 131.905  12.716  1.00  0.00     0.210 HD
HETATM   20  C1  XQ7 A 603     -36.382 134.223  12.588  1.00 63.76     0.064 C 
HETATM   21  C   XQ7 A 603     -36.080 134.232  14.082  1.00 64.49     0.232 C 
HETATM   22  N   XQ7 A 603     -36.381 132.995  14.795  1.00 63.34    -0.079 N 
ATOM     23  HN1 XQ7 A 603     -36.180 133.001  15.795  1.00  0.00     0.274 HD
ATOM     24  HN2 XQ7 A 603     -35.905 132.211  14.348  1.00  0.00     0.274 HD
ATOM     25  HN3 XQ7 A 603     -37.354 132.730  14.638  1.00  0.00     0.274 HD
ENDROOT
TORSDOF 8
