REMARK VINA RESULT:    -8.572      3.289      5.641
REMARK INTER + INTRA:         -20.568
REMARK INTER:                 -12.123
REMARK INTRA:                  -8.445
REMARK UNBOUND:                -8.488
REMARK  8 active torsions:
REMARK  status: ('A' for Active; 'I' for Inactive)
REMARK    1  A    between atoms: C9_8  and  C8_9 
REMARK    2  A    between atoms: C8_9  and  O1_10 
REMARK    3  A    between atoms: O1_10  and  C7_11 
REMARK    4  A    between atoms: C3_16  and  C2_17 
REMARK    5  A    between atoms: C2_17  and  O_18 
REMARK    6  A    between atoms: C2_17  and  C1_20 
REMARK    7  A    between atoms: C1_20  and  C_21 
REMARK    8  A    between atoms: C_21  and  N_22 
ROOT
HETATM    1  C7  XQ7 B 603     -40.535 135.729   7.648  1.00 64.09     0.069 A 
HETATM    2  C6  XQ7 B 603     -41.875 136.031   7.786  1.00 62.20     0.037 A 
HETATM    3  C5  XQ7 B 603     -42.464 136.919   6.905  1.00 61.57     0.003 A 
HETATM    4  C4  XQ7 B 603     -41.724 137.487   5.885  1.00 62.22     0.010 A 
HETATM    5  C15 XQ7 B 603     -39.785 136.300   6.624  1.00 62.13     0.046 A 
HETATM    6  C3  XQ7 B 603     -40.382 137.186   5.729  1.00 59.17    -0.027 A 
ENDROOT
BRANCH   1   7
HETATM    7  O1  XQ7 B 603     -39.952 134.880   8.563  1.00 68.93    -0.351 OA
BRANCH   7   8
HETATM    8  C8  XQ7 B 603     -39.569 135.351   9.865  1.00 76.24     0.180 C 
BRANCH   8   9
HETATM    9  C9  XQ7 B 603     -38.279 134.652  10.244  1.00 81.25     0.010 C 
HETATM   10  C14 XQ7 B 603     -37.935 133.594   9.200  1.00 86.13     0.013 C 
HETATM   11  C13 XQ7 B 603     -36.636 132.862   9.538  1.00 88.46     0.079 C 
HETATM   12  C12 XQ7 B 603     -36.696 132.271  10.911  1.00 90.63     0.243 C 
HETATM   13  F1  XQ7 B 603     -35.483 131.699  11.219  1.00 89.50    -0.206 F 
HETATM   14  F   XQ7 B 603     -37.583 131.217  10.917  1.00 90.25    -0.206 F 
HETATM   15  C11 XQ7 B 603     -37.075 133.249  11.980  1.00 89.14     0.079 C 
HETATM   16  C10 XQ7 B 603     -38.364 133.997  11.624  1.00 85.92     0.013 C 
ENDBRANCH   8   9
ENDBRANCH   7   8
ENDBRANCH   1   7
BRANCH   6  17
HETATM   17  C2  XQ7 B 603     -39.611 137.796   4.573  1.00 59.30     0.152 C 
BRANCH  17  18
HETATM   18  O   XQ7 B 603     -40.129 137.383   3.312  1.00 63.67    -0.391 OA
ATOM     19  HO  XQ7 B 603     -40.930 137.842   3.091  1.00  0.00     0.210 HD
ENDBRANCH  17  18
BRANCH  17  20
HETATM   20  C1  XQ7 B 603     -38.117 137.513   4.623  1.00 56.81     0.064 C 
BRANCH  20  21
HETATM   21  C   XQ7 B 603     -37.307 138.592   3.923  1.00 56.65     0.232 C 
BRANCH  21  22
HETATM   22  N   XQ7 B 603     -38.029 139.837   3.688  1.00 54.87    -0.079 N 
ATOM     23  HN1 XQ7 B 603     -37.875 140.557   4.394  1.00  0.00     0.274 HD
ATOM     24  HN2 XQ7 B 603     -39.027 139.653   3.581  1.00  0.00     0.274 HD
ATOM     25  HN3 XQ7 B 603     -37.817 140.200   2.759  1.00  0.00     0.274 HD
ENDBRANCH  21  22
ENDBRANCH  20  21
ENDBRANCH  17  20
ENDBRANCH   6  17
TORSDOF 8
