REMARK VINA RESULT:    -7.466      3.140      5.888
REMARK INTER + INTRA:         -19.009
REMARK INTER:                 -10.059
REMARK INTRA:                  -8.950
REMARK UNBOUND:                -8.488
REMARK  8 active torsions:
REMARK  status: ('A' for Active; 'I' for Inactive)
REMARK    1  A    between atoms: C9_8  and  C8_9 
REMARK    2  A    between atoms: C8_9  and  O1_10 
REMARK    3  A    between atoms: O1_10  and  C7_11 
REMARK    4  A    between atoms: C3_16  and  C2_17 
REMARK    5  A    between atoms: C2_17  and  O_18 
REMARK    6  A    between atoms: C2_17  and  C1_20 
REMARK    7  A    between atoms: C1_20  and  C_21 
REMARK    8  A    between atoms: C_21  and  N_22 
ROOT
HETATM    1  C7  XQ7 B 603     -43.715 136.753   7.720  1.00 64.09     0.069 A 
HETATM    2  C6  XQ7 B 603     -44.703 136.023   8.352  1.00 62.20     0.037 A 
HETATM    3  C5  XQ7 B 603     -45.691 136.688   9.054  1.00 61.57     0.003 A 
HETATM    4  C4  XQ7 B 603     -45.702 138.069   9.111  1.00 62.22     0.010 A 
HETATM    5  C15 XQ7 B 603     -43.720 138.143   7.776  1.00 62.13     0.046 A 
HETATM    6  C3  XQ7 B 603     -44.724 138.813   8.474  1.00 59.17    -0.027 A 
ENDROOT
BRANCH   1   7
HETATM    7  O1  XQ7 B 603     -42.711 136.075   7.066  1.00 68.93    -0.351 OA
BRANCH   7   8
HETATM    8  C8  XQ7 B 603     -41.341 136.489   7.187  1.00 76.24     0.180 C 
BRANCH   8   9
HETATM    9  C9  XQ7 B 603     -40.725 135.708   8.330  1.00 81.25     0.010 C 
HETATM   10  C14 XQ7 B 603     -40.437 136.642   9.502  1.00 86.13     0.013 C 
HETATM   11  C13 XQ7 B 603     -39.816 135.897  10.684  1.00 88.46     0.079 C 
HETATM   12  C12 XQ7 B 603     -38.585 135.158  10.263  1.00 90.63     0.243 C 
HETATM   13  F1  XQ7 B 603     -38.103 134.427  11.325  1.00 89.50    -0.206 F 
HETATM   14  F   XQ7 B 603     -37.582 136.060   9.985  1.00 90.25    -0.206 F 
HETATM   15  C11 XQ7 B 603     -38.787 134.256   9.084  1.00 89.14     0.079 C 
HETATM   16  C10 XQ7 B 603     -39.433 135.002   7.912  1.00 85.92     0.013 C 
ENDBRANCH   8   9
ENDBRANCH   7   8
ENDBRANCH   1   7
BRANCH   6  17
HETATM   17  C2  XQ7 B 603     -44.791 140.329   8.522  1.00 59.30     0.152 C 
BRANCH  17  18
HETATM   18  O   XQ7 B 603     -44.664 140.907   7.227  1.00 63.67    -0.391 OA
ATOM     19  HO  XQ7 B 603     -45.506 141.159   6.868  1.00  0.00     0.210 HD
ENDBRANCH  17  18
BRANCH  17  20
HETATM   20  C1  XQ7 B 603     -43.765 140.952   9.457  1.00 56.81     0.064 C 
BRANCH  20  21
HETATM   21  C   XQ7 B 603     -43.000 142.085   8.792  1.00 56.65     0.232 C 
BRANCH  21  22
HETATM   22  N   XQ7 B 603     -41.831 141.663   8.029  1.00 54.87    -0.079 N 
ATOM     23  HN1 XQ7 B 603     -41.883 140.713   7.664  1.00  0.00     0.274 HD
ATOM     24  HN2 XQ7 B 603     -40.983 141.784   8.583  1.00  0.00     0.274 HD
ATOM     25  HN3 XQ7 B 603     -41.644 142.323   7.275  1.00  0.00     0.274 HD
ENDBRANCH  21  22
ENDBRANCH  20  21
ENDBRANCH  17  20
ENDBRANCH   6  17
TORSDOF 8
