REMARK VINA RESULT:    -8.992      0.000      0.000
REMARK INTER + INTRA:         -21.159
REMARK INTER:                 -12.671
REMARK INTRA:                  -8.488
REMARK UNBOUND:                -8.488
REMARK  8 active torsions:
REMARK  status: ('A' for Active; 'I' for Inactive)
REMARK    1  A    between atoms: C9_8  and  C8_9 
REMARK    2  A    between atoms: C8_9  and  O1_10 
REMARK    3  A    between atoms: O1_10  and  C7_11 
REMARK    4  A    between atoms: C3_16  and  C2_17 
REMARK    5  A    between atoms: C2_17  and  O_18 
REMARK    6  A    between atoms: C2_17  and  C1_20 
REMARK    7  A    between atoms: C1_20  and  C_21 
REMARK    8  A    between atoms: C_21  and  N_22 
ROOT
HETATM    1  C7  XQ7 B 603     -39.181 135.797   9.487  1.00 64.09     0.069 A 
HETATM    2  C6  XQ7 B 603     -39.720 136.273  10.666  1.00 62.20     0.037 A 
HETATM    3  C5  XQ7 B 603     -39.480 135.591  11.844  1.00 61.57     0.003 A 
HETATM    4  C4  XQ7 B 603     -38.695 134.454  11.848  1.00 62.22     0.010 A 
HETATM    5  C15 XQ7 B 603     -38.391 134.651   9.485  1.00 62.13     0.046 A 
HETATM    6  C3  XQ7 B 603     -38.140 133.971  10.675  1.00 59.17    -0.027 A 
ENDROOT
BRANCH   1   7
HETATM    7  O1  XQ7 B 603     -39.469 136.460   8.315  1.00 68.93    -0.351 OA
BRANCH   7   8
HETATM    8  C8  XQ7 B 603     -40.127 135.787   7.229  1.00 76.24     0.180 C 
BRANCH   8   9
HETATM    9  C9  XQ7 B 603     -41.454 136.480   6.996  1.00 81.25     0.010 C 
HETATM   10  C14 XQ7 B 603     -41.273 137.992   7.091  1.00 86.13     0.013 C 
HETATM   11  C13 XQ7 B 603     -42.588 138.738   6.858  1.00 88.46     0.079 C 
HETATM   12  C12 XQ7 B 603     -43.649 138.257   7.798  1.00 90.63     0.243 C 
HETATM   13  F1  XQ7 B 603     -44.840 138.880   7.504  1.00 89.50    -0.206 F 
HETATM   14  F   XQ7 B 603     -43.350 138.674   9.076  1.00 90.25    -0.206 F 
HETATM   15  C11 XQ7 B 603     -43.845 136.772   7.789  1.00 89.14     0.079 C 
HETATM   16  C10 XQ7 B 603     -42.520 136.031   7.998  1.00 85.92     0.013 C 
ENDBRANCH   8   9
ENDBRANCH   7   8
ENDBRANCH   1   7
BRANCH   6  17
HETATM   17  C2  XQ7 B 603     -37.248 132.744  10.722  1.00 59.30     0.152 C 
BRANCH  17  18
HETATM   18  O   XQ7 B 603     -36.351 132.781  11.827  1.00 63.67    -0.391 OA
ATOM     19  HO  XQ7 B 603     -36.474 133.559  12.357  1.00  0.00     0.210 HD
ENDBRANCH  17  18
BRANCH  17  20
HETATM   20  C1  XQ7 B 603     -36.462 132.515   9.440  1.00 56.81     0.064 C 
BRANCH  20  21
HETATM   21  C   XQ7 B 603     -37.237 131.671   8.439  1.00 56.65     0.232 C 
BRANCH  21  22
HETATM   22  N   XQ7 B 603     -36.524 131.398   7.196  1.00 54.87    -0.079 N 
ATOM     23  HN1 XQ7 B 603     -35.548 131.128   7.317  1.00  0.00     0.274 HD
ATOM     24  HN2 XQ7 B 603     -36.596 132.194   6.563  1.00  0.00     0.274 HD
ATOM     25  HN3 XQ7 B 603     -37.021 130.694   6.650  1.00  0.00     0.274 HD
ENDBRANCH  21  22
ENDBRANCH  20  21
ENDBRANCH  17  20
ENDBRANCH   6  17
TORSDOF 8
