REMARK VINA RESULT:    -8.406      3.766      5.743
REMARK INTER + INTRA:         -15.865
REMARK INTER:                  -7.941
REMARK INTRA:                  -7.924
REMARK UNBOUND:                -7.458
REMARK  0 active torsions:
REMARK  status: ('A' for Active; 'I' for Inactive)
REMARK       I    between atoms: C9_8  and  C8_9 
REMARK       I    between atoms: C8_9  and  O1_10 
REMARK       I    between atoms: O1_10  and  C7_11 
REMARK       I    between atoms: C3_16  and  C2_17 
REMARK       I    between atoms: C2_17  and  O_18 
REMARK       I    between atoms: C2_17  and  C1_20 
REMARK       I    between atoms: C1_20  and  C_21 
REMARK       I    between atoms: C_21  and  N_22 
ROOT
HETATM    1  F1  XQ7 B 603     -46.636 144.365  13.134  1.00 89.50    -0.206 F 
HETATM    2  C12 XQ7 B 603     -46.268 143.281  12.371  1.00 90.63     0.243 C 
HETATM    3  F   XQ7 B 603     -46.903 142.212  12.964  1.00 90.25    -0.206 F 
HETATM    4  C11 XQ7 B 603     -46.779 143.454  10.974  1.00 89.14     0.079 C 
HETATM    5  C10 XQ7 B 603     -46.295 142.326  10.056  1.00 85.92     0.013 C 
HETATM    6  C13 XQ7 B 603     -44.786 143.089  12.459  1.00 88.46     0.079 C 
HETATM    7  C14 XQ7 B 603     -44.327 141.953  11.543  1.00 86.13     0.013 C 
HETATM    8  C9  XQ7 B 603     -44.774 142.171  10.100  1.00 81.25     0.010 C 
HETATM    9  C8  XQ7 B 603     -44.294 141.024   9.234  1.00 76.24     0.180 C 
HETATM   10  O1  XQ7 B 603     -45.164 139.906   9.469  1.00 68.93    -0.351 OA
HETATM   11  C7  XQ7 B 603     -44.840 138.649   9.011  1.00 64.09     0.069 A 
HETATM   12  C6  XQ7 B 603     -45.742 137.621   9.203  1.00 62.20     0.037 A 
HETATM   13  C5  XQ7 B 603     -45.454 136.365   8.706  1.00 61.57     0.003 A 
HETATM   14  C4  XQ7 B 603     -44.266 136.131   8.038  1.00 62.22     0.010 A 
HETATM   15  C15 XQ7 B 603     -43.644 138.420   8.336  1.00 62.13     0.046 A 
HETATM   16  C3  XQ7 B 603     -43.348 137.149   7.846  1.00 59.17    -0.027 A 
HETATM   17  C2  XQ7 B 603     -42.036 136.848   7.145  1.00 59.30     0.152 C 
HETATM   18  O   XQ7 B 603     -40.975 136.640   8.070  1.00 63.67    -0.391 OA
ATOM     19  HO  XQ7 B 603     -40.154 136.452   7.631  1.00  0.00     0.210 HD
HETATM   20  C1  XQ7 B 603     -41.629 137.913   6.137  1.00 56.81     0.064 C 
HETATM   21  C   XQ7 B 603     -40.433 137.481   5.303  1.00 56.65     0.232 C 
HETATM   22  N   XQ7 B 603     -39.149 137.570   5.989  1.00 54.87    -0.079 N 
ATOM     23  HN1 XQ7 B 603     -38.347 137.280   5.430  1.00  0.00     0.274 HD
ATOM     24  HN2 XQ7 B 603     -39.179 137.046   6.864  1.00  0.00     0.274 HD
ATOM     25  HN3 XQ7 B 603     -39.007 138.512   6.353  1.00  0.00     0.274 HD
ENDROOT
TORSDOF 8
