REMARK VINA RESULT:    -8.286      3.025      5.611
REMARK INTER + INTRA:         -20.165
REMARK INTER:                 -11.344
REMARK INTRA:                  -8.822
REMARK UNBOUND:                -8.488
REMARK  8 active torsions:
REMARK  status: ('A' for Active; 'I' for Inactive)
REMARK    1  A    between atoms: C9_8  and  C8_9 
REMARK    2  A    between atoms: C8_9  and  O1_10 
REMARK    3  A    between atoms: O1_10  and  C7_11 
REMARK    4  A    between atoms: C3_16  and  C2_17 
REMARK    5  A    between atoms: C2_17  and  O_18 
REMARK    6  A    between atoms: C2_17  and  C1_20 
REMARK    7  A    between atoms: C1_20  and  C_21 
REMARK    8  A    between atoms: C_21  and  N_22 
ROOT
HETATM    1  C7  XQ7 B 603     -41.771 136.246   7.589  1.00 64.09     0.069 A 
HETATM    2  C6  XQ7 B 603     -43.062 136.016   8.024  1.00 62.20     0.037 A 
HETATM    3  C5  XQ7 B 603     -43.979 137.049   7.999  1.00 61.57     0.003 A 
HETATM    4  C4  XQ7 B 603     -43.617 138.297   7.527  1.00 62.22     0.010 A 
HETATM    5  C15 XQ7 B 603     -41.401 137.502   7.115  1.00 62.13     0.046 A 
HETATM    6  C3  XQ7 B 603     -42.330 138.539   7.078  1.00 59.17    -0.027 A 
ENDROOT
BRANCH   1   7
HETATM    7  O1  XQ7 B 603     -40.856 135.221   7.667  1.00 68.93    -0.351 OA
BRANCH   7   8
HETATM    8  C8  XQ7 B 603     -39.518 135.460   8.130  1.00 76.24     0.180 C 
BRANCH   8   9
HETATM    9  C9  XQ7 B 603     -39.335 134.691   9.423  1.00 81.25     0.010 C 
HETATM   10  C14 XQ7 B 603     -39.695 135.580  10.610  1.00 86.13     0.013 C 
HETATM   11  C13 XQ7 B 603     -39.530 134.846  11.942  1.00 88.46     0.079 C 
HETATM   12  C12 XQ7 B 603     -38.147 134.290  12.078  1.00 90.63     0.243 C 
HETATM   13  F1  XQ7 B 603     -38.058 133.560  13.241  1.00 89.50    -0.206 F 
HETATM   14  F   XQ7 B 603     -37.254 135.324  12.253  1.00 90.25    -0.206 F 
HETATM   15  C11 XQ7 B 603     -37.712 133.444  10.921  1.00 89.14     0.079 C 
HETATM   16  C10 XQ7 B 603     -37.904 134.176   9.588  1.00 85.92     0.013 C 
ENDBRANCH   8   9
ENDBRANCH   7   8
ENDBRANCH   1   7
BRANCH   6  17
HETATM   17  C2  XQ7 B 603     -41.978 139.909   6.528  1.00 59.30     0.152 C 
BRANCH  17  18
HETATM   18  O   XQ7 B 603     -40.690 139.923   5.922  1.00 63.67    -0.391 OA
ATOM     19  HO  XQ7 B 603     -40.465 140.783   5.586  1.00  0.00     0.210 HD
ENDBRANCH  17  18
BRANCH  17  20
HETATM   20  C1  XQ7 B 603     -42.062 141.020   7.564  1.00 56.81     0.064 C 
BRANCH  20  21
HETATM   21  C   XQ7 B 603     -41.139 140.769   8.746  1.00 56.65     0.232 C 
BRANCH  21  22
HETATM   22  N   XQ7 B 603     -39.717 140.814   8.425  1.00 54.87    -0.079 N 
ATOM     23  HN1 XQ7 B 603     -39.183 140.005   8.744  1.00  0.00     0.274 HD
ATOM     24  HN2 XQ7 B 603     -39.300 141.675   8.778  1.00  0.00     0.274 HD
ATOM     25  HN3 XQ7 B 603     -39.584 140.952   7.423  1.00  0.00     0.274 HD
ENDBRANCH  21  22
ENDBRANCH  20  21
ENDBRANCH  17  20
ENDBRANCH   6  17
TORSDOF 8
