REMARK VINA RESULT:    -8.064      3.235      5.882
REMARK INTER + INTRA:         -19.852
REMARK INTER:                 -11.076
REMARK INTRA:                  -8.776
REMARK UNBOUND:                -8.488
REMARK  8 active torsions:
REMARK  status: ('A' for Active; 'I' for Inactive)
REMARK    1  A    between atoms: C9_8  and  C8_9 
REMARK    2  A    between atoms: C8_9  and  O1_10 
REMARK    3  A    between atoms: O1_10  and  C7_11 
REMARK    4  A    between atoms: C3_16  and  C2_17 
REMARK    5  A    between atoms: C2_17  and  O_18 
REMARK    6  A    between atoms: C2_17  and  C1_20 
REMARK    7  A    between atoms: C1_20  and  C_21 
REMARK    8  A    between atoms: C_21  and  N_22 
ROOT
HETATM    1  C7  XQ7 B 603     -41.746 136.351   7.366  1.00 64.09     0.069 A 
HETATM    2  C6  XQ7 B 603     -41.572 137.475   6.583  1.00 62.20     0.037 A 
HETATM    3  C5  XQ7 B 603     -42.559 138.442   6.557  1.00 61.57     0.003 A 
HETATM    4  C4  XQ7 B 603     -43.703 138.296   7.320  1.00 62.22     0.010 A 
HETATM    5  C15 XQ7 B 603     -42.896 136.198   8.135  1.00 62.13     0.046 A 
HETATM    6  C3  XQ7 B 603     -43.886 137.180   8.117  1.00 59.17    -0.027 A 
ENDROOT
BRANCH   1   7
HETATM    7  O1  XQ7 B 603     -40.775 135.375   7.344  1.00 68.93    -0.351 OA
BRANCH   7   8
HETATM    8  C8  XQ7 B 603     -39.467 135.623   7.883  1.00 76.24     0.180 C 
BRANCH   8   9
HETATM    9  C9  XQ7 B 603     -39.357 134.863   9.189  1.00 81.25     0.010 C 
HETATM   10  C14 XQ7 B 603     -39.767 135.765  10.350  1.00 86.13     0.013 C 
HETATM   11  C13 XQ7 B 603     -39.676 135.041  11.694  1.00 88.46     0.079 C 
HETATM   12  C12 XQ7 B 603     -38.307 134.474  11.903  1.00 90.63     0.243 C 
HETATM   13  F1  XQ7 B 603     -38.283 133.753  13.075  1.00 89.50    -0.206 F 
HETATM   14  F   XQ7 B 603     -37.414 135.501  12.115  1.00 90.25    -0.206 F 
HETATM   15  C11 XQ7 B 603     -37.823 133.614  10.776  1.00 89.14     0.079 C 
HETATM   16  C10 XQ7 B 603     -37.941 134.337   9.430  1.00 85.92     0.013 C 
ENDBRANCH   8   9
ENDBRANCH   7   8
ENDBRANCH   1   7
BRANCH   6  17
HETATM   17  C2  XQ7 B 603     -45.134 137.072   8.974  1.00 59.30     0.152 C 
BRANCH  17  18
HETATM   18  O   XQ7 B 603     -45.837 135.856   8.739  1.00 63.67    -0.391 OA
ATOM     19  HO  XQ7 B 603     -45.439 135.123   9.193  1.00  0.00     0.210 HD
ENDBRANCH  17  18
BRANCH  17  20
HETATM   20  C1  XQ7 B 603     -46.087 138.247   8.810  1.00 56.81     0.064 C 
BRANCH  20  21
HETATM   21  C   XQ7 B 603     -46.735 138.645  10.127  1.00 56.65     0.232 C 
BRANCH  21  22
HETATM   22  N   XQ7 B 603     -46.378 137.798  11.260  1.00 54.87    -0.079 N 
ATOM     23  HN1 XQ7 B 603     -46.823 138.057  12.140  1.00  0.00     0.274 HD
ATOM     24  HN2 XQ7 B 603     -45.365 137.764  11.370  1.00  0.00     0.274 HD
ATOM     25  HN3 XQ7 B 603     -46.565 136.819  11.043  1.00  0.00     0.274 HD
ENDBRANCH  21  22
ENDBRANCH  20  21
ENDBRANCH  17  20
ENDBRANCH   6  17
TORSDOF 8
