REMARK VINA RESULT:    -8.193      1.646      2.577
REMARK INTER + INTRA:         -19.844
REMARK INTER:                 -11.158
REMARK INTRA:                  -8.686
REMARK UNBOUND:                -8.298
REMARK  8 active torsions:
REMARK  status: ('A' for Active; 'I' for Inactive)
REMARK    1  A    between atoms: C9_8  and  C8_9 
REMARK    2  A    between atoms: C8_9  and  O1_10 
REMARK    3  A    between atoms: O1_10  and  C7_11 
REMARK    4  A    between atoms: C3_16  and  C2_17 
REMARK    5  A    between atoms: C2_17  and  C1_20 
REMARK    6  A    between atoms: C2_17  and  O_18 
REMARK    7  A    between atoms: C1_20  and  C_21 
REMARK    8  A    between atoms: C_21  and  N_22 
ROOT
HETATM    1  C7  XQ7 A 603     -39.084 133.864   8.293  1.00 66.72     0.069 A 
HETATM    2  C6  XQ7 A 603     -38.874 132.674   7.624  1.00 62.90     0.037 A 
HETATM    3  C5  XQ7 A 603     -38.049 131.718   8.188  1.00 63.00     0.003 A 
HETATM    4  C4  XQ7 A 603     -37.439 131.947   9.407  1.00 62.69     0.010 A 
HETATM    5  C15 XQ7 A 603     -38.472 134.100   9.522  1.00 64.77     0.046 A 
HETATM    6  C3  XQ7 A 603     -37.636 133.137  10.087  1.00 62.38    -0.027 A 
ENDROOT
BRANCH   1   7
HETATM    7  O1  XQ7 A 603     -39.908 134.809   7.722  1.00 71.35    -0.351 OA
BRANCH   7   8
HETATM    8  C8  XQ7 A 603     -39.805 136.189   8.109  1.00 80.50     0.180 C 
BRANCH   8   9
HETATM    9  C9  XQ7 A 603     -41.207 136.746   8.252  1.00 85.44     0.010 C 
HETATM   10  C10 XQ7 A 603     -41.217 138.261   8.417  1.00 88.77     0.013 C 
HETATM   11  C11 XQ7 A 603     -42.643 138.758   8.674  1.00 92.54     0.079 C 
HETATM   12  C12 XQ7 A 603     -43.609 138.273   7.635  1.00 93.77     0.243 C 
HETATM   13  F1  XQ7 A 603     -44.892 138.592   8.021  1.00 90.81    -0.206 F 
HETATM   14  F   XQ7 A 603     -43.419 138.983   6.470  1.00 97.78    -0.206 F 
HETATM   15  C13 XQ7 A 603     -43.532 136.807   7.340  1.00 90.87     0.079 C 
HETATM   16  C14 XQ7 A 603     -42.089 136.380   7.065  1.00 89.05     0.013 C 
ENDBRANCH   8   9
ENDBRANCH   7   8
ENDBRANCH   1   7
BRANCH   6  17
HETATM   17  C2  XQ7 A 603     -36.953 133.362  11.424  1.00 64.70     0.152 C 
BRANCH  17  18
HETATM   18  C1  XQ7 A 603     -37.877 133.951  12.489  1.00 63.76     0.064 C 
BRANCH  18  19
HETATM   19  C   XQ7 A 603     -37.459 133.653  13.924  1.00 64.49     0.232 C 
BRANCH  19  20
HETATM   20  N   XQ7 A 603     -36.076 133.977  14.260  1.00 63.34    -0.079 N 
ATOM     21  HN1 XQ7 A 603     -35.692 133.491  15.071  1.00  0.00     0.274 HD
ATOM     22  HN2 XQ7 A 603     -35.973 134.985  14.377  1.00  0.00     0.274 HD
ATOM     23  HN3 XQ7 A 603     -35.476 133.826  13.448  1.00  0.00     0.274 HD
ENDBRANCH  19  20
ENDBRANCH  18  19
ENDBRANCH  17  18
BRANCH  17  24
HETATM   24  O   XQ7 A 603     -36.350 132.169  11.917  1.00 70.80    -0.391 OA
ATOM     25  HO  XQ7 A 603     -35.432 132.325  12.101  1.00  0.00     0.210 HD
ENDBRANCH  17  24
ENDBRANCH   6  17
TORSDOF 8
