REMARK VINA RESULT:    -8.162      1.631      2.266
REMARK INTER + INTRA:         -19.800
REMARK INTER:                 -11.619
REMARK INTRA:                  -8.182
REMARK UNBOUND:                -8.298
REMARK  8 active torsions:
REMARK  status: ('A' for Active; 'I' for Inactive)
REMARK    1  A    between atoms: C9_8  and  C8_9 
REMARK    2  A    between atoms: C8_9  and  O1_10 
REMARK    3  A    between atoms: O1_10  and  C7_11 
REMARK    4  A    between atoms: C3_16  and  C2_17 
REMARK    5  A    between atoms: C2_17  and  C1_20 
REMARK    6  A    between atoms: C2_17  and  O_18 
REMARK    7  A    between atoms: C1_20  and  C_21 
REMARK    8  A    between atoms: C_21  and  N_22 
ROOT
HETATM    1  C7  XQ7 A 603     -40.529 135.504   8.438  1.00 66.72     0.069 A 
HETATM    2  C6  XQ7 A 603     -40.427 136.253   9.594  1.00 62.90     0.037 A 
HETATM    3  C5  XQ7 A 603     -39.442 135.944  10.515  1.00 63.00     0.003 A 
HETATM    4  C4  XQ7 A 603     -38.567 134.899  10.284  1.00 62.69     0.010 A 
HETATM    5  C15 XQ7 A 603     -39.650 134.449   8.200  1.00 64.77     0.046 A 
HETATM    6  C3  XQ7 A 603     -38.660 134.136   9.132  1.00 62.38    -0.027 A 
ENDROOT
BRANCH   1   7
HETATM    7  O1  XQ7 A 603     -41.513 135.820   7.528  1.00 71.35    -0.351 OA
BRANCH   7   8
HETATM    8  C8  XQ7 A 603     -41.848 137.194   7.269  1.00 80.50     0.180 C 
BRANCH   8   9
HETATM    9  C9  XQ7 A 603     -43.329 137.376   7.526  1.00 85.44     0.010 C 
HETATM   10  C10 XQ7 A 603     -43.942 136.191   8.262  1.00 88.77     0.013 C 
HETATM   11  C11 XQ7 A 603     -45.458 136.372   8.392  1.00 92.54     0.079 C 
HETATM   12  C12 XQ7 A 603     -45.821 137.694   9.000  1.00 93.77     0.243 C 
HETATM   13  F1  XQ7 A 603     -47.184 137.874   8.917  1.00 90.81    -0.206 F 
HETATM   14  F   XQ7 A 603     -45.565 137.658  10.353  1.00 97.78    -0.206 F 
HETATM   15  C13 XQ7 A 603     -45.129 138.876   8.396  1.00 90.87     0.079 C 
HETATM   16  C14 XQ7 A 603     -43.619 138.645   8.320  1.00 89.05     0.013 C 
ENDBRANCH   8   9
ENDBRANCH   7   8
ENDBRANCH   1   7
BRANCH   6  17
HETATM   17  C2  XQ7 A 603     -37.686 132.994   8.906  1.00 64.70     0.152 C 
BRANCH  17  18
HETATM   18  C1  XQ7 A 603     -37.547 132.065  10.110  1.00 63.76     0.064 C 
BRANCH  18  19
HETATM   19  C   XQ7 A 603     -36.266 132.259  10.914  1.00 64.49     0.232 C 
BRANCH  19  20
HETATM   20  N   XQ7 A 603     -36.428 132.893  12.219  1.00 63.34    -0.079 N 
ATOM     21  HN1 XQ7 A 603     -37.158 133.603  12.278  1.00  0.00     0.274 HD
ATOM     22  HN2 XQ7 A 603     -35.538 133.282  12.530  1.00  0.00     0.274 HD
ATOM     23  HN3 XQ7 A 603     -36.576 132.182  12.935  1.00  0.00     0.274 HD
ENDBRANCH  19  20
ENDBRANCH  18  19
ENDBRANCH  17  18
BRANCH  17  24
HETATM   24  O   XQ7 A 603     -38.021 132.235   7.748  1.00 70.80    -0.391 OA
ATOM     25  HO  XQ7 A 603     -37.235 131.850   7.378  1.00  0.00     0.210 HD
ENDBRANCH  17  24
ENDBRANCH   6  17
TORSDOF 8
