REMARK VINA RESULT:    -7.667      3.165      5.971
REMARK INTER + INTRA:         -19.103
REMARK INTER:                 -10.097
REMARK INTRA:                  -9.006
REMARK UNBOUND:                -8.298
REMARK  8 active torsions:
REMARK  status: ('A' for Active; 'I' for Inactive)
REMARK    1  A    between atoms: C9_8  and  C8_9 
REMARK    2  A    between atoms: C8_9  and  O1_10 
REMARK    3  A    between atoms: O1_10  and  C7_11 
REMARK    4  A    between atoms: C3_16  and  C2_17 
REMARK    5  A    between atoms: C2_17  and  C1_20 
REMARK    6  A    between atoms: C2_17  and  O_18 
REMARK    7  A    between atoms: C1_20  and  C_21 
REMARK    8  A    between atoms: C_21  and  N_22 
ROOT
HETATM    1  C7  XQ7 A 603     -43.812 136.949   7.605  1.00 66.72     0.069 A 
HETATM    2  C6  XQ7 A 603     -44.748 136.206   8.299  1.00 62.90     0.037 A 
HETATM    3  C5  XQ7 A 603     -45.689 136.858   9.074  1.00 63.00     0.003 A 
HETATM    4  C4  XQ7 A 603     -45.696 138.238   9.157  1.00 62.69     0.010 A 
HETATM    5  C15 XQ7 A 603     -43.815 138.340   7.684  1.00 64.77     0.046 A 
HETATM    6  C3  XQ7 A 603     -44.762 138.996   8.471  1.00 62.38    -0.027 A 
ENDROOT
BRANCH   1   7
HETATM    7  O1  XQ7 A 603     -42.879 136.289   6.836  1.00 71.35    -0.351 OA
BRANCH   7   8
HETATM    8  C8  XQ7 A 603     -41.681 136.961   6.413  1.00 80.50     0.180 C 
BRANCH   8   9
HETATM    9  C9  XQ7 A 603     -40.529 136.444   7.250  1.00 85.44     0.010 C 
HETATM   10  C10 XQ7 A 603     -40.323 137.258   8.522  1.00 88.77     0.013 C 
HETATM   11  C11 XQ7 A 603     -39.079 136.770   9.270  1.00 92.54     0.079 C 
HETATM   12  C12 XQ7 A 603     -39.110 135.291   9.517  1.00 93.77     0.243 C 
HETATM   13  F1  XQ7 A 603     -37.893 134.887  10.019  1.00 90.81    -0.206 F 
HETATM   14  F   XQ7 A 603     -40.002 135.017  10.530  1.00 97.78    -0.206 F 
HETATM   15  C13 XQ7 A 603     -39.450 134.459   8.319  1.00 90.87     0.079 C 
HETATM   16  C14 XQ7 A 603     -40.715 134.981   7.634  1.00 89.05     0.013 C 
ENDBRANCH   8   9
ENDBRANCH   7   8
ENDBRANCH   1   7
BRANCH   6  17
HETATM   17  C2  XQ7 A 603     -44.794 140.510   8.581  1.00 64.70     0.152 C 
BRANCH  17  18
HETATM   18  C1  XQ7 A 603     -43.697 141.079   9.479  1.00 63.76     0.064 C 
BRANCH  18  19
HETATM   19  C   XQ7 A 603     -42.807 142.120   8.808  1.00 64.49     0.232 C 
BRANCH  19  20
HETATM   20  N   XQ7 A 603     -41.737 141.590   7.969  1.00 63.34    -0.079 N 
ATOM     21  HN1 XQ7 A 603     -41.752 141.888   6.994  1.00  0.00     0.274 HD
ATOM     22  HN2 XQ7 A 603     -41.726 140.571   8.022  1.00  0.00     0.274 HD
ATOM     23  HN3 XQ7 A 603     -40.830 141.803   8.385  1.00  0.00     0.274 HD
ENDBRANCH  19  20
ENDBRANCH  18  19
ENDBRANCH  17  18
BRANCH  17  24
HETATM   24  O   XQ7 A 603     -44.742 141.134   7.302  1.00 70.80    -0.391 OA
ATOM     25  HO  XQ7 A 603     -45.472 141.734   7.207  1.00  0.00     0.210 HD
ENDBRANCH  17  24
ENDBRANCH   6  17
TORSDOF 8
