REMARK VINA RESULT:    -9.974      3.613      6.268
REMARK INTER + INTRA:         -17.608
REMARK INTER:                  -9.781
REMARK INTRA:                  -7.827
REMARK UNBOUND:                -7.634
REMARK  0 active torsions:
REMARK  status: ('A' for Active; 'I' for Inactive)
REMARK       I    between atoms: C9_8  and  C8_9 
REMARK       I    between atoms: C8_9  and  O1_10 
REMARK       I    between atoms: O1_10  and  C7_11 
REMARK       I    between atoms: C3_16  and  C2_17 
REMARK       I    between atoms: C2_17  and  C1_20 
REMARK       I    between atoms: C2_17  and  O_18 
REMARK       I    between atoms: C1_20  and  C_21 
REMARK       I    between atoms: C_21  and  N_22 
ROOT
HETATM    1  F1  XQ7 A 603     -35.596 132.144  10.995  1.00 90.81    -0.206 F 
HETATM    2  C12 XQ7 A 603     -36.828 132.715  10.764  1.00 93.77     0.243 C 
HETATM    3  F   XQ7 A 603     -37.620 131.662  10.364  1.00 97.78    -0.206 F 
HETATM    4  C11 XQ7 A 603     -37.362 133.277  12.048  1.00 92.54     0.079 C 
HETATM    5  C10 XQ7 A 603     -38.631 134.107  11.832  1.00 88.77     0.013 C 
HETATM    6  C13 XQ7 A 603     -36.712 133.702   9.644  1.00 90.87     0.079 C 
HETATM    7  C14 XQ7 A 603     -38.019 134.477   9.463  1.00 89.05     0.013 C 
HETATM    8  C9  XQ7 A 603     -38.394 135.171  10.767  1.00 85.44     0.010 C 
HETATM    9  C8  XQ7 A 603     -39.582 136.094  10.596  1.00 80.50     0.180 C 
HETATM   10  O1  XQ7 A 603     -40.477 135.501   9.640  1.00 71.35    -0.351 OA
HETATM   11  C7  XQ7 A 603     -41.337 136.292   8.910  1.00 66.72     0.069 A 
HETATM   12  C6  XQ7 A 603     -42.182 135.690   7.998  1.00 62.90     0.037 A 
HETATM   13  C5  XQ7 A 603     -43.051 136.474   7.261  1.00 63.00     0.003 A 
HETATM   14  C4  XQ7 A 603     -43.076 137.845   7.431  1.00 62.69     0.010 A 
HETATM   15  C15 XQ7 A 603     -41.358 137.674   9.086  1.00 64.77     0.046 A 
HETATM   16  C3  XQ7 A 603     -42.238 138.463   8.345  1.00 62.38    -0.027 A 
HETATM   17  C2  XQ7 A 603     -42.288 139.971   8.511  1.00 64.70     0.152 C 
HETATM   18  O   XQ7 A 603     -41.232 140.616   7.805  1.00 70.80    -0.391 OA
ATOM     19  HO  XQ7 A 603     -41.233 140.335   6.898  1.00  0.00     0.210 HD
HETATM   20  C1  XQ7 A 603     -42.285 140.424   9.970  1.00 63.76     0.064 C 
HETATM   21  C   XQ7 A 603     -42.071 141.920  10.167  1.00 64.49     0.232 C 
HETATM   22  N   XQ7 A 603     -42.089 142.727   8.951  1.00 63.34    -0.079 N 
ATOM     23  HN1 XQ7 A 603     -41.945 143.729   9.083  1.00  0.00     0.274 HD
ATOM     24  HN2 XQ7 A 603     -42.956 142.564   8.439  1.00  0.00     0.274 HD
ATOM     25  HN3 XQ7 A 603     -41.411 142.364   8.282  1.00  0.00     0.274 HD
ENDROOT
TORSDOF 8
