REMARK VINA RESULT:    -7.938      1.824      2.992
REMARK INTER + INTRA:         -19.674
REMARK INTER:                 -10.779
REMARK INTRA:                  -8.895
REMARK UNBOUND:                -8.488
REMARK  8 active torsions:
REMARK  status: ('A' for Active; 'I' for Inactive)
REMARK    1  A    between atoms: C9_8  and  C8_9 
REMARK    2  A    between atoms: C8_9  and  O1_10 
REMARK    3  A    between atoms: O1_10  and  C7_11 
REMARK    4  A    between atoms: C3_16  and  C2_17 
REMARK    5  A    between atoms: C2_17  and  O_18 
REMARK    6  A    between atoms: C2_17  and  C1_20 
REMARK    7  A    between atoms: C1_20  and  C_21 
REMARK    8  A    between atoms: C_21  and  N_22 
ROOT
HETATM    1  C7  XQ7 B 603     -40.909 137.141   7.702  1.00 64.09     0.069 A 
HETATM    2  C6  XQ7 B 603     -41.130 135.958   7.027  1.00 62.20     0.037 A 
HETATM    3  C5  XQ7 B 603     -40.554 134.792   7.496  1.00 61.57     0.003 A 
HETATM    4  C4  XQ7 B 603     -39.778 134.805   8.639  1.00 62.22     0.010 A 
HETATM    5  C15 XQ7 B 603     -40.126 137.160   8.853  1.00 62.13     0.046 A 
HETATM    6  C3  XQ7 B 603     -39.556 135.982   9.333  1.00 59.17    -0.027 A 
ENDROOT
BRANCH   1   7
HETATM    7  O1  XQ7 B 603     -41.449 138.302   7.195  1.00 68.93    -0.351 OA
BRANCH   7   8
HETATM    8  C8  XQ7 B 603     -42.846 138.385   6.871  1.00 76.24     0.180 C 
BRANCH   8   9
HETATM    9  C9  XQ7 B 603     -43.629 138.115   8.140  1.00 81.25     0.010 C 
HETATM   10  C14 XQ7 B 603     -44.624 136.982   7.905  1.00 86.13     0.013 C 
HETATM   11  C13 XQ7 B 603     -45.437 136.670   9.162  1.00 88.46     0.079 C 
HETATM   12  C12 XQ7 B 603     -46.122 137.898   9.674  1.00 90.63     0.243 C 
HETATM   13  F1  XQ7 B 603     -46.770 137.605  10.853  1.00 89.50    -0.206 F 
HETATM   14  F   XQ7 B 603     -47.132 138.254   8.808  1.00 90.25    -0.206 F 
HETATM   15  C11 XQ7 B 603     -45.207 139.065   9.883  1.00 89.14     0.079 C 
HETATM   16  C10 XQ7 B 603     -44.377 139.357   8.628  1.00 85.92     0.013 C 
ENDBRANCH   8   9
ENDBRANCH   7   8
ENDBRANCH   1   7
BRANCH   6  17
HETATM   17  C2  XQ7 B 603     -38.734 135.953  10.608  1.00 59.30     0.152 C 
BRANCH  17  18
HETATM   18  O   XQ7 B 603     -37.337 135.904  10.338  1.00 63.67    -0.391 OA
ATOM     19  HO  XQ7 B 603     -36.872 135.365  10.968  1.00  0.00     0.210 HD
ENDBRANCH  17  18
BRANCH  17  20
HETATM   20  C1  XQ7 B 603     -39.108 134.814  11.546  1.00 56.81     0.064 C 
BRANCH  20  21
HETATM   21  C   XQ7 B 603     -37.977 133.810  11.704  1.00 56.65     0.232 C 
BRANCH  21  22
HETATM   22  N   XQ7 B 603     -37.049 134.107  12.788  1.00 54.87    -0.079 N 
ATOM     23  HN1 XQ7 B 603     -36.079 133.855  12.599  1.00  0.00     0.274 HD
ATOM     24  HN2 XQ7 B 603     -37.365 133.672  13.655  1.00  0.00     0.274 HD
ATOM     25  HN3 XQ7 B 603     -37.114 135.090  13.051  1.00  0.00     0.274 HD
ENDBRANCH  21  22
ENDBRANCH  20  21
ENDBRANCH  17  20
ENDBRANCH   6  17
TORSDOF 8
