REMARK VINA RESULT:    -7.680      3.305      5.993
REMARK INTER + INTRA:         -19.310
REMARK INTER:                 -10.903
REMARK INTRA:                  -8.408
REMARK UNBOUND:                -8.488
REMARK  8 active torsions:
REMARK  status: ('A' for Active; 'I' for Inactive)
REMARK    1  A    between atoms: C9_8  and  C8_9 
REMARK    2  A    between atoms: C8_9  and  O1_10 
REMARK    3  A    between atoms: O1_10  and  C7_11 
REMARK    4  A    between atoms: C3_16  and  C2_17 
REMARK    5  A    between atoms: C2_17  and  O_18 
REMARK    6  A    between atoms: C2_17  and  C1_20 
REMARK    7  A    between atoms: C1_20  and  C_21 
REMARK    8  A    between atoms: C_21  and  N_22 
ROOT
HETATM    1  C7  XQ7 B 603     -40.833 135.750   8.309  1.00 64.09     0.069 A 
HETATM    2  C6  XQ7 B 603     -39.984 136.008   7.251  1.00 62.20     0.037 A 
HETATM    3  C5  XQ7 B 603     -40.443 136.753   6.181  1.00 61.57     0.003 A 
HETATM    4  C4  XQ7 B 603     -41.733 137.250   6.175  1.00 62.22     0.010 A 
HETATM    5  C15 XQ7 B 603     -42.134 136.245   8.307  1.00 62.13     0.046 A 
HETATM    6  C3  XQ7 B 603     -42.592 137.007   7.233  1.00 59.17    -0.027 A 
ENDROOT
BRANCH   1   7
HETATM    7  O1  XQ7 B 603     -40.377 134.965   9.345  1.00 68.93    -0.351 OA
BRANCH   7   8
HETATM    8  C8  XQ7 B 603     -39.744 135.554  10.492  1.00 76.24     0.180 C 
BRANCH   8   9
HETATM    9  C9  XQ7 B 603     -38.419 134.849  10.698  1.00 81.25     0.010 C 
HETATM   10  C14 XQ7 B 603     -38.143 133.910   9.527  1.00 86.13     0.013 C 
HETATM   11  C13 XQ7 B 603     -36.811 133.176   9.688  1.00 88.46     0.079 C 
HETATM   12  C12 XQ7 B 603     -36.757 132.447  10.994  1.00 90.63     0.243 C 
HETATM   13  F1  XQ7 B 603     -35.516 131.873  11.148  1.00 89.50    -0.206 F 
HETATM   14  F   XQ7 B 603     -37.626 131.379  10.958  1.00 90.25    -0.206 F 
HETATM   15  C11 XQ7 B 603     -37.065 133.302  12.184  1.00 89.14     0.079 C 
HETATM   16  C10 XQ7 B 603     -38.389 134.054  12.006  1.00 85.92     0.013 C 
ENDBRANCH   8   9
ENDBRANCH   7   8
ENDBRANCH   1   7
BRANCH   6  17
HETATM   17  C2  XQ7 B 603     -43.987 137.603   7.213  1.00 59.30     0.152 C 
BRANCH  17  18
HETATM   18  O   XQ7 B 603     -43.970 138.984   6.866  1.00 63.67    -0.391 OA
ATOM     19  HO  XQ7 B 603     -43.510 139.506   7.513  1.00  0.00     0.210 HD
ENDBRANCH  17  18
BRANCH  17  20
HETATM   20  C1  XQ7 B 603     -44.745 137.418   8.519  1.00 56.81     0.064 C 
BRANCH  20  21
HETATM   21  C   XQ7 B 603     -45.193 138.745   9.112  1.00 56.65     0.232 C 
BRANCH  21  22
HETATM   22  N   XQ7 B 603     -44.119 139.545   9.691  1.00 54.87    -0.079 N 
ATOM     23  HN1 XQ7 B 603     -43.373 139.789   9.039  1.00  0.00     0.274 HD
ATOM     24  HN2 XQ7 B 603     -43.733 139.079  10.512  1.00  0.00     0.274 HD
ATOM     25  HN3 XQ7 B 603     -44.498 140.385  10.127  1.00  0.00     0.274 HD
ENDBRANCH  21  22
ENDBRANCH  20  21
ENDBRANCH  17  20
ENDBRANCH   6  17
TORSDOF 8
