MODEL 1
REMARK VINA RESULT:    -8.087      0.000      0.000
REMARK INTER + INTRA:         -16.044
REMARK INTER:                  -8.087
REMARK INTRA:                  -7.958
REMARK UNBOUND:                -7.958
REMARK  0 active torsions:
REMARK  status: ('A' for Active; 'I' for Inactive)
REMARK       I    between atoms: C1_1  and  C2_4 
REMARK       I    between atoms: C2_4  and  C3_5 
REMARK       I    between atoms: C3_5  and  C4_6 
REMARK       I    between atoms: C4_6  and  C5_7 
REMARK       I    between atoms: C5_7  and  C6_8 
REMARK       I    between atoms: C6_8  and  C7_9 
REMARK       I    between atoms: C7_9  and  C8_10 
REMARK       I    between atoms: C8_10  and  C9_11 
REMARK       I    between atoms: C9_11  and  CA_12 
REMARK       I    between atoms: CA_12  and  CB_13 
REMARK       I    between atoms: CB_13  and  CC_14 
REMARK       I    between atoms: CC_14  and  CD_15 
REMARK       I    between atoms: CD_15  and  CE_16 
REMARK       I    between atoms: CE_16  and  CF_17 
ROOT
HETATM    1  C1  PLM A 602     -38.377 134.918  12.105  1.00 67.00     0.172 C 
HETATM    2  O1  PLM A 602     -37.209 135.357  12.134  1.00 67.82    -0.648 OA
HETATM    3  O2  PLM A 602     -38.705 133.748  12.439  1.00 60.21    -0.648 OA
HETATM    4  C2  PLM A 602     -39.461 135.841  11.593  1.00 66.32     0.113 C 
HETATM    5  C3  PLM A 602     -40.176 135.284  10.415  1.00 69.45     0.010 C 
HETATM    6  C4  PLM A 602     -39.394 135.433   9.121  1.00 68.61     0.001 C 
HETATM    7  C5  PLM A 602     -40.066 136.319   8.106  1.00 67.98     0.000 C 
HETATM    8  C6  PLM A 602     -41.342 135.749   7.538  1.00 66.51     0.000 C 
HETATM    9  C7  PLM A 602     -41.756 136.348   6.216  1.00 65.92     0.000 C 
HETATM   10  C8  PLM A 602     -41.666 137.852   6.150  1.00 63.91     0.000 C 
HETATM   11  C9  PLM A 602     -42.435 138.564   7.229  1.00 63.09     0.000 C 
HETATM   12  CA  PLM A 602     -42.265 140.056   7.236  1.00 60.21     0.000 C 
HETATM   13  CB  PLM A 602     -42.502 140.666   8.585  1.00 61.66     0.000 C 
HETATM   14  CC  PLM A 602     -42.445 142.171   8.610  1.00 61.80     0.000 C 
HETATM   15  CD  PLM A 602     -42.684 142.792   9.967  1.00 61.53     0.000 C 
HETATM   16  CE  PLM A 602     -43.794 142.157  10.770  1.00 61.91    -0.000 C 
HETATM   17  CF  PLM A 602     -43.357 141.028  11.673  1.00 62.58    -0.005 C 
HETATM   18  CG  PLM A 602     -44.387 140.623  12.698  1.00 63.16     0.005 C 
ENDROOT
TORSDOF 14
BEGIN_RES PHE A  61
REMARK  2 active torsions:
REMARK  status: ('A' for Active; 'I' for Inactive)
REMARK    1  A    between atoms: CA   and  CB  
REMARK    2  A    between atoms: CB   and  CG  
ROOT
ATOM      1  CA  PHE A  61     -36.237 128.293  12.768  1.00 39.40     0.164 C 
ENDROOT
BRANCH   1   2
ATOM      2  CB  PHE A  61     -36.813 128.951  11.509  1.00 39.41     0.058 C 
BRANCH   2   3
ATOM      3  CG  PHE A  61     -35.856 129.011  10.343  1.00 39.01    -0.020 A 
ATOM      4  CD2 PHE A  61     -36.102 128.295   9.182  1.00 40.32    -0.004 A 
ATOM      5  CE2 PHE A  61     -35.219 128.349   8.111  1.00 40.20    -0.000 A 
ATOM      6  CZ  PHE A  61     -34.083 129.122   8.187  1.00 40.34    -0.000 A 
ATOM      7  CE1 PHE A  61     -33.824 129.841   9.333  1.00 41.51    -0.000 A 
ATOM      8  CD1 PHE A  61     -34.704 129.782  10.406  1.00 39.94    -0.004 A 
ENDBRANCH   2   3
ENDBRANCH   1   2
END_RES PHE A  61
BEGIN_RES VAL A 134
REMARK  1 active torsions:
REMARK  status: ('A' for Active; 'I' for Inactive)
REMARK    3  A    between atoms: CA   and  CB  
ROOT
ATOM      9  CA  VAL A 134     -29.766 132.051   9.815  1.00 40.75     0.159 C 
ENDROOT
BRANCH   9  10
ATOM     10  CB  VAL A 134     -30.864 132.765   9.009  1.00 40.76     0.029 C 
ATOM     11  CG1 VAL A 134     -31.211 131.975   7.756  1.00 41.76     0.002 C 
ATOM     12  CG2 VAL A 134     -32.105 133.016   9.851  1.00 40.56     0.002 C 
ENDBRANCH   9  10
END_RES VAL A 134
BEGIN_RES TYR A 338
REMARK  3 active torsions:
REMARK  status: ('A' for Active; 'I' for Inactive)
REMARK    4  A    between atoms: CA   and  CB  
REMARK    5  A    between atoms: CB   and  CG  
REMARK    6  A    between atoms: CZ   and  OH  
ROOT
ATOM     13  CA  TYR A 338     -41.631 124.950   6.058  1.00 38.23     0.164 C 
ENDROOT
BRANCH  13  14
ATOM     14  CB  TYR A 338     -41.621 126.456   6.339  1.00 39.15     0.058 C 
BRANCH  14  15
ATOM     15  CG  TYR A 338     -40.339 127.179   5.995  1.00 39.03    -0.020 A 
ATOM     16  CD2 TYR A 338     -40.103 128.455   6.478  1.00 40.65    -0.002 A 
ATOM     17  CE2 TYR A 338     -38.946 129.154   6.170  1.00 40.91     0.024 A 
ATOM     18  CZ  TYR A 338     -37.990 128.574   5.357  1.00 42.33     0.089 A 
ATOM     19  CE1 TYR A 338     -38.201 127.297   4.866  1.00 40.63     0.024 A 
ATOM     20  CD1 TYR A 338     -39.371 126.621   5.175  1.00 39.27    -0.002 A 
BRANCH  18  21
ATOM     21  OH  TYR A 338     -36.843 129.252   5.050  1.00 43.36    -0.359 OA
ATOM     22  HH  TYR A 338     -36.873 130.180   4.849  1.00  0.00     0.217 HD
ENDBRANCH  18  21
ENDBRANCH  14  15
ENDBRANCH  13  14
END_RES TYR A 338
ENDMDL
MODEL 2
REMARK VINA RESULT:    -7.788      3.376      5.832
REMARK INTER + INTRA:         -15.746
REMARK INTER:                  -7.840
REMARK INTRA:                  -7.906
REMARK UNBOUND:                -7.958
REMARK  0 active torsions:
REMARK  status: ('A' for Active; 'I' for Inactive)
REMARK       I    between atoms: C1_1  and  C2_4 
REMARK       I    between atoms: C2_4  and  C3_5 
REMARK       I    between atoms: C3_5  and  C4_6 
REMARK       I    between atoms: C4_6  and  C5_7 
REMARK       I    between atoms: C5_7  and  C6_8 
REMARK       I    between atoms: C6_8  and  C7_9 
REMARK       I    between atoms: C7_9  and  C8_10 
REMARK       I    between atoms: C8_10  and  C9_11 
REMARK       I    between atoms: C9_11  and  CA_12 
REMARK       I    between atoms: CA_12  and  CB_13 
REMARK       I    between atoms: CB_13  and  CC_14 
REMARK       I    between atoms: CC_14  and  CD_15 
REMARK       I    between atoms: CD_15  and  CE_16 
REMARK       I    between atoms: CE_16  and  CF_17 
ROOT
HETATM    1  C1  PLM A 602     -37.571 138.825   3.741  1.00 67.00     0.172 C 
HETATM    2  O1  PLM A 602     -37.127 139.901   4.189  1.00 67.82    -0.648 OA
HETATM    3  O2  PLM A 602     -37.772 138.593   2.518  1.00 60.21    -0.648 OA
HETATM    4  C2  PLM A 602     -37.932 137.745   4.737  1.00 66.32     0.113 C 
HETATM    5  C3  PLM A 602     -39.358 137.337   4.646  1.00 69.45     0.010 C 
HETATM    6  C4  PLM A 602     -40.301 138.319   5.320  1.00 68.61     0.001 C 
HETATM    7  C5  PLM A 602     -41.039 137.738   6.496  1.00 67.98     0.000 C 
HETATM    8  C6  PLM A 602     -42.042 136.673   6.131  1.00 66.51     0.000 C 
HETATM    9  C7  PLM A 602     -43.107 136.436   7.175  1.00 65.92     0.000 C 
HETATM   10  C8  PLM A 602     -42.594 136.344   8.590  1.00 63.91     0.000 C 
HETATM   11  C9  PLM A 602     -41.526 135.304   8.791  1.00 63.09     0.000 C 
HETATM   12  CA  PLM A 602     -40.932 135.278  10.171  1.00 60.21     0.000 C 
HETATM   13  CB  PLM A 602     -39.541 134.721  10.200  1.00 61.66     0.000 C 
HETATM   14  CC  PLM A 602     -38.952 134.579  11.578  1.00 61.80     0.000 C 
HETATM   15  CD  PLM A 602     -37.550 134.016  11.614  1.00 61.53     0.000 C 
HETATM   16  CE  PLM A 602     -37.302 132.867  10.666  1.00 61.91    -0.000 C 
HETATM   17  CF  PLM A 602     -36.805 133.270   9.298  1.00 62.58    -0.005 C 
HETATM   18  CG  PLM A 602     -36.254 132.129   8.479  1.00 63.16     0.005 C 
ENDROOT
TORSDOF 14
BEGIN_RES PHE A  61
REMARK  2 active torsions:
REMARK  status: ('A' for Active; 'I' for Inactive)
REMARK    1  A    between atoms: CA   and  CB  
REMARK    2  A    between atoms: CB   and  CG  
ROOT
ATOM      1  CA  PHE A  61     -36.237 128.293  12.768  1.00 39.40     0.164 C 
ENDROOT
BRANCH   1   2
ATOM      2  CB  PHE A  61     -36.813 128.951  11.509  1.00 39.41     0.058 C 
BRANCH   2   3
ATOM      3  CG  PHE A  61     -35.866 128.984  10.333  1.00 39.01    -0.020 A 
ATOM      4  CD2 PHE A  61     -34.631 129.605  10.431  1.00 40.32    -0.004 A 
ATOM      5  CE2 PHE A  61     -33.762 129.638   9.348  1.00 40.20    -0.000 A 
ATOM      6  CZ  PHE A  61     -34.116 129.046   8.156  1.00 40.34    -0.000 A 
ATOM      7  CE1 PHE A  61     -35.339 128.423   8.043  1.00 41.51    -0.000 A 
ATOM      8  CD1 PHE A  61     -36.211 128.396   9.124  1.00 39.94    -0.004 A 
ENDBRANCH   2   3
ENDBRANCH   1   2
END_RES PHE A  61
BEGIN_RES VAL A 134
REMARK  1 active torsions:
REMARK  status: ('A' for Active; 'I' for Inactive)
REMARK    3  A    between atoms: CA   and  CB  
ROOT
ATOM      9  CA  VAL A 134     -29.766 132.051   9.815  1.00 40.75     0.159 C 
ENDROOT
BRANCH   9  10
ATOM     10  CB  VAL A 134     -30.864 132.765   9.009  1.00 40.76     0.029 C 
ATOM     11  CG1 VAL A 134     -31.192 131.989   7.742  1.00 41.76     0.002 C 
ATOM     12  CG2 VAL A 134     -32.116 132.991   9.843  1.00 40.56     0.002 C 
ENDBRANCH   9  10
END_RES VAL A 134
BEGIN_RES TYR A 338
REMARK  3 active torsions:
REMARK  status: ('A' for Active; 'I' for Inactive)
REMARK    4  A    between atoms: CA   and  CB  
REMARK    5  A    between atoms: CB   and  CG  
REMARK    6  A    between atoms: CZ   and  OH  
ROOT
ATOM     13  CA  TYR A 338     -41.631 124.950   6.058  1.00 38.23     0.164 C 
ENDROOT
BRANCH  13  14
ATOM     14  CB  TYR A 338     -41.621 126.456   6.339  1.00 39.15     0.058 C 
BRANCH  14  15
ATOM     15  CG  TYR A 338     -40.342 127.181   5.986  1.00 39.03    -0.020 A 
ATOM     16  CD2 TYR A 338     -40.105 128.457   6.468  1.00 40.65    -0.002 A 
ATOM     17  CE2 TYR A 338     -38.951 129.157   6.152  1.00 40.91     0.024 A 
ATOM     18  CZ  TYR A 338     -38.000 128.579   5.332  1.00 42.33     0.089 A 
ATOM     19  CE1 TYR A 338     -38.212 127.302   4.842  1.00 40.63     0.024 A 
ATOM     20  CD1 TYR A 338     -39.379 126.624   5.159  1.00 39.27    -0.002 A 
BRANCH  18  21
ATOM     21  OH  TYR A 338     -36.856 129.258   5.017  1.00 43.36    -0.359 OA
ATOM     22  HH  TYR A 338     -36.470 129.175   4.153  1.00  0.00     0.217 HD
ENDBRANCH  18  21
ENDBRANCH  14  15
ENDBRANCH  13  14
END_RES TYR A 338
ENDMDL
MODEL 3
REMARK VINA RESULT:    -7.404      3.191      5.708
REMARK INTER + INTRA:         -15.362
REMARK INTER:                  -7.431
REMARK INTRA:                  -7.932
REMARK UNBOUND:                -7.958
REMARK  0 active torsions:
REMARK  status: ('A' for Active; 'I' for Inactive)
REMARK       I    between atoms: C1_1  and  C2_4 
REMARK       I    between atoms: C2_4  and  C3_5 
REMARK       I    between atoms: C3_5  and  C4_6 
REMARK       I    between atoms: C4_6  and  C5_7 
REMARK       I    between atoms: C5_7  and  C6_8 
REMARK       I    between atoms: C6_8  and  C7_9 
REMARK       I    between atoms: C7_9  and  C8_10 
REMARK       I    between atoms: C8_10  and  C9_11 
REMARK       I    between atoms: C9_11  and  CA_12 
REMARK       I    between atoms: CA_12  and  CB_13 
REMARK       I    between atoms: CB_13  and  CC_14 
REMARK       I    between atoms: CC_14  and  CD_15 
REMARK       I    between atoms: CD_15  and  CE_16 
REMARK       I    between atoms: CE_16  and  CF_17 
ROOT
HETATM    1  C1  PLM A 602     -42.852 143.941  10.084  1.00 67.00     0.172 C 
HETATM    2  O1  PLM A 602     -42.400 143.986  11.246  1.00 67.82    -0.648 OA
HETATM    3  O2  PLM A 602     -43.399 144.914   9.496  1.00 60.21    -0.648 OA
HETATM    4  C2  PLM A 602     -42.776 142.620   9.350  1.00 66.32     0.113 C 
HETATM    5  C3  PLM A 602     -44.111 142.122   8.931  1.00 69.45     0.010 C 
HETATM    6  C4  PLM A 602     -44.891 141.483  10.068  1.00 68.61     0.001 C 
HETATM    7  C5  PLM A 602     -45.165 140.017   9.864  1.00 67.98     0.000 C 
HETATM    8  C6  PLM A 602     -46.121 139.719   8.736  1.00 66.51     0.000 C 
HETATM    9  C7  PLM A 602     -46.779 138.363   8.821  1.00 65.92     0.000 C 
HETATM   10  C8  PLM A 602     -45.846 137.228   9.157  1.00 63.91     0.000 C 
HETATM   11  C9  PLM A 602     -44.670 137.101   8.228  1.00 63.09     0.000 C 
HETATM   12  CA  PLM A 602     -43.677 136.043   8.617  1.00 60.21     0.000 C 
HETATM   13  CB  PLM A 602     -42.298 136.313   8.097  1.00 61.66     0.000 C 
HETATM   14  CC  PLM A 602     -41.299 135.222   8.375  1.00 61.80     0.000 C 
HETATM   15  CD  PLM A 602     -39.906 135.488   7.852  1.00 61.53     0.000 C 
HETATM   16  CE  PLM A 602     -39.851 136.100   6.472  1.00 61.91    -0.000 C 
HETATM   17  CF  PLM A 602     -39.848 137.610   6.449  1.00 62.58    -0.005 C 
HETATM   18  CG  PLM A 602     -39.468 138.207   5.116  1.00 63.16     0.005 C 
ENDROOT
TORSDOF 14
BEGIN_RES PHE A  61
REMARK  2 active torsions:
REMARK  status: ('A' for Active; 'I' for Inactive)
REMARK    1  A    between atoms: CA   and  CB  
REMARK    2  A    between atoms: CB   and  CG  
ROOT
ATOM      1  CA  PHE A  61     -36.237 128.293  12.768  1.00 39.40     0.164 C 
ENDROOT
BRANCH   1   2
ATOM      2  CB  PHE A  61     -36.813 128.951  11.509  1.00 39.41     0.058 C 
BRANCH   2   3
ATOM      3  CG  PHE A  61     -35.867 128.982  10.333  1.00 39.01    -0.020 A 
ATOM      4  CD2 PHE A  61     -36.120 128.230   9.196  1.00 40.32    -0.004 A 
ATOM      5  CE2 PHE A  61     -35.247 128.256   8.116  1.00 40.20    -0.000 A 
ATOM      6  CZ  PHE A  61     -34.114 129.038   8.158  1.00 40.34    -0.000 A 
ATOM      7  CE1 PHE A  61     -33.850 129.793   9.279  1.00 41.51    -0.000 A 
ATOM      8  CD1 PHE A  61     -34.719 129.761  10.362  1.00 39.94    -0.004 A 
ENDBRANCH   2   3
ENDBRANCH   1   2
END_RES PHE A  61
BEGIN_RES VAL A 134
REMARK  1 active torsions:
REMARK  status: ('A' for Active; 'I' for Inactive)
REMARK    3  A    between atoms: CA   and  CB  
ROOT
ATOM      9  CA  VAL A 134     -29.766 132.051   9.815  1.00 40.75     0.159 C 
ENDROOT
BRANCH   9  10
ATOM     10  CB  VAL A 134     -30.864 132.765   9.009  1.00 40.76     0.029 C 
ATOM     11  CG1 VAL A 134     -31.211 131.975   7.756  1.00 41.76     0.002 C 
ATOM     12  CG2 VAL A 134     -32.105 133.015   9.851  1.00 40.56     0.002 C 
ENDBRANCH   9  10
END_RES VAL A 134
BEGIN_RES TYR A 338
REMARK  3 active torsions:
REMARK  status: ('A' for Active; 'I' for Inactive)
REMARK    4  A    between atoms: CA   and  CB  
REMARK    5  A    between atoms: CB   and  CG  
REMARK    6  A    between atoms: CZ   and  OH  
ROOT
ATOM     13  CA  TYR A 338     -41.631 124.950   6.058  1.00 38.23     0.164 C 
ENDROOT
BRANCH  13  14
ATOM     14  CB  TYR A 338     -41.621 126.456   6.339  1.00 39.15     0.058 C 
BRANCH  14  15
ATOM     15  CG  TYR A 338     -40.329 127.174   6.024  1.00 39.03    -0.020 A 
ATOM     16  CD2 TYR A 338     -40.105 128.455   6.498  1.00 40.65    -0.002 A 
ATOM     17  CE2 TYR A 338     -38.938 129.149   6.216  1.00 40.91     0.024 A 
ATOM     18  CZ  TYR A 338     -37.960 128.558   5.438  1.00 42.33     0.089 A 
ATOM     19  CE1 TYR A 338     -38.158 127.276   4.956  1.00 40.63     0.024 A 
ATOM     20  CD1 TYR A 338     -39.338 126.604   5.239  1.00 39.27    -0.002 A 
BRANCH  18  21
ATOM     21  OH  TYR A 338     -36.804 129.231   5.157  1.00 43.36    -0.359 OA
ATOM     22  HH  TYR A 338     -36.412 129.804   5.805  1.00  0.00     0.217 HD
ENDBRANCH  18  21
ENDBRANCH  14  15
ENDBRANCH  13  14
END_RES TYR A 338
ENDMDL
MODEL 4
REMARK VINA RESULT:    -7.355      2.917      5.269
REMARK INTER + INTRA:         -15.313
REMARK INTER:                  -7.385
REMARK INTRA:                  -7.928
REMARK UNBOUND:                -7.958
REMARK  0 active torsions:
REMARK  status: ('A' for Active; 'I' for Inactive)
REMARK       I    between atoms: C1_1  and  C2_4 
REMARK       I    between atoms: C2_4  and  C3_5 
REMARK       I    between atoms: C3_5  and  C4_6 
REMARK       I    between atoms: C4_6  and  C5_7 
REMARK       I    between atoms: C5_7  and  C6_8 
REMARK       I    between atoms: C6_8  and  C7_9 
REMARK       I    between atoms: C7_9  and  C8_10 
REMARK       I    between atoms: C8_10  and  C9_11 
REMARK       I    between atoms: C9_11  and  CA_12 
REMARK       I    between atoms: CA_12  and  CB_13 
REMARK       I    between atoms: CB_13  and  CC_14 
REMARK       I    between atoms: CC_14  and  CD_15 
REMARK       I    between atoms: CD_15  and  CE_16 
REMARK       I    between atoms: CE_16  and  CF_17 
ROOT
HETATM    1  C1  PLM A 602     -47.101 137.603  14.206  1.00 67.00     0.172 C 
HETATM    2  O1  PLM A 602     -47.958 136.718  14.010  1.00 67.82    -0.648 OA
HETATM    3  O2  PLM A 602     -47.169 138.467  15.122  1.00 60.21    -0.648 OA
HETATM    4  C2  PLM A 602     -45.927 137.668  13.255  1.00 66.32     0.113 C 
HETATM    5  C3  PLM A 602     -45.823 138.979  12.563  1.00 69.45     0.010 C 
HETATM    6  C4  PLM A 602     -46.805 139.123  11.412  1.00 68.61     0.001 C 
HETATM    7  C5  PLM A 602     -46.144 139.263  10.067  1.00 67.98     0.000 C 
HETATM    8  C6  PLM A 602     -45.386 140.554   9.883  1.00 66.51     0.000 C 
HETATM    9  C7  PLM A 602     -45.145 140.934   8.443  1.00 65.92     0.000 C 
HETATM   10  C8  PLM A 602     -44.667 139.805   7.564  1.00 63.91     0.000 C 
HETATM   11  C9  PLM A 602     -43.425 139.119   8.064  1.00 63.09     0.000 C 
HETATM   12  CA  PLM A 602     -43.003 137.925   7.255  1.00 60.21     0.000 C 
HETATM   13  CB  PLM A 602     -42.199 136.937   8.044  1.00 61.66     0.000 C 
HETATM   14  CC  PLM A 602     -41.667 135.780   7.242  1.00 61.80     0.000 C 
HETATM   15  CD  PLM A 602     -40.854 134.780   8.032  1.00 61.53     0.000 C 
HETATM   16  CE  PLM A 602     -39.900 135.386   9.034  1.00 61.91    -0.000 C 
HETATM   17  CF  PLM A 602     -40.476 135.590  10.415  1.00 62.58    -0.005 C 
HETATM   18  CG  PLM A 602     -39.446 135.882  11.477  1.00 63.16     0.005 C 
ENDROOT
TORSDOF 14
BEGIN_RES PHE A  61
REMARK  2 active torsions:
REMARK  status: ('A' for Active; 'I' for Inactive)
REMARK    1  A    between atoms: CA   and  CB  
REMARK    2  A    between atoms: CB   and  CG  
ROOT
ATOM      1  CA  PHE A  61     -36.237 128.293  12.768  1.00 39.40     0.164 C 
ENDROOT
BRANCH   1   2
ATOM      2  CB  PHE A  61     -36.813 128.951  11.509  1.00 39.41     0.058 C 
BRANCH   2   3
ATOM      3  CG  PHE A  61     -35.869 128.977  10.331  1.00 39.01    -0.020 A 
ATOM      4  CD2 PHE A  61     -36.119 128.213   9.202  1.00 40.32    -0.004 A 
ATOM      5  CE2 PHE A  61     -35.247 128.236   8.120  1.00 40.20    -0.000 A 
ATOM      6  CZ  PHE A  61     -34.120 129.024   8.153  1.00 40.34    -0.000 A 
ATOM      7  CE1 PHE A  61     -33.859 129.791   9.267  1.00 41.51    -0.000 A 
ATOM      8  CD1 PHE A  61     -34.726 129.764  10.352  1.00 39.94    -0.004 A 
ENDBRANCH   2   3
ENDBRANCH   1   2
END_RES PHE A  61
BEGIN_RES VAL A 134
REMARK  1 active torsions:
REMARK  status: ('A' for Active; 'I' for Inactive)
REMARK    3  A    between atoms: CA   and  CB  
ROOT
ATOM      9  CA  VAL A 134     -29.766 132.051   9.815  1.00 40.75     0.159 C 
ENDROOT
BRANCH   9  10
ATOM     10  CB  VAL A 134     -30.864 132.765   9.009  1.00 40.76     0.029 C 
ATOM     11  CG1 VAL A 134     -31.211 131.975   7.756  1.00 41.76     0.002 C 
ATOM     12  CG2 VAL A 134     -32.106 133.015   9.851  1.00 40.56     0.002 C 
ENDBRANCH   9  10
END_RES VAL A 134
BEGIN_RES TYR A 338
REMARK  3 active torsions:
REMARK  status: ('A' for Active; 'I' for Inactive)
REMARK    4  A    between atoms: CA   and  CB  
REMARK    5  A    between atoms: CB   and  CG  
REMARK    6  A    between atoms: CZ   and  OH  
ROOT
ATOM     13  CA  TYR A 338     -41.631 124.950   6.058  1.00 38.23     0.164 C 
ENDROOT
BRANCH  13  14
ATOM     14  CB  TYR A 338     -41.621 126.456   6.339  1.00 39.15     0.058 C 
BRANCH  14  15
ATOM     15  CG  TYR A 338     -40.328 127.173   6.026  1.00 39.03    -0.020 A 
ATOM     16  CD2 TYR A 338     -40.105 128.455   6.501  1.00 40.65    -0.002 A 
ATOM     17  CE2 TYR A 338     -38.937 129.148   6.220  1.00 40.91     0.024 A 
ATOM     18  CZ  TYR A 338     -37.958 128.557   5.445  1.00 42.33     0.089 A 
ATOM     19  CE1 TYR A 338     -38.155 127.275   4.963  1.00 40.63     0.024 A 
ATOM     20  CD1 TYR A 338     -39.336 126.604   5.244  1.00 39.27    -0.002 A 
BRANCH  18  21
ATOM     21  OH  TYR A 338     -36.801 129.229   5.166  1.00 43.36    -0.359 OA
ATOM     22  HH  TYR A 338     -36.751 130.171   5.285  1.00  0.00     0.217 HD
ENDBRANCH  18  21
ENDBRANCH  14  15
ENDBRANCH  13  14
END_RES TYR A 338
ENDMDL
MODEL 5
REMARK VINA RESULT:    -7.353      1.237      1.853
REMARK INTER + INTRA:         -15.311
REMARK INTER:                  -7.452
REMARK INTRA:                  -7.859
REMARK UNBOUND:                -7.958
REMARK  0 active torsions:
REMARK  status: ('A' for Active; 'I' for Inactive)
REMARK       I    between atoms: C1_1  and  C2_4 
REMARK       I    between atoms: C2_4  and  C3_5 
REMARK       I    between atoms: C3_5  and  C4_6 
REMARK       I    between atoms: C4_6  and  C5_7 
REMARK       I    between atoms: C5_7  and  C6_8 
REMARK       I    between atoms: C6_8  and  C7_9 
REMARK       I    between atoms: C7_9  and  C8_10 
REMARK       I    between atoms: C8_10  and  C9_11 
REMARK       I    between atoms: C9_11  and  CA_12 
REMARK       I    between atoms: CA_12  and  CB_13 
REMARK       I    between atoms: CB_13  and  CC_14 
REMARK       I    between atoms: CC_14  and  CD_15 
REMARK       I    between atoms: CD_15  and  CE_16 
REMARK       I    between atoms: CE_16  and  CF_17 
ROOT
HETATM    1  C1  PLM A 602     -38.458 134.957  11.585  1.00 67.00     0.172 C 
HETATM    2  O1  PLM A 602     -37.540 135.713  11.960  1.00 67.82    -0.648 OA
HETATM    3  O2  PLM A 602     -38.307 133.735  11.316  1.00 60.21    -0.648 OA
HETATM    4  C2  PLM A 602     -39.834 135.559  11.400  1.00 66.32     0.113 C 
HETATM    5  C3  PLM A 602     -40.348 135.398  10.016  1.00 69.45     0.010 C 
HETATM    6  C4  PLM A 602     -39.745 136.394   9.039  1.00 68.61     0.001 C 
HETATM    7  C5  PLM A 602     -40.751 137.345   8.448  1.00 67.98     0.000 C 
HETATM    8  C6  PLM A 602     -41.748 136.693   7.523  1.00 66.51     0.000 C 
HETATM    9  C7  PLM A 602     -42.423 137.645   6.566  1.00 65.92     0.000 C 
HETATM   10  C8  PLM A 602     -42.907 138.930   7.189  1.00 63.91     0.000 C 
HETATM   11  C9  PLM A 602     -43.830 138.737   8.361  1.00 63.09     0.000 C 
HETATM   12  CA  PLM A 602     -44.230 140.007   9.056  1.00 60.21     0.000 C 
HETATM   13  CB  PLM A 602     -44.609 139.796  10.490  1.00 61.66     0.000 C 
HETATM   14  CC  PLM A 602     -45.118 141.027  11.191  1.00 61.80     0.000 C 
HETATM   15  CD  PLM A 602     -45.503 140.820  12.638  1.00 61.53     0.000 C 
HETATM   16  CE  PLM A 602     -46.252 139.540  12.920  1.00 61.91    -0.000 C 
HETATM   17  CF  PLM A 602     -45.379 138.360  13.273  1.00 62.58    -0.005 C 
HETATM   18  CG  PLM A 602     -46.128 137.191  13.865  1.00 63.16     0.005 C 
ENDROOT
TORSDOF 14
BEGIN_RES PHE A  61
REMARK  2 active torsions:
REMARK  status: ('A' for Active; 'I' for Inactive)
REMARK    1  A    between atoms: CA   and  CB  
REMARK    2  A    between atoms: CB   and  CG  
ROOT
ATOM      1  CA  PHE A  61     -36.237 128.293  12.768  1.00 39.40     0.164 C 
ENDROOT
BRANCH   1   2
ATOM      2  CB  PHE A  61     -36.813 128.951  11.509  1.00 39.41     0.058 C 
BRANCH   2   3
ATOM      3  CG  PHE A  61     -35.877 128.956  10.324  1.00 39.01    -0.020 A 
ATOM      4  CD2 PHE A  61     -36.032 128.045   9.291  1.00 40.32    -0.004 A 
ATOM      5  CE2 PHE A  61     -35.168 128.049   8.203  1.00 40.20    -0.000 A 
ATOM      6  CZ  PHE A  61     -34.144 128.965   8.133  1.00 40.34    -0.000 A 
ATOM      7  CE1 PHE A  61     -33.978 129.879   9.150  1.00 41.51    -0.000 A 
ATOM      8  CD1 PHE A  61     -34.837 129.871  10.242  1.00 39.94    -0.004 A 
ENDBRANCH   2   3
ENDBRANCH   1   2
END_RES PHE A  61
BEGIN_RES VAL A 134
REMARK  1 active torsions:
REMARK  status: ('A' for Active; 'I' for Inactive)
REMARK    3  A    between atoms: CA   and  CB  
ROOT
ATOM      9  CA  VAL A 134     -29.766 132.051   9.815  1.00 40.75     0.159 C 
ENDROOT
BRANCH   9  10
ATOM     10  CB  VAL A 134     -30.864 132.765   9.009  1.00 40.76     0.029 C 
ATOM     11  CG1 VAL A 134     -31.196 131.986   7.745  1.00 41.76     0.002 C 
ATOM     12  CG2 VAL A 134     -32.113 132.996   9.845  1.00 40.56     0.002 C 
ENDBRANCH   9  10
END_RES VAL A 134
BEGIN_RES TYR A 338
REMARK  3 active torsions:
REMARK  status: ('A' for Active; 'I' for Inactive)
REMARK    4  A    between atoms: CA   and  CB  
REMARK    5  A    between atoms: CB   and  CG  
REMARK    6  A    between atoms: CZ   and  OH  
ROOT
ATOM     13  CA  TYR A 338     -41.631 124.950   6.058  1.00 38.23     0.164 C 
ENDROOT
BRANCH  13  14
ATOM     14  CB  TYR A 338     -41.621 126.456   6.339  1.00 39.15     0.058 C 
BRANCH  14  15
ATOM     15  CG  TYR A 338     -40.335 127.177   6.007  1.00 39.03    -0.020 A 
ATOM     16  CD2 TYR A 338     -40.103 128.455   6.488  1.00 40.65    -0.002 A 
ATOM     17  CE2 TYR A 338     -38.942 129.151   6.190  1.00 40.91     0.024 A 
ATOM     18  CZ  TYR A 338     -37.977 128.567   5.391  1.00 42.33     0.089 A 
ATOM     19  CE1 TYR A 338     -38.183 127.289   4.903  1.00 40.63     0.024 A 
ATOM     20  CD1 TYR A 338     -39.357 126.614   5.201  1.00 39.27    -0.002 A 
BRANCH  18  21
ATOM     21  OH  TYR A 338     -36.827 129.243   5.095  1.00 43.36    -0.359 OA
ATOM     22  HH  TYR A 338     -36.125 129.301   5.734  1.00  0.00     0.217 HD
ENDBRANCH  18  21
ENDBRANCH  14  15
ENDBRANCH  13  14
END_RES TYR A 338
ENDMDL
MODEL 6
REMARK VINA RESULT:    -7.349      3.450      5.148
REMARK INTER + INTRA:         -15.307
REMARK INTER:                  -8.200
REMARK INTRA:                  -7.107
REMARK UNBOUND:                -7.958
REMARK  0 active torsions:
REMARK  status: ('A' for Active; 'I' for Inactive)
REMARK       I    between atoms: C1_1  and  C2_4 
REMARK       I    between atoms: C2_4  and  C3_5 
REMARK       I    between atoms: C3_5  and  C4_6 
REMARK       I    between atoms: C4_6  and  C5_7 
REMARK       I    between atoms: C5_7  and  C6_8 
REMARK       I    between atoms: C6_8  and  C7_9 
REMARK       I    between atoms: C7_9  and  C8_10 
REMARK       I    between atoms: C8_10  and  C9_11 
REMARK       I    between atoms: C9_11  and  CA_12 
REMARK       I    between atoms: CA_12  and  CB_13 
REMARK       I    between atoms: CB_13  and  CC_14 
REMARK       I    between atoms: CC_14  and  CD_15 
REMARK       I    between atoms: CD_15  and  CE_16 
REMARK       I    between atoms: CE_16  and  CF_17 
ROOT
HETATM    1  C1  PLM A 602     -34.978 130.502   7.623  1.00 67.00     0.172 C 
HETATM    2  O1  PLM A 602     -35.606 129.512   7.197  1.00 67.82    -0.648 OA
HETATM    3  O2  PLM A 602     -33.808 130.452   8.090  1.00 60.21    -0.648 OA
HETATM    4  C2  PLM A 602     -35.684 131.840   7.616  1.00 66.32     0.113 C 
HETATM    5  C3  PLM A 602     -35.779 132.442   8.971  1.00 69.45     0.010 C 
HETATM    6  C4  PLM A 602     -36.881 131.828   9.818  1.00 68.61     0.001 C 
HETATM    7  C5  PLM A 602     -37.973 132.797  10.183  1.00 67.98     0.000 C 
HETATM    8  C6  PLM A 602     -37.540 133.889  11.129  1.00 66.51     0.000 C 
HETATM    9  C7  PLM A 602     -38.672 134.550  11.877  1.00 65.92     0.000 C 
HETATM   10  C8  PLM A 602     -39.867 134.905  11.028  1.00 63.91     0.000 C 
HETATM   11  C9  PLM A 602     -39.545 135.770   9.841  1.00 63.09     0.000 C 
HETATM   12  CA  PLM A 602     -40.708 136.039   8.930  1.00 60.21     0.000 C 
HETATM   13  CB  PLM A 602     -40.292 136.349   7.524  1.00 61.66     0.000 C 
HETATM   14  CC  PLM A 602     -41.423 136.729   6.606  1.00 61.80     0.000 C 
HETATM   15  CD  PLM A 602     -41.010 137.043   5.186  1.00 61.53     0.000 C 
HETATM   16  CE  PLM A 602     -39.748 137.863   5.058  1.00 61.91    -0.000 C 
HETATM   17  CF  PLM A 602     -38.476 137.056   4.954  1.00 62.58    -0.005 C 
HETATM   18  CG  PLM A 602     -37.275 137.851   4.504  1.00 63.16     0.005 C 
ENDROOT
TORSDOF 14
BEGIN_RES PHE A  61
REMARK  2 active torsions:
REMARK  status: ('A' for Active; 'I' for Inactive)
REMARK    1  A    between atoms: CA   and  CB  
REMARK    2  A    between atoms: CB   and  CG  
ROOT
ATOM      1  CA  PHE A  61     -36.237 128.293  12.768  1.00 39.40     0.164 C 
ENDROOT
BRANCH   1   2
ATOM      2  CB  PHE A  61     -36.813 128.951  11.509  1.00 39.41     0.058 C 
BRANCH   2   3
ATOM      3  CG  PHE A  61     -36.650 128.136  10.249  1.00 39.01    -0.020 A 
ATOM      4  CD2 PHE A  61     -37.705 127.975   9.364  1.00 40.32    -0.004 A 
ATOM      5  CE2 PHE A  61     -37.554 127.221   8.206  1.00 40.20    -0.000 A 
ATOM      6  CZ  PHE A  61     -36.348 126.625   7.918  1.00 40.34    -0.000 A 
ATOM      7  CE1 PHE A  61     -35.290 126.777   8.786  1.00 41.51    -0.000 A 
ATOM      8  CD1 PHE A  61     -35.442 127.524   9.947  1.00 39.94    -0.004 A 
ENDBRANCH   2   3
ENDBRANCH   1   2
END_RES PHE A  61
BEGIN_RES VAL A 134
REMARK  1 active torsions:
REMARK  status: ('A' for Active; 'I' for Inactive)
REMARK    3  A    between atoms: CA   and  CB  
ROOT
ATOM      9  CA  VAL A 134     -29.766 132.051   9.815  1.00 40.75     0.159 C 
ENDROOT
BRANCH   9  10
ATOM     10  CB  VAL A 134     -30.864 132.765   9.009  1.00 40.76     0.029 C 
ATOM     11  CG1 VAL A 134     -31.102 132.060   7.682  1.00 41.76     0.002 C 
ATOM     12  CG2 VAL A 134     -32.158 132.878   9.801  1.00 40.56     0.002 C 
ENDBRANCH   9  10
END_RES VAL A 134
BEGIN_RES TYR A 338
REMARK  3 active torsions:
REMARK  status: ('A' for Active; 'I' for Inactive)
REMARK    4  A    between atoms: CA   and  CB  
REMARK    5  A    between atoms: CB   and  CG  
REMARK    6  A    between atoms: CZ   and  OH  
ROOT
ATOM     13  CA  TYR A 338     -41.631 124.950   6.058  1.00 38.23     0.164 C 
ENDROOT
BRANCH  13  14
ATOM     14  CB  TYR A 338     -41.621 126.456   6.339  1.00 39.15     0.058 C 
BRANCH  14  15
ATOM     15  CG  TYR A 338     -40.384 127.199   5.889  1.00 39.03    -0.020 A 
ATOM     16  CD2 TYR A 338     -40.204 128.529   6.228  1.00 40.65    -0.002 A 
ATOM     17  CE2 TYR A 338     -39.089 129.246   5.820  1.00 40.91     0.024 A 
ATOM     18  CZ  TYR A 338     -38.122 128.629   5.049  1.00 42.33     0.089 A 
ATOM     19  CE1 TYR A 338     -38.277 127.299   4.701  1.00 40.63     0.024 A 
ATOM     20  CD1 TYR A 338     -39.405 126.604   5.109  1.00 39.27    -0.002 A 
BRANCH  18  21
ATOM     21  OH  TYR A 338     -37.017 129.325   4.644  1.00 43.36    -0.359 OA
ATOM     22  HH  TYR A 338     -36.146 128.989   4.821  1.00  0.00     0.217 HD
ENDBRANCH  18  21
ENDBRANCH  14  15
ENDBRANCH  13  14
END_RES TYR A 338
ENDMDL
MODEL 7
REMARK VINA RESULT:    -7.305      2.823      3.592
REMARK INTER + INTRA:         -15.262
REMARK INTER:                  -7.324
REMARK INTRA:                  -7.938
REMARK UNBOUND:                -7.958
REMARK  0 active torsions:
REMARK  status: ('A' for Active; 'I' for Inactive)
REMARK       I    between atoms: C1_1  and  C2_4 
REMARK       I    between atoms: C2_4  and  C3_5 
REMARK       I    between atoms: C3_5  and  C4_6 
REMARK       I    between atoms: C4_6  and  C5_7 
REMARK       I    between atoms: C5_7  and  C6_8 
REMARK       I    between atoms: C6_8  and  C7_9 
REMARK       I    between atoms: C7_9  and  C8_10 
REMARK       I    between atoms: C8_10  and  C9_11 
REMARK       I    between atoms: C9_11  and  CA_12 
REMARK       I    between atoms: CA_12  and  CB_13 
REMARK       I    between atoms: CB_13  and  CC_14 
REMARK       I    between atoms: CC_14  and  CD_15 
REMARK       I    between atoms: CD_15  and  CE_16 
REMARK       I    between atoms: CE_16  and  CF_17 
ROOT
HETATM    1  C1  PLM A 602     -39.340 137.866   4.879  1.00 67.00     0.172 C 
HETATM    2  O1  PLM A 602     -39.623 138.186   3.707  1.00 67.82    -0.648 OA
HETATM    3  O2  PLM A 602     -38.389 137.101   5.196  1.00 60.21    -0.648 OA
HETATM    4  C2  PLM A 602     -40.223 138.397   5.986  1.00 66.32     0.113 C 
HETATM    5  C3  PLM A 602     -40.846 137.314   6.790  1.00 69.45     0.010 C 
HETATM    6  C4  PLM A 602     -42.039 136.673   6.101  1.00 68.61     0.001 C 
HETATM    7  C5  PLM A 602     -43.339 136.873   6.833  1.00 67.98     0.000 C 
HETATM    8  C6  PLM A 602     -43.422 136.147   8.153  1.00 66.51     0.000 C 
HETATM    9  C7  PLM A 602     -44.828 135.925   8.653  1.00 65.92     0.000 C 
HETATM   10  C8  PLM A 602     -45.732 137.127   8.551  1.00 63.91     0.000 C 
HETATM   11  C9  PLM A 602     -45.200 138.358   9.232  1.00 63.09     0.000 C 
HETATM   12  CA  PLM A 602     -46.041 139.589   9.044  1.00 60.21     0.000 C 
HETATM   13  CB  PLM A 602     -45.257 140.860   9.176  1.00 61.66     0.000 C 
HETATM   14  CC  PLM A 602     -46.083 142.116   9.100  1.00 61.80     0.000 C 
HETATM   15  CD  PLM A 602     -45.299 143.400   9.234  1.00 61.53     0.000 C 
HETATM   16  CE  PLM A 602     -44.221 143.380  10.291  1.00 61.91    -0.000 C 
HETATM   17  CF  PLM A 602     -42.865 142.929   9.804  1.00 62.58    -0.005 C 
HETATM   18  CG  PLM A 602     -41.736 143.219  10.763  1.00 63.16     0.005 C 
ENDROOT
TORSDOF 14
BEGIN_RES PHE A  61
REMARK  2 active torsions:
REMARK  status: ('A' for Active; 'I' for Inactive)
REMARK    1  A    between atoms: CA   and  CB  
REMARK    2  A    between atoms: CB   and  CG  
ROOT
ATOM      1  CA  PHE A  61     -36.237 128.293  12.768  1.00 39.40     0.164 C 
ENDROOT
BRANCH   1   2
ATOM      2  CB  PHE A  61     -36.813 128.951  11.509  1.00 39.41     0.058 C 
BRANCH   2   3
ATOM      3  CG  PHE A  61     -35.866 128.984  10.333  1.00 39.01    -0.020 A 
ATOM      4  CD2 PHE A  61     -36.125 128.245   9.190  1.00 40.32    -0.004 A 
ATOM      5  CE2 PHE A  61     -35.251 128.274   8.110  1.00 40.20    -0.000 A 
ATOM      6  CZ  PHE A  61     -34.112 129.045   8.160  1.00 40.34    -0.000 A 
ATOM      7  CE1 PHE A  61     -33.841 129.787   9.288  1.00 41.51    -0.000 A 
ATOM      8  CD1 PHE A  61     -34.711 129.753  10.371  1.00 39.94    -0.004 A 
ENDBRANCH   2   3
ENDBRANCH   1   2
END_RES PHE A  61
BEGIN_RES VAL A 134
REMARK  1 active torsions:
REMARK  status: ('A' for Active; 'I' for Inactive)
REMARK    3  A    between atoms: CA   and  CB  
ROOT
ATOM      9  CA  VAL A 134     -29.766 132.051   9.815  1.00 40.75     0.159 C 
ENDROOT
BRANCH   9  10
ATOM     10  CB  VAL A 134     -30.864 132.765   9.009  1.00 40.76     0.029 C 
ATOM     11  CG1 VAL A 134     -31.218 131.971   7.760  1.00 41.76     0.002 C 
ATOM     12  CG2 VAL A 134     -32.102 133.023   9.854  1.00 40.56     0.002 C 
ENDBRANCH   9  10
END_RES VAL A 134
BEGIN_RES TYR A 338
REMARK  3 active torsions:
REMARK  status: ('A' for Active; 'I' for Inactive)
REMARK    4  A    between atoms: CA   and  CB  
REMARK    5  A    between atoms: CB   and  CG  
REMARK    6  A    between atoms: CZ   and  OH  
ROOT
ATOM     13  CA  TYR A 338     -41.631 124.950   6.058  1.00 38.23     0.164 C 
ENDROOT
BRANCH  13  14
ATOM     14  CB  TYR A 338     -41.621 126.456   6.339  1.00 39.15     0.058 C 
BRANCH  14  15
ATOM     15  CG  TYR A 338     -40.342 127.180   5.989  1.00 39.03    -0.020 A 
ATOM     16  CD2 TYR A 338     -40.109 128.461   6.461  1.00 40.65    -0.002 A 
ATOM     17  CE2 TYR A 338     -38.954 129.160   6.147  1.00 40.91     0.024 A 
ATOM     18  CZ  TYR A 338     -37.997 128.577   5.338  1.00 42.33     0.089 A 
ATOM     19  CE1 TYR A 338     -38.204 127.296   4.857  1.00 40.63     0.024 A 
ATOM     20  CD1 TYR A 338     -39.372 126.618   5.172  1.00 39.27    -0.002 A 
BRANCH  18  21
ATOM     21  OH  TYR A 338     -36.853 129.256   5.026  1.00 43.36    -0.359 OA
ATOM     22  HH  TYR A 338     -36.022 129.001   5.410  1.00  0.00     0.217 HD
ENDBRANCH  18  21
ENDBRANCH  14  15
ENDBRANCH  13  14
END_RES TYR A 338
ENDMDL
MODEL 8
REMARK VINA RESULT:    -6.401      2.017      3.243
REMARK INTER + INTRA:         -14.359
REMARK INTER:                  -6.407
REMARK INTRA:                  -7.951
REMARK UNBOUND:                -7.958
REMARK  0 active torsions:
REMARK  status: ('A' for Active; 'I' for Inactive)
REMARK       I    between atoms: C1_1  and  C2_4 
REMARK       I    between atoms: C2_4  and  C3_5 
REMARK       I    between atoms: C3_5  and  C4_6 
REMARK       I    between atoms: C4_6  and  C5_7 
REMARK       I    between atoms: C5_7  and  C6_8 
REMARK       I    between atoms: C6_8  and  C7_9 
REMARK       I    between atoms: C7_9  and  C8_10 
REMARK       I    between atoms: C8_10  and  C9_11 
REMARK       I    between atoms: C9_11  and  CA_12 
REMARK       I    between atoms: CA_12  and  CB_13 
REMARK       I    between atoms: CB_13  and  CC_14 
REMARK       I    between atoms: CC_14  and  CD_15 
REMARK       I    between atoms: CD_15  and  CE_16 
REMARK       I    between atoms: CE_16  and  CF_17 
ROOT
HETATM    1  C1  PLM A 602     -40.671 136.370   7.979  1.00 67.00     0.172 C 
HETATM    2  O1  PLM A 602     -39.479 136.714   8.105  1.00 67.82    -0.648 OA
HETATM    3  O2  PLM A 602     -41.044 135.261   7.510  1.00 60.21    -0.648 OA
HETATM    4  C2  PLM A 602     -41.737 137.367   8.377  1.00 66.32     0.113 C 
HETATM    5  C3  PLM A 602     -42.650 137.706   7.255  1.00 69.45     0.010 C 
HETATM    6  C4  PLM A 602     -42.044 138.696   6.274  1.00 68.61     0.001 C 
HETATM    7  C5  PLM A 602     -42.774 140.010   6.212  1.00 67.98     0.000 C 
HETATM    8  C6  PLM A 602     -44.158 139.920   5.620  1.00 66.51     0.000 C 
HETATM    9  C7  PLM A 602     -44.700 141.230   5.102  1.00 65.92     0.000 C 
HETATM   10  C8  PLM A 602     -44.498 142.405   6.026  1.00 63.91     0.000 C 
HETATM   11  C9  PLM A 602     -45.050 142.204   7.410  1.00 63.09     0.000 C 
HETATM   12  CA  PLM A 602     -44.759 143.323   8.368  1.00 60.21     0.000 C 
HETATM   13  CB  PLM A 602     -44.757 142.884   9.801  1.00 61.66     0.000 C 
HETATM   14  CC  PLM A 602     -44.575 143.997  10.797  1.00 61.80     0.000 C 
HETATM   15  CD  PLM A 602     -44.573 143.560  12.244  1.00 61.53     0.000 C 
HETATM   16  CE  PLM A 602     -45.610 142.520  12.595  1.00 61.91    -0.000 C 
HETATM   17  CF  PLM A 602     -45.147 141.090  12.452  1.00 62.58    -0.005 C 
HETATM   18  CG  PLM A 602     -46.056 140.078  13.105  1.00 63.16     0.005 C 
ENDROOT
TORSDOF 14
BEGIN_RES PHE A  61
REMARK  2 active torsions:
REMARK  status: ('A' for Active; 'I' for Inactive)
REMARK    1  A    between atoms: CA   and  CB  
REMARK    2  A    between atoms: CB   and  CG  
ROOT
ATOM      1  CA  PHE A  61     -36.237 128.293  12.768  1.00 39.40     0.164 C 
ENDROOT
BRANCH   1   2
ATOM      2  CB  PHE A  61     -36.813 128.951  11.509  1.00 39.41     0.058 C 
BRANCH   2   3
ATOM      3  CG  PHE A  61     -35.872 128.970  10.329  1.00 39.01    -0.020 A 
ATOM      4  CD2 PHE A  61     -36.144 128.231   9.189  1.00 40.32    -0.004 A 
ATOM      5  CE2 PHE A  61     -35.275 128.247   8.105  1.00 40.20    -0.000 A 
ATOM      6  CZ  PHE A  61     -34.128 129.005   8.147  1.00 40.34    -0.000 A 
ATOM      7  CE1 PHE A  61     -33.843 129.747   9.271  1.00 41.51    -0.000 A 
ATOM      8  CD1 PHE A  61     -34.708 129.726  10.358  1.00 39.94    -0.004 A 
ENDBRANCH   2   3
ENDBRANCH   1   2
END_RES PHE A  61
BEGIN_RES VAL A 134
REMARK  1 active torsions:
REMARK  status: ('A' for Active; 'I' for Inactive)
REMARK    3  A    between atoms: CA   and  CB  
ROOT
ATOM      9  CA  VAL A 134     -29.766 132.051   9.815  1.00 40.75     0.159 C 
ENDROOT
BRANCH   9  10
ATOM     10  CB  VAL A 134     -30.864 132.765   9.009  1.00 40.76     0.029 C 
ATOM     11  CG1 VAL A 134     -31.211 131.975   7.755  1.00 41.76     0.002 C 
ATOM     12  CG2 VAL A 134     -32.106 133.015   9.851  1.00 40.56     0.002 C 
ENDBRANCH   9  10
END_RES VAL A 134
BEGIN_RES TYR A 338
REMARK  3 active torsions:
REMARK  status: ('A' for Active; 'I' for Inactive)
REMARK    4  A    between atoms: CA   and  CB  
REMARK    5  A    between atoms: CB   and  CG  
REMARK    6  A    between atoms: CZ   and  OH  
ROOT
ATOM     13  CA  TYR A 338     -41.631 124.950   6.058  1.00 38.23     0.164 C 
ENDROOT
BRANCH  13  14
ATOM     14  CB  TYR A 338     -41.621 126.456   6.339  1.00 39.15     0.058 C 
BRANCH  14  15
ATOM     15  CG  TYR A 338     -40.336 127.178   6.002  1.00 39.03    -0.020 A 
ATOM     16  CD2 TYR A 338     -40.104 128.455   6.483  1.00 40.65    -0.002 A 
ATOM     17  CE2 TYR A 338     -38.944 129.153   6.181  1.00 40.91     0.024 A 
ATOM     18  CZ  TYR A 338     -37.983 128.570   5.377  1.00 42.33     0.089 A 
ATOM     19  CE1 TYR A 338     -38.190 127.292   4.889  1.00 40.63     0.024 A 
ATOM     20  CD1 TYR A 338     -39.362 126.616   5.191  1.00 39.27    -0.002 A 
BRANCH  18  21
ATOM     21  OH  TYR A 338     -36.833 129.247   5.077  1.00 43.36    -0.359 OA
ATOM     22  HH  TYR A 338     -36.155 129.356   5.732  1.00  0.00     0.217 HD
ENDBRANCH  18  21
ENDBRANCH  14  15
ENDBRANCH  13  14
END_RES TYR A 338
ENDMDL
MODEL 9
REMARK VINA RESULT:    -6.105      3.336      5.200
REMARK INTER + INTRA:         -14.063
REMARK INTER:                  -6.106
REMARK INTRA:                  -7.957
REMARK UNBOUND:                -7.958
REMARK  0 active torsions:
REMARK  status: ('A' for Active; 'I' for Inactive)
REMARK       I    between atoms: C1_1  and  C2_4 
REMARK       I    between atoms: C2_4  and  C3_5 
REMARK       I    between atoms: C3_5  and  C4_6 
REMARK       I    between atoms: C4_6  and  C5_7 
REMARK       I    between atoms: C5_7  and  C6_8 
REMARK       I    between atoms: C6_8  and  C7_9 
REMARK       I    between atoms: C7_9  and  C8_10 
REMARK       I    between atoms: C8_10  and  C9_11 
REMARK       I    between atoms: C9_11  and  CA_12 
REMARK       I    between atoms: CA_12  and  CB_13 
REMARK       I    between atoms: CB_13  and  CC_14 
REMARK       I    between atoms: CC_14  and  CD_15 
REMARK       I    between atoms: CD_15  and  CE_16 
REMARK       I    between atoms: CE_16  and  CF_17 
ROOT
HETATM    1  C1  PLM A 602     -46.048 138.475  15.975  1.00 67.00     0.172 C 
HETATM    2  O1  PLM A 602     -45.957 137.262  16.249  1.00 67.82    -0.648 OA
HETATM    3  O2  PLM A 602     -46.562 139.339  16.735  1.00 60.21    -0.648 OA
HETATM    4  C2  PLM A 602     -45.546 138.929  14.622  1.00 66.32     0.113 C 
HETATM    5  C3  PLM A 602     -46.604 139.584  13.809  1.00 69.45     0.010 C 
HETATM    6  C4  PLM A 602     -47.554 138.591  13.160  1.00 68.61     0.001 C 
HETATM    7  C5  PLM A 602     -47.507 138.606  11.655  1.00 67.98     0.000 C 
HETATM    8  C6  PLM A 602     -48.040 139.872  11.033  1.00 66.51     0.000 C 
HETATM    9  C7  PLM A 602     -48.457 139.728   9.590  1.00 65.92     0.000 C 
HETATM   10  C8  PLM A 602     -47.478 138.977   8.722  1.00 63.91     0.000 C 
HETATM   11  C9  PLM A 602     -46.084 139.541   8.736  1.00 63.09     0.000 C 
HETATM   12  CA  PLM A 602     -45.078 138.737   7.962  1.00 60.21     0.000 C 
HETATM   13  CB  PLM A 602     -43.674 138.928   8.451  1.00 61.66     0.000 C 
HETATM   14  CC  PLM A 602     -42.625 138.223   7.633  1.00 61.80     0.000 C 
HETATM   15  CD  PLM A 602     -41.207 138.412   8.121  1.00 61.53     0.000 C 
HETATM   16  CE  PLM A 602     -40.869 139.815   8.564  1.00 61.91    -0.000 C 
HETATM   17  CF  PLM A 602     -41.114 140.093  10.028  1.00 62.58    -0.005 C 
HETATM   18  CG  PLM A 602     -40.479 141.367  10.530  1.00 63.16     0.005 C 
ENDROOT
TORSDOF 14
BEGIN_RES PHE A  61
REMARK  2 active torsions:
REMARK  status: ('A' for Active; 'I' for Inactive)
REMARK    1  A    between atoms: CA   and  CB  
REMARK    2  A    between atoms: CB   and  CG  
ROOT
ATOM      1  CA  PHE A  61     -36.237 128.293  12.768  1.00 39.40     0.164 C 
ENDROOT
BRANCH   1   2
ATOM      2  CB  PHE A  61     -36.813 128.951  11.509  1.00 39.41     0.058 C 
BRANCH   2   3
ATOM      3  CG  PHE A  61     -35.842 129.050  10.357  1.00 39.01    -0.020 A 
ATOM      4  CD2 PHE A  61     -36.109 128.432   9.146  1.00 40.32    -0.004 A 
ATOM      5  CE2 PHE A  61     -35.213 128.522   8.088  1.00 40.20    -0.000 A 
ATOM      6  CZ  PHE A  61     -34.043 129.233   8.227  1.00 40.34    -0.000 A 
ATOM      7  CE1 PHE A  61     -33.764 129.856   9.424  1.00 41.51    -0.000 A 
ATOM      8  CD1 PHE A  61     -34.657 129.761  10.484  1.00 39.94    -0.004 A 
ENDBRANCH   2   3
ENDBRANCH   1   2
END_RES PHE A  61
BEGIN_RES VAL A 134
REMARK  1 active torsions:
REMARK  status: ('A' for Active; 'I' for Inactive)
REMARK    3  A    between atoms: CA   and  CB  
ROOT
ATOM      9  CA  VAL A 134     -29.766 132.051   9.815  1.00 40.75     0.159 C 
ENDROOT
BRANCH   9  10
ATOM     10  CB  VAL A 134     -30.864 132.765   9.009  1.00 40.76     0.029 C 
ATOM     11  CG1 VAL A 134     -31.220 131.969   7.762  1.00 41.76     0.002 C 
ATOM     12  CG2 VAL A 134     -32.101 133.027   9.855  1.00 40.56     0.002 C 
ENDBRANCH   9  10
END_RES VAL A 134
BEGIN_RES TYR A 338
REMARK  3 active torsions:
REMARK  status: ('A' for Active; 'I' for Inactive)
REMARK    4  A    between atoms: CA   and  CB  
REMARK    5  A    between atoms: CB   and  CG  
REMARK    6  A    between atoms: CZ   and  OH  
ROOT
ATOM     13  CA  TYR A 338     -41.631 124.950   6.058  1.00 38.23     0.164 C 
ENDROOT
BRANCH  13  14
ATOM     14  CB  TYR A 338     -41.621 126.456   6.339  1.00 39.15     0.058 C 
BRANCH  14  15
ATOM     15  CG  TYR A 338     -40.340 127.180   5.991  1.00 39.03    -0.020 A 
ATOM     16  CD2 TYR A 338     -40.104 128.456   6.473  1.00 40.65    -0.002 A 
ATOM     17  CE2 TYR A 338     -38.948 129.155   6.162  1.00 40.91     0.024 A 
ATOM     18  CZ  TYR A 338     -37.994 128.576   5.347  1.00 42.33     0.089 A 
ATOM     19  CE1 TYR A 338     -38.206 127.299   4.856  1.00 40.63     0.024 A 
ATOM     20  CD1 TYR A 338     -39.374 126.622   5.169  1.00 39.27    -0.002 A 
BRANCH  18  21
ATOM     21  OH  TYR A 338     -36.849 129.254   5.037  1.00 43.36    -0.359 OA
ATOM     22  HH  TYR A 338     -36.296 128.963   4.320  1.00  0.00     0.217 HD
ENDBRANCH  18  21
ENDBRANCH  14  15
ENDBRANCH  13  14
END_RES TYR A 338
ENDMDL
