MODEL 1
REMARK VINA RESULT:    -6.942      0.000      0.000
REMARK INTER + INTRA:         -22.082
REMARK INTER:                 -12.624
REMARK INTRA:                  -9.458
REMARK UNBOUND:                -9.458
REMARK  14 active torsions:
REMARK  status: ('A' for Active; 'I' for Inactive)
REMARK    1  A    between atoms: C1_1  and  C2_4 
REMARK    2  A    between atoms: C2_4  and  C3_5 
REMARK    3  A    between atoms: C3_5  and  C4_6 
REMARK    4  A    between atoms: C4_6  and  C5_7 
REMARK    5  A    between atoms: C5_7  and  C6_8 
REMARK    6  A    between atoms: C6_8  and  C7_9 
REMARK    7  A    between atoms: C7_9  and  C8_10 
REMARK    8  A    between atoms: C8_10  and  C9_11 
REMARK    9  A    between atoms: C9_11  and  CA_12 
REMARK   10  A    between atoms: CA_12  and  CB_13 
REMARK   11  A    between atoms: CB_13  and  CC_14 
REMARK   12  A    between atoms: CC_14  and  CD_15 
REMARK   13  A    between atoms: CD_15  and  CE_16 
REMARK   14  A    between atoms: CE_16  and  CF_17 
ROOT
HETATM    1  C7  PLM B 602     -40.223 134.880   8.261  1.00 58.71     0.000 C 
ENDROOT
BRANCH   1   2
HETATM    2  C6  PLM B 602     -41.680 135.198   8.498  1.00 58.80     0.000 C 
BRANCH   2   3
HETATM    3  C5  PLM B 602     -42.211 136.342   7.671  1.00 59.93     0.000 C 
BRANCH   3   4
HETATM    4  C4  PLM B 602     -41.762 136.333   6.235  1.00 61.23     0.001 C 
BRANCH   4   5
HETATM    5  C3  PLM B 602     -41.146 137.644   5.768  1.00 63.10     0.010 C 
BRANCH   5   6
HETATM    6  C2  PLM B 602     -39.658 137.641   5.791  1.00 62.51     0.113 C 
BRANCH   6   7
HETATM    7  C1  PLM B 602     -39.035 137.732   4.412  1.00 63.36     0.172 C 
HETATM    8  O1  PLM B 602     -39.798 137.664   3.426  1.00 65.45    -0.648 OA
HETATM    9  O2  PLM B 602     -37.782 137.844   4.331  1.00 57.35    -0.648 OA
ENDBRANCH   6   7
ENDBRANCH   5   6
ENDBRANCH   4   5
ENDBRANCH   3   4
ENDBRANCH   2   3
ENDBRANCH   1   2
BRANCH   1  10
HETATM   10  C8  PLM B 602     -39.268 135.500   9.251  1.00 57.29     0.000 C 
BRANCH  10  11
HETATM   11  C9  PLM B 602     -39.893 135.849  10.574  1.00 58.28     0.000 C 
BRANCH  11  12
HETATM   12  CA  PLM B 602     -39.494 134.955  11.711  1.00 58.29     0.000 C 
BRANCH  12  13
HETATM   13  CB  PLM B 602     -38.007 134.802  11.832  1.00 59.03     0.000 C 
BRANCH  13  14
HETATM   14  CC  PLM B 602     -37.552 133.542  12.518  1.00 60.78     0.000 C 
BRANCH  14  15
HETATM   15  CD  PLM B 602     -36.870 132.538  11.613  1.00 60.58     0.000 C 
BRANCH  15  16
HETATM   16  CE  PLM B 602     -36.900 132.878  10.138  1.00 60.32    -0.000 C 
BRANCH  16  17
HETATM   17  CF  PLM B 602     -37.790 132.006   9.283  1.00 59.80    -0.005 C 
HETATM   18  CG  PLM B 602     -37.150 131.553   7.997  1.00 60.49     0.005 C 
ENDBRANCH  16  17
ENDBRANCH  15  16
ENDBRANCH  14  15
ENDBRANCH  13  14
ENDBRANCH  12  13
ENDBRANCH  11  12
ENDBRANCH  10  11
ENDBRANCH   1  10
TORSDOF 14
BEGIN_RES PHE A  61
REMARK  2 active torsions:
REMARK  status: ('A' for Active; 'I' for Inactive)
REMARK    1  A    between atoms: CA   and  CB  
REMARK    2  A    between atoms: CB   and  CG  
ROOT
ATOM      1  CA  PHE A  61     -36.237 128.293  12.768  1.00 39.40     0.164 C 
ENDROOT
BRANCH   1   2
ATOM      2  CB  PHE A  61     -36.813 128.951  11.509  1.00 39.41     0.058 C 
BRANCH   2   3
ATOM      3  CG  PHE A  61     -35.863 128.992  10.336  1.00 39.01    -0.020 A 
ATOM      4  CD2 PHE A  61     -34.730 129.789  10.365  1.00 40.32    -0.004 A 
ATOM      5  CE2 PHE A  61     -33.859 129.828   9.283  1.00 40.20    -0.000 A 
ATOM      6  CZ  PHE A  61     -34.108 129.067   8.164  1.00 40.34    -0.000 A 
ATOM      7  CE1 PHE A  61     -35.228 128.268   8.120  1.00 41.51    -0.000 A 
ATOM      8  CD1 PHE A  61     -36.103 128.234   9.199  1.00 39.94    -0.004 A 
ENDBRANCH   2   3
ENDBRANCH   1   2
END_RES PHE A  61
BEGIN_RES VAL A 134
REMARK  1 active torsions:
REMARK  status: ('A' for Active; 'I' for Inactive)
REMARK    3  A    between atoms: CA   and  CB  
ROOT
ATOM      9  CA  VAL A 134     -29.766 132.051   9.815  1.00 40.75     0.159 C 
ENDROOT
BRANCH   9  10
ATOM     10  CB  VAL A 134     -30.864 132.765   9.009  1.00 40.76     0.029 C 
ATOM     11  CG1 VAL A 134     -31.198 131.985   7.746  1.00 41.76     0.002 C 
ATOM     12  CG2 VAL A 134     -32.112 132.999   9.846  1.00 40.56     0.002 C 
ENDBRANCH   9  10
END_RES VAL A 134
BEGIN_RES TYR A 338
REMARK  3 active torsions:
REMARK  status: ('A' for Active; 'I' for Inactive)
REMARK    4  A    between atoms: CA   and  CB  
REMARK    5  A    between atoms: CB   and  CG  
REMARK    6  A    between atoms: CZ   and  OH  
ROOT
ATOM     13  CA  TYR A 338     -41.631 124.950   6.058  1.00 38.23     0.164 C 
ENDROOT
BRANCH  13  14
ATOM     14  CB  TYR A 338     -41.621 126.456   6.339  1.00 39.15     0.058 C 
BRANCH  14  15
ATOM     15  CG  TYR A 338     -40.339 127.179   5.996  1.00 39.03    -0.020 A 
ATOM     16  CD2 TYR A 338     -39.375 126.564   5.215  1.00 40.65    -0.002 A 
ATOM     17  CE2 TYR A 338     -38.181 127.191   4.894  1.00 40.91     0.024 A 
ATOM     18  CZ  TYR A 338     -37.929 128.468   5.361  1.00 42.33     0.089 A 
ATOM     19  CE1 TYR A 338     -38.879 129.105   6.140  1.00 40.63     0.024 A 
ATOM     20  CD1 TYR A 338     -40.061 128.455   6.460  1.00 39.27    -0.002 A 
BRANCH  18  21
ATOM     21  OH  TYR A 338     -36.757 129.097   5.047  1.00 43.36    -0.359 OA
ATOM     22  HH  TYR A 338     -36.097 128.654   4.527  1.00  0.00     0.217 HD
ENDBRANCH  18  21
ENDBRANCH  14  15
ENDBRANCH  13  14
END_RES TYR A 338
ENDMDL
MODEL 2
REMARK VINA RESULT:    -6.729      0.646      1.259
REMARK INTER + INTRA:         -21.695
REMARK INTER:                 -12.358
REMARK INTRA:                  -9.337
REMARK UNBOUND:                -9.458
REMARK  14 active torsions:
REMARK  status: ('A' for Active; 'I' for Inactive)
REMARK    1  A    between atoms: C1_1  and  C2_4 
REMARK    2  A    between atoms: C2_4  and  C3_5 
REMARK    3  A    between atoms: C3_5  and  C4_6 
REMARK    4  A    between atoms: C4_6  and  C5_7 
REMARK    5  A    between atoms: C5_7  and  C6_8 
REMARK    6  A    between atoms: C6_8  and  C7_9 
REMARK    7  A    between atoms: C7_9  and  C8_10 
REMARK    8  A    between atoms: C8_10  and  C9_11 
REMARK    9  A    between atoms: C9_11  and  CA_12 
REMARK   10  A    between atoms: CA_12  and  CB_13 
REMARK   11  A    between atoms: CB_13  and  CC_14 
REMARK   12  A    between atoms: CC_14  and  CD_15 
REMARK   13  A    between atoms: CD_15  and  CE_16 
REMARK   14  A    between atoms: CE_16  and  CF_17 
ROOT
HETATM    1  C7  PLM B 602     -41.990 135.449   8.359  1.00 58.71     0.000 C 
ENDROOT
BRANCH   1   2
HETATM    2  C6  PLM B 602     -42.570 136.386   7.327  1.00 58.80     0.000 C 
BRANCH   2   3
HETATM    3  C5  PLM B 602     -41.772 137.647   7.112  1.00 59.93     0.000 C 
BRANCH   3   4
HETATM    4  C4  PLM B 602     -41.202 137.796   5.728  1.00 61.23     0.001 C 
BRANCH   4   5
HETATM    5  C3  PLM B 602     -39.681 137.825   5.683  1.00 63.10     0.010 C 
BRANCH   5   6
HETATM    6  C2  PLM B 602     -39.126 137.633   4.316  1.00 62.51     0.113 C 
BRANCH   6   7
HETATM    7  C1  PLM B 602     -38.084 138.667   3.937  1.00 63.36     0.172 C 
HETATM    8  O1  PLM B 602     -36.886 138.389   4.156  1.00 65.45    -0.648 OA
HETATM    9  O2  PLM B 602     -38.480 139.759   3.447  1.00 57.35    -0.648 OA
ENDBRANCH   6   7
ENDBRANCH   5   6
ENDBRANCH   4   5
ENDBRANCH   3   4
ENDBRANCH   2   3
ENDBRANCH   1   2
BRANCH   1  10
HETATM   10  C8  PLM B 602     -40.624 134.902   8.023  1.00 57.29     0.000 C 
BRANCH  10  11
HETATM   11  C9  PLM B 602     -39.561 135.241   9.033  1.00 58.28     0.000 C 
BRANCH  11  12
HETATM   12  CA  PLM B 602     -40.078 135.803  10.324  1.00 58.29     0.000 C 
BRANCH  12  13
HETATM   13  CB  PLM B 602     -39.413 135.199  11.526  1.00 59.03     0.000 C 
BRANCH  13  14
HETATM   14  CC  PLM B 602     -38.002 134.726  11.301  1.00 60.78     0.000 C 
BRANCH  14  15
HETATM   15  CD  PLM B 602     -37.674 133.388  11.927  1.00 60.58     0.000 C 
BRANCH  15  16
HETATM   16  CE  PLM B 602     -37.215 132.319  10.958  1.00 60.32    -0.000 C 
BRANCH  16  17
HETATM   17  CF  PLM B 602     -37.078 132.757   9.518  1.00 59.80    -0.005 C 
HETATM   18  CG  PLM B 602     -37.698 131.806   8.528  1.00 60.49     0.005 C 
ENDBRANCH  16  17
ENDBRANCH  15  16
ENDBRANCH  14  15
ENDBRANCH  13  14
ENDBRANCH  12  13
ENDBRANCH  11  12
ENDBRANCH  10  11
ENDBRANCH   1  10
TORSDOF 14
BEGIN_RES PHE A  61
REMARK  2 active torsions:
REMARK  status: ('A' for Active; 'I' for Inactive)
REMARK    1  A    between atoms: CA   and  CB  
REMARK    2  A    between atoms: CB   and  CG  
ROOT
ATOM      1  CA  PHE A  61     -36.237 128.293  12.768  1.00 39.40     0.164 C 
ENDROOT
BRANCH   1   2
ATOM      2  CB  PHE A  61     -36.813 128.951  11.509  1.00 39.41     0.058 C 
BRANCH   2   3
ATOM      3  CG  PHE A  61     -35.855 129.014  10.344  1.00 39.01    -0.020 A 
ATOM      4  CD2 PHE A  61     -34.688 129.758  10.421  1.00 40.32    -0.004 A 
ATOM      5  CE2 PHE A  61     -33.809 129.818   9.347  1.00 40.20    -0.000 A 
ATOM      6  CZ  PHE A  61     -34.084 129.132   8.186  1.00 40.34    -0.000 A 
ATOM      7  CE1 PHE A  61     -35.238 128.386   8.094  1.00 41.51    -0.000 A 
ATOM      8  CD1 PHE A  61     -36.121 128.332   9.165  1.00 39.94    -0.004 A 
ENDBRANCH   2   3
ENDBRANCH   1   2
END_RES PHE A  61
BEGIN_RES VAL A 134
REMARK  1 active torsions:
REMARK  status: ('A' for Active; 'I' for Inactive)
REMARK    3  A    between atoms: CA   and  CB  
ROOT
ATOM      9  CA  VAL A 134     -29.766 132.051   9.815  1.00 40.75     0.159 C 
ENDROOT
BRANCH   9  10
ATOM     10  CB  VAL A 134     -30.864 132.765   9.009  1.00 40.76     0.029 C 
ATOM     11  CG1 VAL A 134     -31.211 131.975   7.756  1.00 41.76     0.002 C 
ATOM     12  CG2 VAL A 134     -32.105 133.016   9.851  1.00 40.56     0.002 C 
ENDBRANCH   9  10
END_RES VAL A 134
BEGIN_RES TYR A 338
REMARK  3 active torsions:
REMARK  status: ('A' for Active; 'I' for Inactive)
REMARK    4  A    between atoms: CA   and  CB  
REMARK    5  A    between atoms: CB   and  CG  
REMARK    6  A    between atoms: CZ   and  OH  
ROOT
ATOM     13  CA  TYR A 338     -41.631 124.950   6.058  1.00 38.23     0.164 C 
ENDROOT
BRANCH  13  14
ATOM     14  CB  TYR A 338     -41.621 126.456   6.339  1.00 39.15     0.058 C 
BRANCH  14  15
ATOM     15  CG  TYR A 338     -40.338 127.178   5.999  1.00 39.03    -0.020 A 
ATOM     16  CD2 TYR A 338     -39.395 126.583   5.178  1.00 40.65    -0.002 A 
ATOM     17  CE2 TYR A 338     -38.201 127.210   4.858  1.00 40.91     0.024 A 
ATOM     18  CZ  TYR A 338     -37.927 128.466   5.366  1.00 42.33     0.089 A 
ATOM     19  CE1 TYR A 338     -38.856 129.084   6.185  1.00 40.63     0.024 A 
ATOM     20  CD1 TYR A 338     -40.039 128.434   6.503  1.00 39.27    -0.002 A 
BRANCH  18  21
ATOM     21  OH  TYR A 338     -36.754 129.095   5.053  1.00 43.36    -0.359 OA
ATOM     22  HH  TYR A 338     -36.516 129.244   4.146  1.00  0.00     0.217 HD
ENDBRANCH  18  21
ENDBRANCH  14  15
ENDBRANCH  13  14
END_RES TYR A 338
ENDMDL
MODEL 3
REMARK VINA RESULT:    -6.424      2.446      5.109
REMARK INTER + INTRA:         -21.139
REMARK INTER:                 -12.453
REMARK INTRA:                  -8.686
REMARK UNBOUND:                -9.458
REMARK  14 active torsions:
REMARK  status: ('A' for Active; 'I' for Inactive)
REMARK    1  A    between atoms: C1_1  and  C2_4 
REMARK    2  A    between atoms: C2_4  and  C3_5 
REMARK    3  A    between atoms: C3_5  and  C4_6 
REMARK    4  A    between atoms: C4_6  and  C5_7 
REMARK    5  A    between atoms: C5_7  and  C6_8 
REMARK    6  A    between atoms: C6_8  and  C7_9 
REMARK    7  A    between atoms: C7_9  and  C8_10 
REMARK    8  A    between atoms: C8_10  and  C9_11 
REMARK    9  A    between atoms: C9_11  and  CA_12 
REMARK   10  A    between atoms: CA_12  and  CB_13 
REMARK   11  A    between atoms: CB_13  and  CC_14 
REMARK   12  A    between atoms: CC_14  and  CD_15 
REMARK   13  A    between atoms: CD_15  and  CE_16 
REMARK   14  A    between atoms: CE_16  and  CF_17 
ROOT
HETATM    1  C7  PLM B 602     -37.617 133.272  12.203  1.00 58.71     0.000 C 
ENDROOT
BRANCH   1   2
HETATM    2  C6  PLM B 602     -37.249 133.194  10.741  1.00 58.80     0.000 C 
BRANCH   2   3
HETATM    3  C5  PLM B 602     -37.302 131.803  10.158  1.00 59.93     0.000 C 
BRANCH   3   4
HETATM    4  C4  PLM B 602     -37.783 131.742   8.734  1.00 61.23     0.001 C 
BRANCH   4   5
HETATM    5  C3  PLM B 602     -36.789 131.112   7.769  1.00 63.10     0.010 C 
BRANCH   5   6
HETATM    6  C2  PLM B 602     -35.389 131.116   8.275  1.00 62.51     0.113 C 
BRANCH   6   7
HETATM    7  C1  PLM B 602     -34.492 130.118   7.572  1.00 63.36     0.172 C 
HETATM    8  O1  PLM B 602     -33.392 129.854   8.102  1.00 65.45    -0.648 OA
HETATM    9  O2  PLM B 602     -34.888 129.626   6.481  1.00 57.35    -0.648 OA
ENDBRANCH   6   7
ENDBRANCH   5   6
ENDBRANCH   4   5
ENDBRANCH   3   4
ENDBRANCH   2   3
ENDBRANCH   1   2
BRANCH   1  10
HETATM   10  C8  PLM B 602     -38.491 134.444  12.576  1.00 57.29     0.000 C 
BRANCH  10  11
HETATM   11  C9  PLM B 602     -39.524 134.796  11.541  1.00 58.28     0.000 C 
BRANCH  11  12
HETATM   12  CA  PLM B 602     -39.493 136.224  11.083  1.00 58.29     0.000 C 
BRANCH  12  13
HETATM   13  CB  PLM B 602     -39.460 136.353   9.589  1.00 59.03     0.000 C 
BRANCH  13  14
HETATM   14  CC  PLM B 602     -39.522 135.050   8.838  1.00 60.78     0.000 C 
BRANCH  14  15
HETATM   15  CD  PLM B 602     -40.713 134.908   7.914  1.00 60.58     0.000 C 
BRANCH  15  16
HETATM   16  CE  PLM B 602     -42.045 135.301   8.517  1.00 60.32    -0.000 C 
BRANCH  16  17
HETATM   17  CF  PLM B 602     -42.759 136.445   7.834  1.00 59.80    -0.005 C 
HETATM   18  CG  PLM B 602     -41.978 137.067   6.706  1.00 60.49     0.005 C 
ENDBRANCH  16  17
ENDBRANCH  15  16
ENDBRANCH  14  15
ENDBRANCH  13  14
ENDBRANCH  12  13
ENDBRANCH  11  12
ENDBRANCH  10  11
ENDBRANCH   1  10
TORSDOF 14
BEGIN_RES PHE A  61
REMARK  2 active torsions:
REMARK  status: ('A' for Active; 'I' for Inactive)
REMARK    1  A    between atoms: CA   and  CB  
REMARK    2  A    between atoms: CB   and  CG  
ROOT
ATOM      1  CA  PHE A  61     -36.237 128.293  12.768  1.00 39.40     0.164 C 
ENDROOT
BRANCH   1   2
ATOM      2  CB  PHE A  61     -36.813 128.951  11.509  1.00 39.41     0.058 C 
BRANCH   2   3
ATOM      3  CG  PHE A  61     -36.583 128.171  10.236  1.00 39.01    -0.020 A 
ATOM      4  CD2 PHE A  61     -37.589 128.035   9.294  1.00 40.32    -0.004 A 
ATOM      5  CE2 PHE A  61     -37.377 127.314   8.125  1.00 40.20    -0.000 A 
ATOM      6  CZ  PHE A  61     -36.156 126.727   7.884  1.00 40.34    -0.000 A 
ATOM      7  CE1 PHE A  61     -35.145 126.855   8.810  1.00 41.51    -0.000 A 
ATOM      8  CD1 PHE A  61     -35.358 127.570   9.982  1.00 39.94    -0.004 A 
ENDBRANCH   2   3
ENDBRANCH   1   2
END_RES PHE A  61
BEGIN_RES VAL A 134
REMARK  1 active torsions:
REMARK  status: ('A' for Active; 'I' for Inactive)
REMARK    3  A    between atoms: CA   and  CB  
ROOT
ATOM      9  CA  VAL A 134     -29.766 132.051   9.815  1.00 40.75     0.159 C 
ENDROOT
BRANCH   9  10
ATOM     10  CB  VAL A 134     -30.864 132.765   9.009  1.00 40.76     0.029 C 
ATOM     11  CG1 VAL A 134     -31.028 132.124   7.639  1.00 41.76     0.002 C 
ATOM     12  CG2 VAL A 134     -32.187 132.785   9.758  1.00 40.56     0.002 C 
ENDBRANCH   9  10
END_RES VAL A 134
BEGIN_RES TYR A 338
REMARK  3 active torsions:
REMARK  status: ('A' for Active; 'I' for Inactive)
REMARK    4  A    between atoms: CA   and  CB  
REMARK    5  A    between atoms: CB   and  CG  
REMARK    6  A    between atoms: CZ   and  OH  
ROOT
ATOM     13  CA  TYR A 338     -41.631 124.950   6.058  1.00 38.23     0.164 C 
ENDROOT
BRANCH  13  14
ATOM     14  CB  TYR A 338     -41.621 126.456   6.339  1.00 39.15     0.058 C 
BRANCH  14  15
ATOM     15  CG  TYR A 338     -40.388 127.201   5.881  1.00 39.03    -0.020 A 
ATOM     16  CD2 TYR A 338     -40.212 128.534   6.210  1.00 40.65    -0.002 A 
ATOM     17  CE2 TYR A 338     -39.101 129.252   5.794  1.00 40.91     0.024 A 
ATOM     18  CZ  TYR A 338     -38.132 128.633   5.027  1.00 42.33     0.089 A 
ATOM     19  CE1 TYR A 338     -38.283 127.300   4.690  1.00 40.63     0.024 A 
ATOM     20  CD1 TYR A 338     -39.408 126.603   5.105  1.00 39.27    -0.002 A 
BRANCH  18  21
ATOM     21  OH  TYR A 338     -37.031 129.330   4.616  1.00 43.36    -0.359 OA
ATOM     22  HH  TYR A 338     -36.175 129.134   4.978  1.00  0.00     0.217 HD
ENDBRANCH  18  21
ENDBRANCH  14  15
ENDBRANCH  13  14
END_RES TYR A 338
ENDMDL
MODEL 4
REMARK VINA RESULT:    -6.310      1.709      3.939
REMARK INTER + INTRA:         -20.932
REMARK INTER:                 -12.926
REMARK INTRA:                  -8.005
REMARK UNBOUND:                -9.458
REMARK  14 active torsions:
REMARK  status: ('A' for Active; 'I' for Inactive)
REMARK    1  A    between atoms: C1_1  and  C2_4 
REMARK    2  A    between atoms: C2_4  and  C3_5 
REMARK    3  A    between atoms: C3_5  and  C4_6 
REMARK    4  A    between atoms: C4_6  and  C5_7 
REMARK    5  A    between atoms: C5_7  and  C6_8 
REMARK    6  A    between atoms: C6_8  and  C7_9 
REMARK    7  A    between atoms: C7_9  and  C8_10 
REMARK    8  A    between atoms: C8_10  and  C9_11 
REMARK    9  A    between atoms: C9_11  and  CA_12 
REMARK   10  A    between atoms: CA_12  and  CB_13 
REMARK   11  A    between atoms: CB_13  and  CC_14 
REMARK   12  A    between atoms: CC_14  and  CD_15 
REMARK   13  A    between atoms: CD_15  and  CE_16 
REMARK   14  A    between atoms: CE_16  and  CF_17 
ROOT
HETATM    1  C7  PLM B 602     -37.993 133.721  10.959  1.00 58.71     0.000 C 
ENDROOT
BRANCH   1   2
HETATM    2  C6  PLM B 602     -38.704 134.428  12.088  1.00 58.80     0.000 C 
BRANCH   2   3
HETATM    3  C5  PLM B 602     -39.510 135.630  11.661  1.00 59.93     0.000 C 
BRANCH   3   4
HETATM    4  C4  PLM B 602     -39.081 136.235  10.352  1.00 61.23     0.001 C 
BRANCH   4   5
HETATM    5  C3  PLM B 602     -40.233 136.701   9.475  1.00 63.10     0.010 C 
BRANCH   5   6
HETATM    6  C2  PLM B 602     -39.919 136.676   8.021  1.00 62.51     0.113 C 
BRANCH   6   7
HETATM    7  C1  PLM B 602     -40.704 135.633   7.252  1.00 63.36     0.172 C 
HETATM    8  O1  PLM B 602     -40.501 134.432   7.533  1.00 65.45    -0.648 OA
HETATM    9  O2  PLM B 602     -41.499 136.026   6.357  1.00 57.35    -0.648 OA
ENDBRANCH   6   7
ENDBRANCH   5   6
ENDBRANCH   4   5
ENDBRANCH   3   4
ENDBRANCH   2   3
ENDBRANCH   1   2
BRANCH   1  10
HETATM   10  C8  PLM B 602     -36.933 132.739  11.393  1.00 57.29     0.000 C 
BRANCH  10  11
HETATM   11  C9  PLM B 602     -36.758 131.571  10.460  1.00 58.28     0.000 C 
BRANCH  11  12
HETATM   12  CA  PLM B 602     -37.503 131.687   9.164  1.00 58.29     0.000 C 
BRANCH  12  13
HETATM   13  CB  PLM B 602     -36.683 131.257   7.984  1.00 59.03     0.000 C 
BRANCH  13  14
HETATM   14  CC  PLM B 602     -35.231 130.994   8.281  1.00 60.78     0.000 C 
BRANCH  14  15
HETATM   15  CD  PLM B 602     -34.539 130.077   7.296  1.00 60.58     0.000 C 
BRANCH  15  16
HETATM   16  CE  PLM B 602     -33.219 129.504   7.769  1.00 60.32    -0.000 C 
BRANCH  16  17
HETATM   17  CF  PLM B 602     -32.336 128.919   6.691  1.00 59.80    -0.005 C 
HETATM   18  CG  PLM B 602     -32.678 127.498   6.325  1.00 60.49     0.005 C 
ENDBRANCH  16  17
ENDBRANCH  15  16
ENDBRANCH  14  15
ENDBRANCH  13  14
ENDBRANCH  12  13
ENDBRANCH  11  12
ENDBRANCH  10  11
ENDBRANCH   1  10
TORSDOF 14
BEGIN_RES PHE A  61
REMARK  2 active torsions:
REMARK  status: ('A' for Active; 'I' for Inactive)
REMARK    1  A    between atoms: CA   and  CB  
REMARK    2  A    between atoms: CB   and  CG  
ROOT
ATOM      1  CA  PHE A  61     -36.237 128.293  12.768  1.00 39.40     0.164 C 
ENDROOT
BRANCH   1   2
ATOM      2  CB  PHE A  61     -36.813 128.951  11.509  1.00 39.41     0.058 C 
BRANCH   2   3
ATOM      3  CG  PHE A  61     -36.582 128.172  10.236  1.00 39.01    -0.020 A 
ATOM      4  CD2 PHE A  61     -37.586 128.040   9.290  1.00 40.32    -0.004 A 
ATOM      5  CE2 PHE A  61     -37.373 127.320   8.121  1.00 40.20    -0.000 A 
ATOM      6  CZ  PHE A  61     -36.154 126.728   7.883  1.00 40.34    -0.000 A 
ATOM      7  CE1 PHE A  61     -35.145 126.852   8.813  1.00 41.51    -0.000 A 
ATOM      8  CD1 PHE A  61     -35.359 127.566   9.985  1.00 39.94    -0.004 A 
ENDBRANCH   2   3
ENDBRANCH   1   2
END_RES PHE A  61
BEGIN_RES VAL A 134
REMARK  1 active torsions:
REMARK  status: ('A' for Active; 'I' for Inactive)
REMARK    3  A    between atoms: CA   and  CB  
ROOT
ATOM      9  CA  VAL A 134     -29.766 132.051   9.815  1.00 40.75     0.159 C 
ENDROOT
BRANCH   9  10
ATOM     10  CB  VAL A 134     -30.864 132.765   9.009  1.00 40.76     0.029 C 
ATOM     11  CG1 VAL A 134     -30.977 132.173   7.612  1.00 41.76     0.002 C 
ATOM     12  CG2 VAL A 134     -32.205 132.720   9.725  1.00 40.56     0.002 C 
ENDBRANCH   9  10
END_RES VAL A 134
BEGIN_RES TYR A 338
REMARK  3 active torsions:
REMARK  status: ('A' for Active; 'I' for Inactive)
REMARK    4  A    between atoms: CA   and  CB  
REMARK    5  A    between atoms: CB   and  CG  
REMARK    6  A    between atoms: CZ   and  OH  
ROOT
ATOM     13  CA  TYR A 338     -41.631 124.950   6.058  1.00 38.23     0.164 C 
ENDROOT
BRANCH  13  14
ATOM     14  CB  TYR A 338     -41.621 126.456   6.339  1.00 39.15     0.058 C 
BRANCH  14  15
ATOM     15  CG  TYR A 338     -40.378 127.197   5.903  1.00 39.03    -0.020 A 
ATOM     16  CD2 TYR A 338     -40.195 128.524   6.250  1.00 40.65    -0.002 A 
ATOM     17  CE2 TYR A 338     -39.075 129.238   5.854  1.00 40.91     0.024 A 
ATOM     18  CZ  TYR A 338     -38.103 128.622   5.088  1.00 42.33     0.089 A 
ATOM     19  CE1 TYR A 338     -38.261 127.295   4.732  1.00 40.63     0.024 A 
ATOM     20  CD1 TYR A 338     -39.395 126.601   5.127  1.00 39.27    -0.002 A 
BRANCH  18  21
ATOM     21  OH  TYR A 338     -36.993 129.316   4.695  1.00 43.36    -0.359 OA
ATOM     22  HH  TYR A 338     -36.155 129.161   5.117  1.00  0.00     0.217 HD
ENDBRANCH  18  21
ENDBRANCH  14  15
ENDBRANCH  13  14
END_RES TYR A 338
ENDMDL
MODEL 5
REMARK VINA RESULT:    -6.294      1.499      1.642
REMARK INTER + INTRA:         -20.902
REMARK INTER:                 -11.562
REMARK INTRA:                  -9.340
REMARK UNBOUND:                -9.458
REMARK  14 active torsions:
REMARK  status: ('A' for Active; 'I' for Inactive)
REMARK    1  A    between atoms: C1_1  and  C2_4 
REMARK    2  A    between atoms: C2_4  and  C3_5 
REMARK    3  A    between atoms: C3_5  and  C4_6 
REMARK    4  A    between atoms: C4_6  and  C5_7 
REMARK    5  A    between atoms: C5_7  and  C6_8 
REMARK    6  A    between atoms: C6_8  and  C7_9 
REMARK    7  A    between atoms: C7_9  and  C8_10 
REMARK    8  A    between atoms: C8_10  and  C9_11 
REMARK    9  A    between atoms: C9_11  and  CA_12 
REMARK   10  A    between atoms: CA_12  and  CB_13 
REMARK   11  A    between atoms: CB_13  and  CC_14 
REMARK   12  A    between atoms: CC_14  and  CD_15 
REMARK   13  A    between atoms: CD_15  and  CE_16 
REMARK   14  A    between atoms: CE_16  and  CF_17 
ROOT
HETATM    1  C7  PLM B 602     -40.679 135.225   7.659  1.00 58.71     0.000 C 
ENDROOT
BRANCH   1   2
HETATM    2  C6  PLM B 602     -42.058 135.736   7.997  1.00 58.80     0.000 C 
BRANCH   2   3
HETATM    3  C5  PLM B 602     -42.646 136.668   6.968  1.00 59.93     0.000 C 
BRANCH   3   4
HETATM    4  C4  PLM B 602     -42.895 138.067   7.463  1.00 61.23     0.001 C 
BRANCH   4   5
HETATM    5  C3  PLM B 602     -41.780 138.625   8.335  1.00 63.10     0.010 C 
BRANCH   5   6
HETATM    6  C2  PLM B 602     -40.576 139.040   7.564  1.00 62.51     0.113 C 
BRANCH   6   7
HETATM    7  C1  PLM B 602     -40.724 140.394   6.900  1.00 63.36     0.172 C 
HETATM    8  O1  PLM B 602     -40.196 140.550   5.778  1.00 65.45    -0.648 OA
HETATM    9  O2  PLM B 602     -41.346 141.297   7.520  1.00 57.35    -0.648 OA
ENDBRANCH   6   7
ENDBRANCH   5   6
ENDBRANCH   4   5
ENDBRANCH   3   4
ENDBRANCH   2   3
ENDBRANCH   1   2
BRANCH   1  10
HETATM   10  C8  PLM B 602     -39.807 134.914   8.851  1.00 57.29     0.000 C 
BRANCH  10  11
HETATM   11  C9  PLM B 602     -40.132 135.721  10.079  1.00 58.28     0.000 C 
BRANCH  11  12
HETATM   12  CA  PLM B 602     -39.691 135.102  11.371  1.00 58.29     0.000 C 
BRANCH  12  13
HETATM   13  CB  PLM B 602     -38.199 135.099  11.532  1.00 59.03     0.000 C 
BRANCH  13  14
HETATM   14  CC  PLM B 602     -37.660 134.027  12.441  1.00 60.78     0.000 C 
BRANCH  14  15
HETATM   15  CD  PLM B 602     -37.194 132.772  11.734  1.00 60.58     0.000 C 
BRANCH  15  16
HETATM   16  CE  PLM B 602     -37.062 132.892  10.231  1.00 60.32    -0.000 C 
BRANCH  16  17
HETATM   17  CF  PLM B 602     -37.831 131.872   9.423  1.00 59.80    -0.005 C 
HETATM   18  CG  PLM B 602     -37.264 131.627   8.049  1.00 60.49     0.005 C 
ENDBRANCH  16  17
ENDBRANCH  15  16
ENDBRANCH  14  15
ENDBRANCH  13  14
ENDBRANCH  12  13
ENDBRANCH  11  12
ENDBRANCH  10  11
ENDBRANCH   1  10
TORSDOF 14
BEGIN_RES PHE A  61
REMARK  2 active torsions:
REMARK  status: ('A' for Active; 'I' for Inactive)
REMARK    1  A    between atoms: CA   and  CB  
REMARK    2  A    between atoms: CB   and  CG  
ROOT
ATOM      1  CA  PHE A  61     -36.237 128.293  12.768  1.00 39.40     0.164 C 
ENDROOT
BRANCH   1   2
ATOM      2  CB  PHE A  61     -36.813 128.951  11.509  1.00 39.41     0.058 C 
BRANCH   2   3
ATOM      3  CG  PHE A  61     -35.840 129.056  10.359  1.00 39.01    -0.020 A 
ATOM      4  CD2 PHE A  61     -34.701 129.838  10.460  1.00 40.32    -0.004 A 
ATOM      5  CE2 PHE A  61     -33.808 129.936   9.399  1.00 40.20    -0.000 A 
ATOM      6  CZ  PHE A  61     -34.043 129.250   8.229  1.00 40.34    -0.000 A 
ATOM      7  CE1 PHE A  61     -35.169 128.467   8.114  1.00 41.51    -0.000 A 
ATOM      8  CD1 PHE A  61     -36.065 128.374   9.171  1.00 39.94    -0.004 A 
ENDBRANCH   2   3
ENDBRANCH   1   2
END_RES PHE A  61
BEGIN_RES VAL A 134
REMARK  1 active torsions:
REMARK  status: ('A' for Active; 'I' for Inactive)
REMARK    3  A    between atoms: CA   and  CB  
ROOT
ATOM      9  CA  VAL A 134     -29.766 132.051   9.815  1.00 40.75     0.159 C 
ENDROOT
BRANCH   9  10
ATOM     10  CB  VAL A 134     -30.864 132.765   9.009  1.00 40.76     0.029 C 
ATOM     11  CG1 VAL A 134     -31.202 131.982   7.749  1.00 41.76     0.002 C 
ATOM     12  CG2 VAL A 134     -32.110 133.004   9.848  1.00 40.56     0.002 C 
ENDBRANCH   9  10
END_RES VAL A 134
BEGIN_RES TYR A 338
REMARK  3 active torsions:
REMARK  status: ('A' for Active; 'I' for Inactive)
REMARK    4  A    between atoms: CA   and  CB  
REMARK    5  A    between atoms: CB   and  CG  
REMARK    6  A    between atoms: CZ   and  OH  
ROOT
ATOM     13  CA  TYR A 338     -41.631 124.950   6.058  1.00 38.23     0.164 C 
ENDROOT
BRANCH  13  14
ATOM     14  CB  TYR A 338     -41.621 126.456   6.339  1.00 39.15     0.058 C 
BRANCH  14  15
ATOM     15  CG  TYR A 338     -40.345 127.182   5.980  1.00 39.03    -0.020 A 
ATOM     16  CD2 TYR A 338     -39.384 126.565   5.197  1.00 40.65    -0.002 A 
ATOM     17  CE2 TYR A 338     -38.196 127.195   4.861  1.00 40.91     0.024 A 
ATOM     18  CZ  TYR A 338     -37.947 128.477   5.314  1.00 42.33     0.089 A 
ATOM     19  CE1 TYR A 338     -38.894 129.116   6.094  1.00 40.63     0.024 A 
ATOM     20  CD1 TYR A 338     -40.070 128.464   6.430  1.00 39.27    -0.002 A 
BRANCH  18  21
ATOM     21  OH  TYR A 338     -36.781 129.109   4.986  1.00 43.36    -0.359 OA
ATOM     22  HH  TYR A 338     -36.795 129.901   4.461  1.00  0.00     0.217 HD
ENDBRANCH  18  21
ENDBRANCH  14  15
ENDBRANCH  13  14
END_RES TYR A 338
ENDMDL
MODEL 6
REMARK VINA RESULT:    -6.174      1.983      5.160
REMARK INTER + INTRA:         -20.685
REMARK INTER:                 -11.564
REMARK INTRA:                  -9.121
REMARK UNBOUND:                -9.458
REMARK  14 active torsions:
REMARK  status: ('A' for Active; 'I' for Inactive)
REMARK    1  A    between atoms: C1_1  and  C2_4 
REMARK    2  A    between atoms: C2_4  and  C3_5 
REMARK    3  A    between atoms: C3_5  and  C4_6 
REMARK    4  A    between atoms: C4_6  and  C5_7 
REMARK    5  A    between atoms: C5_7  and  C6_8 
REMARK    6  A    between atoms: C6_8  and  C7_9 
REMARK    7  A    between atoms: C7_9  and  C8_10 
REMARK    8  A    between atoms: C8_10  and  C9_11 
REMARK    9  A    between atoms: C9_11  and  CA_12 
REMARK   10  A    between atoms: CA_12  and  CB_13 
REMARK   11  A    between atoms: CB_13  and  CC_14 
REMARK   12  A    between atoms: CC_14  and  CD_15 
REMARK   13  A    between atoms: CD_15  and  CE_16 
REMARK   14  A    between atoms: CE_16  and  CF_17 
ROOT
HETATM    1  C7  PLM B 602     -38.979 135.550   9.585  1.00 58.71     0.000 C 
ENDROOT
BRANCH   1   2
HETATM    2  C6  PLM B 602     -39.439 135.257  10.993  1.00 58.80     0.000 C 
BRANCH   2   3
HETATM    3  C5  PLM B 602     -38.320 135.087  11.990  1.00 59.93     0.000 C 
BRANCH   3   4
HETATM    4  C4  PLM B 602     -38.085 133.667  12.429  1.00 61.23     0.001 C 
BRANCH   4   5
HETATM    5  C3  PLM B 602     -36.954 132.968  11.689  1.00 63.10     0.010 C 
BRANCH   5   6
HETATM    6  C2  PLM B 602     -37.408 132.219  10.485  1.00 62.51     0.113 C 
BRANCH   6   7
HETATM    7  C1  PLM B 602     -36.540 132.456   9.266  1.00 63.36     0.172 C 
HETATM    8  O1  PLM B 602     -35.652 133.331   9.348  1.00 65.45    -0.648 OA
HETATM    9  O2  PLM B 602     -36.773 131.780   8.228  1.00 57.35    -0.648 OA
ENDBRANCH   6   7
ENDBRANCH   5   6
ENDBRANCH   4   5
ENDBRANCH   3   4
ENDBRANCH   2   3
ENDBRANCH   1   2
BRANCH   1  10
HETATM   10  C8  PLM B 602     -39.457 134.567   8.544  1.00 57.29     0.000 C 
BRANCH  10  11
HETATM   11  C9  PLM B 602     -40.723 134.980   7.844  1.00 58.28     0.000 C 
BRANCH  11  12
HETATM   12  CA  PLM B 602     -40.878 136.459   7.649  1.00 58.29     0.000 C 
BRANCH  12  13
HETATM   13  CB  PLM B 602     -41.661 136.802   6.415  1.00 59.03     0.000 C 
BRANCH  13  14
HETATM   14  CC  PLM B 602     -40.839 137.310   5.262  1.00 60.78     0.000 C 
BRANCH  14  15
HETATM   15  CD  PLM B 602     -39.342 137.271   5.484  1.00 60.58     0.000 C 
BRANCH  15  16
HETATM   16  CE  PLM B 602     -38.503 137.387   4.229  1.00 60.32    -0.000 C 
BRANCH  16  17
HETATM   17  CF  PLM B 602     -37.458 138.479   4.240  1.00 59.80    -0.005 C 
HETATM   18  CG  PLM B 602     -37.923 139.777   3.632  1.00 60.49     0.005 C 
ENDBRANCH  16  17
ENDBRANCH  15  16
ENDBRANCH  14  15
ENDBRANCH  13  14
ENDBRANCH  12  13
ENDBRANCH  11  12
ENDBRANCH  10  11
ENDBRANCH   1  10
TORSDOF 14
BEGIN_RES PHE A  61
REMARK  2 active torsions:
REMARK  status: ('A' for Active; 'I' for Inactive)
REMARK    1  A    between atoms: CA   and  CB  
REMARK    2  A    between atoms: CB   and  CG  
ROOT
ATOM      1  CA  PHE A  61     -36.237 128.293  12.768  1.00 39.40     0.164 C 
ENDROOT
BRANCH   1   2
ATOM      2  CB  PHE A  61     -36.813 128.951  11.509  1.00 39.41     0.058 C 
BRANCH   2   3
ATOM      3  CG  PHE A  61     -35.849 129.030  10.350  1.00 39.01    -0.020 A 
ATOM      4  CD2 PHE A  61     -36.144 128.429   9.136  1.00 40.32    -0.004 A 
ATOM      5  CE2 PHE A  61     -35.254 128.500   8.072  1.00 40.20    -0.000 A 
ATOM      6  CZ  PHE A  61     -34.063 129.176   8.206  1.00 40.34    -0.000 A 
ATOM      7  CE1 PHE A  61     -33.756 129.781   9.405  1.00 41.51    -0.000 A 
ATOM      8  CD1 PHE A  61     -34.642 129.705  10.472  1.00 39.94    -0.004 A 
ENDBRANCH   2   3
ENDBRANCH   1   2
END_RES PHE A  61
BEGIN_RES VAL A 134
REMARK  1 active torsions:
REMARK  status: ('A' for Active; 'I' for Inactive)
REMARK    3  A    between atoms: CA   and  CB  
ROOT
ATOM      9  CA  VAL A 134     -29.766 132.051   9.815  1.00 40.75     0.159 C 
ENDROOT
BRANCH   9  10
ATOM     10  CB  VAL A 134     -30.864 132.765   9.009  1.00 40.76     0.029 C 
ATOM     11  CG1 VAL A 134     -31.217 131.971   7.760  1.00 41.76     0.002 C 
ATOM     12  CG2 VAL A 134     -32.102 133.023   9.854  1.00 40.56     0.002 C 
ENDBRANCH   9  10
END_RES VAL A 134
BEGIN_RES TYR A 338
REMARK  3 active torsions:
REMARK  status: ('A' for Active; 'I' for Inactive)
REMARK    4  A    between atoms: CA   and  CB  
REMARK    5  A    between atoms: CB   and  CG  
REMARK    6  A    between atoms: CZ   and  OH  
ROOT
ATOM     13  CA  TYR A 338     -41.631 124.950   6.058  1.00 38.23     0.164 C 
ENDROOT
BRANCH  13  14
ATOM     14  CB  TYR A 338     -41.621 126.456   6.339  1.00 39.15     0.058 C 
BRANCH  14  15
ATOM     15  CG  TYR A 338     -40.350 127.185   5.966  1.00 39.03    -0.020 A 
ATOM     16  CD2 TYR A 338     -39.428 126.596   5.117  1.00 40.65    -0.002 A 
ATOM     17  CE2 TYR A 338     -38.246 127.229   4.767  1.00 40.91     0.024 A 
ATOM     18  CZ  TYR A 338     -37.962 128.483   5.273  1.00 42.33     0.089 A 
ATOM     19  CE1 TYR A 338     -38.870 129.094   6.120  1.00 40.63     0.024 A 
ATOM     20  CD1 TYR A 338     -40.042 128.439   6.468  1.00 39.27    -0.002 A 
BRANCH  18  21
ATOM     21  OH  TYR A 338     -36.801 129.118   4.931  1.00 43.36    -0.359 OA
ATOM     22  HH  TYR A 338     -35.962 128.702   5.087  1.00  0.00     0.217 HD
ENDBRANCH  18  21
ENDBRANCH  14  15
ENDBRANCH  13  14
END_RES TYR A 338
ENDMDL
MODEL 7
REMARK VINA RESULT:    -5.954      2.071      5.238
REMARK INTER + INTRA:         -20.285
REMARK INTER:                 -10.958
REMARK INTRA:                  -9.327
REMARK UNBOUND:                -9.458
REMARK  14 active torsions:
REMARK  status: ('A' for Active; 'I' for Inactive)
REMARK    1  A    between atoms: C1_1  and  C2_4 
REMARK    2  A    between atoms: C2_4  and  C3_5 
REMARK    3  A    between atoms: C3_5  and  C4_6 
REMARK    4  A    between atoms: C4_6  and  C5_7 
REMARK    5  A    between atoms: C5_7  and  C6_8 
REMARK    6  A    between atoms: C6_8  and  C7_9 
REMARK    7  A    between atoms: C7_9  and  C8_10 
REMARK    8  A    between atoms: C8_10  and  C9_11 
REMARK    9  A    between atoms: C9_11  and  CA_12 
REMARK   10  A    between atoms: CA_12  and  CB_13 
REMARK   11  A    between atoms: CB_13  and  CC_14 
REMARK   12  A    between atoms: CC_14  and  CD_15 
REMARK   13  A    between atoms: CD_15  and  CE_16 
REMARK   14  A    between atoms: CE_16  and  CF_17 
ROOT
HETATM    1  C7  PLM B 602     -39.218 136.125   9.047  1.00 58.71     0.000 C 
ENDROOT
BRANCH   1   2
HETATM    2  C6  PLM B 602     -39.838 136.243  10.418  1.00 58.80     0.000 C 
BRANCH   2   3
HETATM    3  C5  PLM B 602     -39.605 135.051  11.312  1.00 59.93     0.000 C 
BRANCH   3   4
HETATM    4  C4  PLM B 602     -38.165 134.821  11.681  1.00 61.23     0.001 C 
BRANCH   4   5
HETATM    5  C3  PLM B 602     -37.881 133.436  12.243  1.00 63.10     0.010 C 
BRANCH   5   6
HETATM    6  C2  PLM B 602     -36.743 132.747  11.574  1.00 62.51     0.113 C 
BRANCH   6   7
HETATM    7  C1  PLM B 602     -36.874 132.697  10.065  1.00 63.36     0.172 C 
HETATM    8  O1  PLM B 602     -36.042 133.340   9.391  1.00 65.45    -0.648 OA
HETATM    9  O2  PLM B 602     -37.824 132.033   9.571  1.00 57.35    -0.648 OA
ENDBRANCH   6   7
ENDBRANCH   5   6
ENDBRANCH   4   5
ENDBRANCH   3   4
ENDBRANCH   2   3
ENDBRANCH   1   2
BRANCH   1  10
HETATM   10  C8  PLM B 602     -39.923 135.175   8.110  1.00 57.29     0.000 C 
BRANCH  10  11
HETATM   11  C9  PLM B 602     -40.528 135.838   6.902  1.00 58.28     0.000 C 
BRANCH  11  12
HETATM   12  CA  PLM B 602     -39.629 136.818   6.209  1.00 58.29     0.000 C 
BRANCH  12  13
HETATM   13  CB  PLM B 602     -40.232 138.188   6.112  1.00 59.03     0.000 C 
BRANCH  13  14
HETATM   14  CC  PLM B 602     -41.723 138.243   6.315  1.00 60.78     0.000 C 
BRANCH  14  15
HETATM   15  CD  PLM B 602     -42.161 138.856   7.627  1.00 60.58     0.000 C 
BRANCH  15  16
HETATM   16  CE  PLM B 602     -43.222 138.079   8.378  1.00 60.32    -0.000 C 
BRANCH  16  17
HETATM   17  CF  PLM B 602     -43.983 137.058   7.565  1.00 59.80    -0.005 C 
HETATM   18  CG  PLM B 602     -44.810 136.109   8.393  1.00 60.49     0.005 C 
ENDBRANCH  16  17
ENDBRANCH  15  16
ENDBRANCH  14  15
ENDBRANCH  13  14
ENDBRANCH  12  13
ENDBRANCH  11  12
ENDBRANCH  10  11
ENDBRANCH   1  10
TORSDOF 14
BEGIN_RES PHE A  61
REMARK  2 active torsions:
REMARK  status: ('A' for Active; 'I' for Inactive)
REMARK    1  A    between atoms: CA   and  CB  
REMARK    2  A    between atoms: CB   and  CG  
ROOT
ATOM      1  CA  PHE A  61     -36.237 128.293  12.768  1.00 39.40     0.164 C 
ENDROOT
BRANCH   1   2
ATOM      2  CB  PHE A  61     -36.813 128.951  11.509  1.00 39.41     0.058 C 
BRANCH   2   3
ATOM      3  CG  PHE A  61     -35.847 129.035  10.351  1.00 39.01    -0.020 A 
ATOM      4  CD2 PHE A  61     -36.104 128.374   9.161  1.00 40.32    -0.004 A 
ATOM      5  CE2 PHE A  61     -35.212 128.450   8.098  1.00 40.20    -0.000 A 
ATOM      6  CZ  PHE A  61     -34.058 129.191   8.212  1.00 40.34    -0.000 A 
ATOM      7  CE1 PHE A  61     -33.789 129.855   9.388  1.00 41.51    -0.000 A 
ATOM      8  CD1 PHE A  61     -34.677 129.774  10.453  1.00 39.94    -0.004 A 
ENDBRANCH   2   3
ENDBRANCH   1   2
END_RES PHE A  61
BEGIN_RES VAL A 134
REMARK  1 active torsions:
REMARK  status: ('A' for Active; 'I' for Inactive)
REMARK    3  A    between atoms: CA   and  CB  
ROOT
ATOM      9  CA  VAL A 134     -29.766 132.051   9.815  1.00 40.75     0.159 C 
ENDROOT
BRANCH   9  10
ATOM     10  CB  VAL A 134     -30.864 132.765   9.009  1.00 40.76     0.029 C 
ATOM     11  CG1 VAL A 134     -31.197 131.985   7.745  1.00 41.76     0.002 C 
ATOM     12  CG2 VAL A 134     -32.113 132.997   9.845  1.00 40.56     0.002 C 
ENDBRANCH   9  10
END_RES VAL A 134
BEGIN_RES TYR A 338
REMARK  3 active torsions:
REMARK  status: ('A' for Active; 'I' for Inactive)
REMARK    4  A    between atoms: CA   and  CB  
REMARK    5  A    between atoms: CB   and  CG  
REMARK    6  A    between atoms: CZ   and  OH  
ROOT
ATOM     13  CA  TYR A 338     -41.631 124.950   6.058  1.00 38.23     0.164 C 
ENDROOT
BRANCH  13  14
ATOM     14  CB  TYR A 338     -41.621 126.456   6.339  1.00 39.15     0.058 C 
BRANCH  14  15
ATOM     15  CG  TYR A 338     -40.339 127.179   5.996  1.00 39.03    -0.020 A 
ATOM     16  CD2 TYR A 338     -39.393 126.580   5.182  1.00 40.65    -0.002 A 
ATOM     17  CE2 TYR A 338     -38.199 127.207   4.860  1.00 40.91     0.024 A 
ATOM     18  CZ  TYR A 338     -37.929 128.467   5.360  1.00 42.33     0.089 A 
ATOM     19  CE1 TYR A 338     -38.861 129.089   6.172  1.00 40.63     0.024 A 
ATOM     20  CD1 TYR A 338     -40.044 128.439   6.493  1.00 39.27    -0.002 A 
BRANCH  18  21
ATOM     21  OH  TYR A 338     -36.757 129.097   5.046  1.00 43.36    -0.359 OA
ATOM     22  HH  TYR A 338     -36.395 129.029   4.170  1.00  0.00     0.217 HD
ENDBRANCH  18  21
ENDBRANCH  14  15
ENDBRANCH  13  14
END_RES TYR A 338
ENDMDL
MODEL 8
REMARK VINA RESULT:    -5.935      2.467      5.189
REMARK INTER + INTRA:         -20.250
REMARK INTER:                 -10.593
REMARK INTRA:                  -9.657
REMARK UNBOUND:                -9.458
REMARK  14 active torsions:
REMARK  status: ('A' for Active; 'I' for Inactive)
REMARK    1  A    between atoms: C1_1  and  C2_4 
REMARK    2  A    between atoms: C2_4  and  C3_5 
REMARK    3  A    between atoms: C3_5  and  C4_6 
REMARK    4  A    between atoms: C4_6  and  C5_7 
REMARK    5  A    between atoms: C5_7  and  C6_8 
REMARK    6  A    between atoms: C6_8  and  C7_9 
REMARK    7  A    between atoms: C7_9  and  C8_10 
REMARK    8  A    between atoms: C8_10  and  C9_11 
REMARK    9  A    between atoms: C9_11  and  CA_12 
REMARK   10  A    between atoms: CA_12  and  CB_13 
REMARK   11  A    between atoms: CB_13  and  CC_14 
REMARK   12  A    between atoms: CC_14  and  CD_15 
REMARK   13  A    between atoms: CD_15  and  CE_16 
REMARK   14  A    between atoms: CE_16  and  CF_17 
ROOT
HETATM    1  C7  PLM B 602     -42.127 135.599   8.456  1.00 58.71     0.000 C 
ENDROOT
BRANCH   1   2
HETATM    2  C6  PLM B 602     -40.889 134.963   7.872  1.00 58.80     0.000 C 
BRANCH   2   3
HETATM    3  C5  PLM B 602     -39.626 135.227   8.652  1.00 59.93     0.000 C 
BRANCH   3   4
HETATM    4  C4  PLM B 602     -39.831 135.990   9.932  1.00 61.23     0.001 C 
BRANCH   4   5
HETATM    5  C3  PLM B 602     -39.805 135.124  11.183  1.00 63.10     0.010 C 
BRANCH   5   6
HETATM    6  C2  PLM B 602     -38.623 134.222  11.253  1.00 62.51     0.113 C 
BRANCH   6   7
HETATM    7  C1  PLM B 602     -37.877 134.308  12.570  1.00 63.36     0.172 C 
HETATM    8  O1  PLM B 602     -38.226 133.533  13.485  1.00 65.45    -0.648 OA
HETATM    9  O2  PLM B 602     -36.965 135.171  12.682  1.00 57.35    -0.648 OA
ENDBRANCH   6   7
ENDBRANCH   5   6
ENDBRANCH   4   5
ENDBRANCH   3   4
ENDBRANCH   2   3
ENDBRANCH   1   2
BRANCH   1  10
HETATM   10  C8  PLM B 602     -42.943 136.414   7.483  1.00 57.29     0.000 C 
BRANCH  10  11
HETATM   11  C9  PLM B 602     -43.100 137.860   7.870  1.00 58.28     0.000 C 
BRANCH  11  12
HETATM   12  CA  PLM B 602     -41.811 138.595   8.084  1.00 58.29     0.000 C 
BRANCH  12  13
HETATM   13  CB  PLM B 602     -41.189 139.059   6.799  1.00 59.03     0.000 C 
BRANCH  13  14
HETATM   14  CC  PLM B 602     -40.040 138.219   6.310  1.00 60.78     0.000 C 
BRANCH  14  15
HETATM   15  CD  PLM B 602     -40.334 137.401   5.072  1.00 60.58     0.000 C 
BRANCH  15  16
HETATM   16  CE  PLM B 602     -39.218 137.357   4.049  1.00 60.32    -0.000 C 
BRANCH  16  17
HETATM   17  CF  PLM B 602     -37.996 138.183   4.379  1.00 59.80    -0.005 C 
HETATM   18  CG  PLM B 602     -37.779 139.351   3.453  1.00 60.49     0.005 C 
ENDBRANCH  16  17
ENDBRANCH  15  16
ENDBRANCH  14  15
ENDBRANCH  13  14
ENDBRANCH  12  13
ENDBRANCH  11  12
ENDBRANCH  10  11
ENDBRANCH   1  10
TORSDOF 14
BEGIN_RES PHE A  61
REMARK  2 active torsions:
REMARK  status: ('A' for Active; 'I' for Inactive)
REMARK    1  A    between atoms: CA   and  CB  
REMARK    2  A    between atoms: CB   and  CG  
ROOT
ATOM      1  CA  PHE A  61     -36.237 128.293  12.768  1.00 39.40     0.164 C 
ENDROOT
BRANCH   1   2
ATOM      2  CB  PHE A  61     -36.813 128.951  11.509  1.00 39.41     0.058 C 
BRANCH   2   3
ATOM      3  CG  PHE A  61     -35.850 129.028  10.349  1.00 39.01    -0.020 A 
ATOM      4  CD2 PHE A  61     -34.715 129.821  10.417  1.00 40.32    -0.004 A 
ATOM      5  CE2 PHE A  61     -33.831 129.893   9.348  1.00 40.20    -0.000 A 
ATOM      6  CZ  PHE A  61     -34.070 129.172   8.201  1.00 40.34    -0.000 A 
ATOM      7  CE1 PHE A  61     -35.192 128.377   8.117  1.00 41.51    -0.000 A 
ATOM      8  CD1 PHE A  61     -36.079 128.310   9.184  1.00 39.94    -0.004 A 
ENDBRANCH   2   3
ENDBRANCH   1   2
END_RES PHE A  61
BEGIN_RES VAL A 134
REMARK  1 active torsions:
REMARK  status: ('A' for Active; 'I' for Inactive)
REMARK    3  A    between atoms: CA   and  CB  
ROOT
ATOM      9  CA  VAL A 134     -29.766 132.051   9.815  1.00 40.75     0.159 C 
ENDROOT
BRANCH   9  10
ATOM     10  CB  VAL A 134     -30.864 132.765   9.009  1.00 40.76     0.029 C 
ATOM     11  CG1 VAL A 134     -31.213 131.974   7.757  1.00 41.76     0.002 C 
ATOM     12  CG2 VAL A 134     -32.105 133.018   9.852  1.00 40.56     0.002 C 
ENDBRANCH   9  10
END_RES VAL A 134
BEGIN_RES TYR A 338
REMARK  3 active torsions:
REMARK  status: ('A' for Active; 'I' for Inactive)
REMARK    4  A    between atoms: CA   and  CB  
REMARK    5  A    between atoms: CB   and  CG  
REMARK    6  A    between atoms: CZ   and  OH  
ROOT
ATOM     13  CA  TYR A 338     -41.631 124.950   6.058  1.00 38.23     0.164 C 
ENDROOT
BRANCH  13  14
ATOM     14  CB  TYR A 338     -41.621 126.456   6.339  1.00 39.15     0.058 C 
BRANCH  14  15
ATOM     15  CG  TYR A 338     -40.333 127.176   6.012  1.00 39.03    -0.020 A 
ATOM     16  CD2 TYR A 338     -40.101 128.452   6.497  1.00 40.65    -0.002 A 
ATOM     17  CE2 TYR A 338     -38.938 129.147   6.204  1.00 40.91     0.024 A 
ATOM     18  CZ  TYR A 338     -37.972 128.565   5.405  1.00 42.33     0.089 A 
ATOM     19  CE1 TYR A 338     -38.179 127.288   4.912  1.00 40.63     0.024 A 
ATOM     20  CD1 TYR A 338     -39.355 126.615   5.206  1.00 39.27    -0.002 A 
BRANCH  18  21
ATOM     21  OH  TYR A 338     -36.820 129.240   5.113  1.00 43.36    -0.359 OA
ATOM     22  HH  TYR A 338     -36.025 129.068   5.604  1.00  0.00     0.217 HD
ENDBRANCH  18  21
ENDBRANCH  14  15
ENDBRANCH  13  14
END_RES TYR A 338
ENDMDL
MODEL 9
REMARK VINA RESULT:    -5.865      2.870      5.933
REMARK INTER + INTRA:         -20.123
REMARK INTER:                 -10.759
REMARK INTRA:                  -9.365
REMARK UNBOUND:                -9.458
REMARK  14 active torsions:
REMARK  status: ('A' for Active; 'I' for Inactive)
REMARK    1  A    between atoms: C1_1  and  C2_4 
REMARK    2  A    between atoms: C2_4  and  C3_5 
REMARK    3  A    between atoms: C3_5  and  C4_6 
REMARK    4  A    between atoms: C4_6  and  C5_7 
REMARK    5  A    between atoms: C5_7  and  C6_8 
REMARK    6  A    between atoms: C6_8  and  C7_9 
REMARK    7  A    between atoms: C7_9  and  C8_10 
REMARK    8  A    between atoms: C8_10  and  C9_11 
REMARK    9  A    between atoms: C9_11  and  CA_12 
REMARK   10  A    between atoms: CA_12  and  CB_13 
REMARK   11  A    between atoms: CB_13  and  CC_14 
REMARK   12  A    between atoms: CC_14  and  CD_15 
REMARK   13  A    between atoms: CD_15  and  CE_16 
REMARK   14  A    between atoms: CE_16  and  CF_17 
ROOT
HETATM    1  C7  PLM B 602     -39.868 136.281   7.194  1.00 58.71     0.000 C 
ENDROOT
BRANCH   1   2
HETATM    2  C6  PLM B 602     -39.880 135.101   8.135  1.00 58.80     0.000 C 
BRANCH   2   3
HETATM    3  C5  PLM B 602     -40.607 135.346   9.433  1.00 59.93     0.000 C 
BRANCH   3   4
HETATM    4  C4  PLM B 602     -39.772 135.998  10.502  1.00 61.23     0.001 C 
BRANCH   4   5
HETATM    5  C3  PLM B 602     -39.475 135.098  11.693  1.00 63.10     0.010 C 
BRANCH   5   6
HETATM    6  C2  PLM B 602     -38.355 134.148  11.452  1.00 62.51     0.113 C 
BRANCH   6   7
HETATM    7  C1  PLM B 602     -37.604 133.769  12.713  1.00 63.36     0.172 C 
HETATM    8  O1  PLM B 602     -38.253 133.719  13.779  1.00 65.45    -0.648 OA
HETATM    9  O2  PLM B 602     -36.366 133.550  12.626  1.00 57.35    -0.648 OA
ENDBRANCH   6   7
ENDBRANCH   5   6
ENDBRANCH   4   5
ENDBRANCH   3   4
ENDBRANCH   2   3
ENDBRANCH   1   2
BRANCH   1  10
HETATM   10  C8  PLM B 602     -41.040 136.349   6.245  1.00 57.29     0.000 C 
BRANCH  10  11
HETATM   11  C9  PLM B 602     -42.083 137.363   6.628  1.00 58.28     0.000 C 
BRANCH  11  12
HETATM   12  CA  PLM B 602     -43.285 136.795   7.324  1.00 58.29     0.000 C 
BRANCH  12  13
HETATM   13  CB  PLM B 602     -43.924 137.773   8.265  1.00 59.03     0.000 C 
BRANCH  13  14
HETATM   14  CC  PLM B 602     -43.019 138.872   8.751  1.00 60.78     0.000 C 
BRANCH  14  15
HETATM   15  CD  PLM B 602     -43.472 140.271   8.394  1.00 60.58     0.000 C 
BRANCH  15  16
HETATM   16  CE  PLM B 602     -42.643 140.964   7.333  1.00 60.32    -0.000 C 
BRANCH  16  17
HETATM   17  CF  PLM B 602     -43.380 141.335   6.067  1.00 59.80    -0.005 C 
HETATM   18  CG  PLM B 602     -44.568 140.457   5.771  1.00 60.49     0.005 C 
ENDBRANCH  16  17
ENDBRANCH  15  16
ENDBRANCH  14  15
ENDBRANCH  13  14
ENDBRANCH  12  13
ENDBRANCH  11  12
ENDBRANCH  10  11
ENDBRANCH   1  10
TORSDOF 14
BEGIN_RES PHE A  61
REMARK  2 active torsions:
REMARK  status: ('A' for Active; 'I' for Inactive)
REMARK    1  A    between atoms: CA   and  CB  
REMARK    2  A    between atoms: CB   and  CG  
ROOT
ATOM      1  CA  PHE A  61     -36.237 128.293  12.768  1.00 39.40     0.164 C 
ENDROOT
BRANCH   1   2
ATOM      2  CB  PHE A  61     -36.813 128.951  11.509  1.00 39.41     0.058 C 
BRANCH   2   3
ATOM      3  CG  PHE A  61     -35.876 128.959  10.325  1.00 39.01    -0.020 A 
ATOM      4  CD2 PHE A  61     -36.108 128.144   9.228  1.00 40.32    -0.004 A 
ATOM      5  CE2 PHE A  61     -35.243 128.150   8.141  1.00 40.20    -0.000 A 
ATOM      6  CZ  PHE A  61     -34.141 128.973   8.136  1.00 40.34    -0.000 A 
ATOM      7  CE1 PHE A  61     -33.897 129.791   9.217  1.00 41.51    -0.000 A 
ATOM      8  CD1 PHE A  61     -34.758 129.781  10.307  1.00 39.94    -0.004 A 
ENDBRANCH   2   3
ENDBRANCH   1   2
END_RES PHE A  61
BEGIN_RES VAL A 134
REMARK  1 active torsions:
REMARK  status: ('A' for Active; 'I' for Inactive)
REMARK    3  A    between atoms: CA   and  CB  
ROOT
ATOM      9  CA  VAL A 134     -29.766 132.051   9.815  1.00 40.75     0.159 C 
ENDROOT
BRANCH   9  10
ATOM     10  CB  VAL A 134     -30.864 132.765   9.009  1.00 40.76     0.029 C 
ATOM     11  CG1 VAL A 134     -31.186 131.993   7.738  1.00 41.76     0.002 C 
ATOM     12  CG2 VAL A 134     -32.118 132.984   9.841  1.00 40.56     0.002 C 
ENDBRANCH   9  10
END_RES VAL A 134
BEGIN_RES TYR A 338
REMARK  3 active torsions:
REMARK  status: ('A' for Active; 'I' for Inactive)
REMARK    4  A    between atoms: CA   and  CB  
REMARK    5  A    between atoms: CB   and  CG  
REMARK    6  A    between atoms: CZ   and  OH  
ROOT
ATOM     13  CA  TYR A 338     -41.631 124.950   6.058  1.00 38.23     0.164 C 
ENDROOT
BRANCH  13  14
ATOM     14  CB  TYR A 338     -41.621 126.456   6.339  1.00 39.15     0.058 C 
BRANCH  14  15
ATOM     15  CG  TYR A 338     -40.326 127.172   6.031  1.00 39.03    -0.020 A 
ATOM     16  CD2 TYR A 338     -40.102 128.452   6.510  1.00 40.65    -0.002 A 
ATOM     17  CE2 TYR A 338     -38.933 129.144   6.234  1.00 40.91     0.024 A 
ATOM     18  CZ  TYR A 338     -37.953 128.554   5.458  1.00 42.33     0.089 A 
ATOM     19  CE1 TYR A 338     -38.152 127.274   4.972  1.00 40.63     0.024 A 
ATOM     20  CD1 TYR A 338     -39.333 126.604   5.248  1.00 39.27    -0.002 A 
BRANCH  18  21
ATOM     21  OH  TYR A 338     -36.795 129.226   5.183  1.00 43.36    -0.359 OA
ATOM     22  HH  TYR A 338     -36.630 129.563   4.310  1.00  0.00     0.217 HD
ENDBRANCH  18  21
ENDBRANCH  14  15
ENDBRANCH  13  14
END_RES TYR A 338
ENDMDL
