MODEL 1
REMARK VINA RESULT:   -11.185      0.000      0.000
REMARK INTER + INTRA:         -18.644
REMARK INTER:                 -11.185
REMARK INTRA:                  -7.458
REMARK UNBOUND:                -7.458
REMARK  0 active torsions:
REMARK  status: ('A' for Active; 'I' for Inactive)
REMARK       I    between atoms: C9_8  and  C8_9 
REMARK       I    between atoms: C8_9  and  O1_10 
REMARK       I    between atoms: O1_10  and  C7_11 
REMARK       I    between atoms: C3_16  and  C2_17 
REMARK       I    between atoms: C2_17  and  O_18 
REMARK       I    between atoms: C2_17  and  C1_20 
REMARK       I    between atoms: C1_20  and  C_21 
REMARK       I    between atoms: C_21  and  N_22 
ROOT
HETATM    1  F1  XQ7 B 603     -43.981 139.564   6.585  1.00 89.50    -0.206 F 
HETATM    2  C12 XQ7 B 603     -43.126 138.694   7.221  1.00 90.63     0.243 C 
HETATM    3  F   XQ7 B 603     -42.925 139.257   8.462  1.00 90.25    -0.206 F 
HETATM    4  C11 XQ7 B 603     -43.792 137.361   7.378  1.00 89.14     0.079 C 
HETATM    5  C10 XQ7 B 603     -42.836 136.325   7.978  1.00 85.92     0.013 C 
HETATM    6  C13 XQ7 B 603     -41.826 138.643   6.482  1.00 88.46     0.079 C 
HETATM    7  C14 XQ7 B 603     -40.885 137.610   7.104  1.00 86.13     0.013 C 
HETATM    8  C9  XQ7 B 603     -41.531 136.230   7.185  1.00 81.25     0.010 C 
HETATM    9  C8  XQ7 B 603     -40.561 135.243   7.803  1.00 76.24     0.180 C 
HETATM   10  O1  XQ7 B 603     -40.557 135.466   9.222  1.00 68.93    -0.351 OA
HETATM   11  C7  XQ7 B 603     -39.599 134.889  10.026  1.00 64.09     0.069 A 
HETATM   12  C6  XQ7 B 603     -39.679 135.079  11.391  1.00 62.20     0.037 A 
HETATM   13  C5  XQ7 B 603     -38.754 134.467  12.215  1.00 61.57     0.003 A 
HETATM   14  C4  XQ7 B 603     -37.747 133.686  11.680  1.00 62.22     0.010 A 
HETATM   15  C15 XQ7 B 603     -38.589 134.102   9.481  1.00 62.13     0.046 A 
HETATM   16  C3  XQ7 B 603     -37.648 133.495  10.312  1.00 59.17    -0.027 A 
HETATM   17  C2  XQ7 B 603     -36.505 132.666   9.756  1.00 59.30     0.152 C 
HETATM   18  O   XQ7 B 603     -35.435 133.481   9.291  1.00 63.67    -0.391 OA
ATOM     19  HO  XQ7 B 603     -34.720 132.963   8.942  1.00  0.00     0.210 HD
HETATM   20  C1  XQ7 B 603     -36.931 131.710   8.651  1.00 56.81     0.064 C 
HETATM   21  C   XQ7 B 603     -35.817 130.749   8.267  1.00 56.65     0.232 C 
HETATM   22  N   XQ7 B 603     -34.775 131.330   7.429  1.00 54.87    -0.079 N 
ATOM     23  HN1 XQ7 B 603     -34.028 130.686   7.172  1.00  0.00     0.274 HD
ATOM     24  HN2 XQ7 B 603     -34.387 132.163   7.873  1.00  0.00     0.274 HD
ATOM     25  HN3 XQ7 B 603     -35.184 131.750   6.595  1.00  0.00     0.274 HD
ENDROOT
TORSDOF 8
BEGIN_RES PHE A  61
REMARK  2 active torsions:
REMARK  status: ('A' for Active; 'I' for Inactive)
REMARK    1  A    between atoms: CA   and  CB  
REMARK    2  A    between atoms: CB   and  CG  
ROOT
ATOM      1  CA  PHE A  61     -36.237 128.293  12.768  1.00 39.40     0.164 C 
ENDROOT
BRANCH   1   2
ATOM      2  CB  PHE A  61     -36.813 128.951  11.509  1.00 39.41     0.058 C 
BRANCH   2   3
ATOM      3  CG  PHE A  61     -36.546 128.193  10.231  1.00 39.01    -0.020 A 
ATOM      4  CD2 PHE A  61     -37.574 127.902   9.348  1.00 40.32    -0.004 A 
ATOM      5  CE2 PHE A  61     -37.327 127.201   8.174  1.00 40.20    -0.000 A 
ATOM      6  CZ  PHE A  61     -36.051 126.788   7.868  1.00 40.34    -0.000 A 
ATOM      7  CE1 PHE A  61     -35.018 127.071   8.734  1.00 41.51    -0.000 A 
ATOM      8  CD1 PHE A  61     -35.265 127.765   9.911  1.00 39.94    -0.004 A 
ENDBRANCH   2   3
ENDBRANCH   1   2
END_RES PHE A  61
BEGIN_RES VAL A 134
REMARK  1 active torsions:
REMARK  status: ('A' for Active; 'I' for Inactive)
REMARK    3  A    between atoms: CA   and  CB  
ROOT
ATOM      9  CA  VAL A 134     -29.766 132.051   9.815  1.00 40.75     0.159 C 
ENDROOT
BRANCH   9  10
ATOM     10  CB  VAL A 134     -30.864 132.765   9.009  1.00 40.76     0.029 C 
ATOM     11  CG1 VAL A 134     -31.177 132.001   7.731  1.00 41.76     0.002 C 
ATOM     12  CG2 VAL A 134     -32.123 132.972   9.837  1.00 40.56     0.002 C 
ENDBRANCH   9  10
END_RES VAL A 134
BEGIN_RES TYR A 338
REMARK  3 active torsions:
REMARK  status: ('A' for Active; 'I' for Inactive)
REMARK    4  A    between atoms: CA   and  CB  
REMARK    5  A    between atoms: CB   and  CG  
REMARK    6  A    between atoms: CZ   and  OH  
ROOT
ATOM     13  CA  TYR A 338     -41.631 124.950   6.058  1.00 38.23     0.164 C 
ENDROOT
BRANCH  13  14
ATOM     14  CB  TYR A 338     -41.621 126.456   6.339  1.00 39.15     0.058 C 
BRANCH  14  15
ATOM     15  CG  TYR A 338     -40.375 127.195   5.910  1.00 39.03    -0.020 A 
ATOM     16  CD2 TYR A 338     -40.173 128.510   6.293  1.00 40.65    -0.002 A 
ATOM     17  CE2 TYR A 338     -39.049 129.223   5.905  1.00 40.91     0.024 A 
ATOM     18  CZ  TYR A 338     -38.093 128.619   5.111  1.00 42.33     0.089 A 
ATOM     19  CE1 TYR A 338     -38.270 127.304   4.718  1.00 40.63     0.024 A 
ATOM     20  CD1 TYR A 338     -39.407 126.612   5.106  1.00 39.27    -0.002 A 
BRANCH  18  21
ATOM     21  OH  TYR A 338     -36.979 129.311   4.725  1.00 43.36    -0.359 OA
ATOM     22  HH  TYR A 338     -36.410 129.706   5.376  1.00  0.00     0.217 HD
ENDBRANCH  18  21
ENDBRANCH  14  15
ENDBRANCH  13  14
END_RES TYR A 338
ENDMDL
MODEL 2
REMARK VINA RESULT:    -9.296      3.350      6.023
REMARK INTER + INTRA:         -16.754
REMARK INTER:                  -9.081
REMARK INTRA:                  -7.673
REMARK UNBOUND:                -7.458
REMARK  0 active torsions:
REMARK  status: ('A' for Active; 'I' for Inactive)
REMARK       I    between atoms: C9_8  and  C8_9 
REMARK       I    between atoms: C8_9  and  O1_10 
REMARK       I    between atoms: O1_10  and  C7_11 
REMARK       I    between atoms: C3_16  and  C2_17 
REMARK       I    between atoms: C2_17  and  O_18 
REMARK       I    between atoms: C2_17  and  C1_20 
REMARK       I    between atoms: C1_20  and  C_21 
REMARK       I    between atoms: C_21  and  N_22 
ROOT
HETATM    1  F1  XQ7 B 603     -35.819 131.362  11.376  1.00 89.50    -0.206 F 
HETATM    2  C12 XQ7 B 603     -36.788 132.194  10.865  1.00 90.63     0.243 C 
HETATM    3  F   XQ7 B 603     -37.807 131.345  10.492  1.00 90.25    -0.206 F 
HETATM    4  C11 XQ7 B 603     -37.274 133.117  11.939  1.00 89.14     0.079 C 
HETATM    5  C10 XQ7 B 603     -38.273 134.142  11.389  1.00 85.92     0.013 C 
HETATM    6  C13 XQ7 B 603     -36.256 132.894   9.654  1.00 88.46     0.079 C 
HETATM    7  C14 XQ7 B 603     -37.272 133.903   9.116  1.00 86.13     0.013 C 
HETATM    8  C9  XQ7 B 603     -37.704 134.900  10.188  1.00 81.25     0.010 C 
HETATM    9  C8  XQ7 B 603     -38.706 135.878   9.608  1.00 76.24     0.180 C 
HETATM   10  O1  XQ7 B 603     -39.975 135.210   9.535  1.00 68.93    -0.351 OA
HETATM   11  C7  XQ7 B 603     -41.023 135.758   8.829  1.00 64.09     0.069 A 
HETATM   12  C6  XQ7 B 603     -42.243 135.111   8.846  1.00 62.20     0.037 A 
HETATM   13  C5  XQ7 B 603     -43.317 135.673   8.183  1.00 61.57     0.003 A 
HETATM   14  C4  XQ7 B 603     -43.170 136.863   7.494  1.00 62.22     0.010 A 
HETATM   15  C15 XQ7 B 603     -40.870 136.957   8.139  1.00 62.13     0.046 A 
HETATM   16  C3  XQ7 B 603     -41.951 137.517   7.459  1.00 59.17    -0.027 A 
HETATM   17  C2  XQ7 B 603     -41.815 138.799   6.658  1.00 59.30     0.152 C 
HETATM   18  O   XQ7 B 603     -41.246 138.566   5.375  1.00 63.67    -0.391 OA
ATOM     19  HO  XQ7 B 603     -41.160 139.368   4.874  1.00  0.00     0.210 HD
HETATM   20  C1  XQ7 B 603     -41.021 139.881   7.375  1.00 56.81     0.064 C 
HETATM   21  C   XQ7 B 603     -41.087 141.215   6.647  1.00 56.65     0.232 C 
HETATM   22  N   XQ7 B 603     -40.235 141.304   5.466  1.00 54.87    -0.079 N 
ATOM     23  HN1 XQ7 B 603     -40.278 142.198   4.978  1.00  0.00     0.274 HD
ATOM     24  HN2 XQ7 B 603     -40.439 140.538   4.824  1.00  0.00     0.274 HD
ATOM     25  HN3 XQ7 B 603     -39.270 141.078   5.708  1.00  0.00     0.274 HD
ENDROOT
TORSDOF 8
BEGIN_RES PHE A  61
REMARK  2 active torsions:
REMARK  status: ('A' for Active; 'I' for Inactive)
REMARK    1  A    between atoms: CA   and  CB  
REMARK    2  A    between atoms: CB   and  CG  
ROOT
ATOM      1  CA  PHE A  61     -36.237 128.293  12.768  1.00 39.40     0.164 C 
ENDROOT
BRANCH   1   2
ATOM      2  CB  PHE A  61     -36.813 128.951  11.509  1.00 39.41     0.058 C 
BRANCH   2   3
ATOM      3  CG  PHE A  61     -36.271 128.399  10.213  1.00 39.01    -0.020 A 
ATOM      4  CD2 PHE A  61     -34.963 128.645   9.826  1.00 40.32    -0.004 A 
ATOM      5  CE2 PHE A  61     -34.466 128.139   8.631  1.00 40.20    -0.000 A 
ATOM      6  CZ  PHE A  61     -35.269 127.379   7.812  1.00 40.34    -0.000 A 
ATOM      7  CE1 PHE A  61     -36.571 127.123   8.183  1.00 41.51    -0.000 A 
ATOM      8  CD1 PHE A  61     -37.070 127.634   9.375  1.00 39.94    -0.004 A 
ENDBRANCH   2   3
ENDBRANCH   1   2
END_RES PHE A  61
BEGIN_RES VAL A 134
REMARK  1 active torsions:
REMARK  status: ('A' for Active; 'I' for Inactive)
REMARK    3  A    between atoms: CA   and  CB  
ROOT
ATOM      9  CA  VAL A 134     -29.766 132.051   9.815  1.00 40.75     0.159 C 
ENDROOT
BRANCH   9  10
ATOM     10  CB  VAL A 134     -30.864 132.765   9.009  1.00 40.76     0.029 C 
ATOM     11  CG1 VAL A 134     -31.177 132.000   7.731  1.00 41.76     0.002 C 
ATOM     12  CG2 VAL A 134     -32.123 132.973   9.837  1.00 40.56     0.002 C 
ENDBRANCH   9  10
END_RES VAL A 134
BEGIN_RES TYR A 338
REMARK  3 active torsions:
REMARK  status: ('A' for Active; 'I' for Inactive)
REMARK    4  A    between atoms: CA   and  CB  
REMARK    5  A    between atoms: CB   and  CG  
REMARK    6  A    between atoms: CZ   and  OH  
ROOT
ATOM     13  CA  TYR A 338     -41.631 124.950   6.058  1.00 38.23     0.164 C 
ENDROOT
BRANCH  13  14
ATOM     14  CB  TYR A 338     -41.621 126.456   6.339  1.00 39.15     0.058 C 
BRANCH  14  15
ATOM     15  CG  TYR A 338     -40.348 127.183   5.973  1.00 39.03    -0.020 A 
ATOM     16  CD2 TYR A 338     -40.101 128.455   6.462  1.00 40.65    -0.002 A 
ATOM     17  CE2 TYR A 338     -38.952 129.157   6.135  1.00 40.91     0.024 A 
ATOM     18  CZ  TYR A 338     -38.015 128.586   5.294  1.00 42.33     0.089 A 
ATOM     19  CE1 TYR A 338     -38.237 127.314   4.795  1.00 40.63     0.024 A 
ATOM     20  CD1 TYR A 338     -39.399 126.634   5.125  1.00 39.27    -0.002 A 
BRANCH  18  21
ATOM     21  OH  TYR A 338     -36.876 129.268   4.967  1.00 43.36    -0.359 OA
ATOM     22  HH  TYR A 338     -36.388 129.736   5.635  1.00  0.00     0.217 HD
ENDBRANCH  18  21
ENDBRANCH  14  15
ENDBRANCH  13  14
END_RES TYR A 338
ENDMDL
MODEL 3
REMARK VINA RESULT:    -8.739      3.742      6.585
REMARK INTER + INTRA:         -16.197
REMARK INTER:                  -8.264
REMARK INTRA:                  -7.933
REMARK UNBOUND:                -7.458
REMARK  0 active torsions:
REMARK  status: ('A' for Active; 'I' for Inactive)
REMARK       I    between atoms: C9_8  and  C8_9 
REMARK       I    between atoms: C8_9  and  O1_10 
REMARK       I    between atoms: O1_10  and  C7_11 
REMARK       I    between atoms: C3_16  and  C2_17 
REMARK       I    between atoms: C2_17  and  O_18 
REMARK       I    between atoms: C2_17  and  C1_20 
REMARK       I    between atoms: C1_20  and  C_21 
REMARK       I    between atoms: C_21  and  N_22 
ROOT
HETATM    1  F1  XQ7 B 603     -37.189 132.852  10.264  1.00 89.50    -0.206 F 
HETATM    2  C12 XQ7 B 603     -37.930 133.934   9.848  1.00 90.63     0.243 C 
HETATM    3  F   XQ7 B 603     -36.991 134.874   9.487  1.00 90.25    -0.206 F 
HETATM    4  C11 XQ7 B 603     -38.742 133.552   8.648  1.00 89.14     0.079 C 
HETATM    5  C10 XQ7 B 603     -39.673 134.691   8.217  1.00 85.92     0.013 C 
HETATM    6  C13 XQ7 B 603     -38.741 134.454  10.993  1.00 88.46     0.079 C 
HETATM    7  C14 XQ7 B 603     -39.654 135.595  10.541  1.00 86.13     0.013 C 
HETATM    8  C9  XQ7 B 603     -40.545 135.181   9.374  1.00 81.25     0.010 C 
HETATM    9  C8  XQ7 B 603     -41.432 136.341   8.966  1.00 76.24     0.180 C 
HETATM   10  O1  XQ7 B 603     -40.630 137.253   8.198  1.00 68.93    -0.351 OA
HETATM   11  C7  XQ7 B 603     -41.090 138.515   7.894  1.00 64.09     0.069 A 
HETATM   12  C6  XQ7 B 603     -40.311 139.328   7.096  1.00 62.20     0.037 A 
HETATM   13  C5  XQ7 B 603     -40.779 140.579   6.742  1.00 61.57     0.003 A 
HETATM   14  C4  XQ7 B 603     -42.009 141.021   7.194  1.00 62.22     0.010 A 
HETATM   15  C15 XQ7 B 603     -42.329 138.953   8.351  1.00 62.13     0.046 A 
HETATM   16  C3  XQ7 B 603     -42.796 140.220   8.004  1.00 59.17    -0.027 A 
HETATM   17  C2  XQ7 B 603     -44.121 140.753   8.517  1.00 59.30     0.152 C 
HETATM   18  O   XQ7 B 603     -44.013 141.256   9.844  1.00 63.67    -0.391 OA
ATOM     19  HO  XQ7 B 603     -44.842 141.589  10.166  1.00  0.00     0.210 HD
HETATM   20  C1  XQ7 B 603     -45.250 139.735   8.452  1.00 56.81     0.064 C 
HETATM   21  C   XQ7 B 603     -46.601 140.360   8.767  1.00 56.65     0.232 C 
HETATM   22  N   XQ7 B 603     -46.839 140.607  10.185  1.00 54.87    -0.079 N 
ATOM     23  HN1 XQ7 B 603     -47.745 141.026  10.397  1.00  0.00     0.274 HD
ATOM     24  HN2 XQ7 B 603     -46.086 141.172  10.578  1.00  0.00     0.274 HD
ATOM     25  HN3 XQ7 B 603     -46.712 139.748  10.720  1.00  0.00     0.274 HD
ENDROOT
TORSDOF 8
BEGIN_RES PHE A  61
REMARK  2 active torsions:
REMARK  status: ('A' for Active; 'I' for Inactive)
REMARK    1  A    between atoms: CA   and  CB  
REMARK    2  A    between atoms: CB   and  CG  
ROOT
ATOM      1  CA  PHE A  61     -36.237 128.293  12.768  1.00 39.40     0.164 C 
ENDROOT
BRANCH   1   2
ATOM      2  CB  PHE A  61     -36.813 128.951  11.509  1.00 39.41     0.058 C 
BRANCH   2   3
ATOM      3  CG  PHE A  61     -35.855 129.012  10.343  1.00 39.01    -0.020 A 
ATOM      4  CD2 PHE A  61     -36.076 128.259   9.201  1.00 40.32    -0.004 A 
ATOM      5  CE2 PHE A  61     -35.192 128.314   8.130  1.00 40.20    -0.000 A 
ATOM      6  CZ  PHE A  61     -34.081 129.125   8.188  1.00 40.34    -0.000 A 
ATOM      7  CE1 PHE A  61     -33.849 129.882   9.316  1.00 41.51    -0.000 A 
ATOM      8  CD1 PHE A  61     -34.729 129.822  10.389  1.00 39.94    -0.004 A 
ENDBRANCH   2   3
ENDBRANCH   1   2
END_RES PHE A  61
BEGIN_RES VAL A 134
REMARK  1 active torsions:
REMARK  status: ('A' for Active; 'I' for Inactive)
REMARK    3  A    between atoms: CA   and  CB  
ROOT
ATOM      9  CA  VAL A 134     -29.766 132.051   9.815  1.00 40.75     0.159 C 
ENDROOT
BRANCH   9  10
ATOM     10  CB  VAL A 134     -30.864 132.765   9.009  1.00 40.76     0.029 C 
ATOM     11  CG1 VAL A 134     -31.216 131.972   7.759  1.00 41.76     0.002 C 
ATOM     12  CG2 VAL A 134     -32.103 133.022   9.853  1.00 40.56     0.002 C 
ENDBRANCH   9  10
END_RES VAL A 134
BEGIN_RES TYR A 338
REMARK  3 active torsions:
REMARK  status: ('A' for Active; 'I' for Inactive)
REMARK    4  A    between atoms: CA   and  CB  
REMARK    5  A    between atoms: CB   and  CG  
REMARK    6  A    between atoms: CZ   and  OH  
ROOT
ATOM     13  CA  TYR A 338     -41.631 124.950   6.058  1.00 38.23     0.164 C 
ENDROOT
BRANCH  13  14
ATOM     14  CB  TYR A 338     -41.621 126.456   6.339  1.00 39.15     0.058 C 
BRANCH  14  15
ATOM     15  CG  TYR A 338     -40.329 127.174   6.024  1.00 39.03    -0.020 A 
ATOM     16  CD2 TYR A 338     -40.106 128.456   6.497  1.00 40.65    -0.002 A 
ATOM     17  CE2 TYR A 338     -38.939 129.149   6.215  1.00 40.91     0.024 A 
ATOM     18  CZ  TYR A 338     -37.960 128.558   5.439  1.00 42.33     0.089 A 
ATOM     19  CE1 TYR A 338     -38.157 127.275   4.959  1.00 40.63     0.024 A 
ATOM     20  CD1 TYR A 338     -39.337 126.604   5.241  1.00 39.27    -0.002 A 
BRANCH  18  21
ATOM     21  OH  TYR A 338     -36.804 129.231   5.158  1.00 43.36    -0.359 OA
ATOM     22  HH  TYR A 338     -36.625 130.071   5.565  1.00  0.00     0.217 HD
ENDBRANCH  18  21
ENDBRANCH  14  15
ENDBRANCH  13  14
END_RES TYR A 338
ENDMDL
MODEL 4
REMARK VINA RESULT:    -8.538      4.533      6.541
REMARK INTER + INTRA:         -15.996
REMARK INTER:                  -8.066
REMARK INTRA:                  -7.930
REMARK UNBOUND:                -7.458
REMARK  0 active torsions:
REMARK  status: ('A' for Active; 'I' for Inactive)
REMARK       I    between atoms: C9_8  and  C8_9 
REMARK       I    between atoms: C8_9  and  O1_10 
REMARK       I    between atoms: O1_10  and  C7_11 
REMARK       I    between atoms: C3_16  and  C2_17 
REMARK       I    between atoms: C2_17  and  O_18 
REMARK       I    between atoms: C2_17  and  C1_20 
REMARK       I    between atoms: C1_20  and  C_21 
REMARK       I    between atoms: C_21  and  N_22 
ROOT
HETATM    1  F1  XQ7 B 603     -49.212 138.126  15.658  1.00 89.50    -0.206 F 
HETATM    2  C12 XQ7 B 603     -48.454 138.036  14.512  1.00 90.63     0.243 C 
HETATM    3  F   XQ7 B 603     -48.565 136.718  14.131  1.00 90.25    -0.206 F 
HETATM    4  C11 XQ7 B 603     -49.044 138.915  13.452  1.00 89.14     0.079 C 
HETATM    5  C10 XQ7 B 603     -48.169 138.938  12.194  1.00 85.92     0.013 C 
HETATM    6  C13 XQ7 B 603     -47.025 138.343  14.833  1.00 88.46     0.079 C 
HETATM    7  C14 XQ7 B 603     -46.170 138.351  13.565  1.00 86.13     0.013 C 
HETATM    8  C9  XQ7 B 603     -46.721 139.311  12.515  1.00 81.25     0.010 C 
HETATM    9  C8  XQ7 B 603     -45.841 139.287  11.282  1.00 76.24     0.180 C 
HETATM   10  O1  XQ7 B 603     -46.157 138.096  10.545  1.00 68.93    -0.351 OA
HETATM   11  C7  XQ7 B 603     -45.357 137.673   9.507  1.00 64.09     0.069 A 
HETATM   12  C6  XQ7 B 603     -45.742 136.561   8.785  1.00 62.20     0.037 A 
HETATM   13  C5  XQ7 B 603     -44.975 136.152   7.710  1.00 61.57     0.003 A 
HETATM   14  C4  XQ7 B 603     -43.825 136.839   7.369  1.00 62.22     0.010 A 
HETATM   15  C15 XQ7 B 603     -44.201 138.369   9.166  1.00 62.13     0.046 A 
HETATM   16  C3  XQ7 B 603     -43.421 137.949   8.090  1.00 59.17    -0.027 A 
HETATM   17  C2  XQ7 B 603     -42.131 138.654   7.714  1.00 59.30     0.152 C 
HETATM   18  O   XQ7 B 603     -41.045 138.250   8.541  1.00 63.67    -0.391 OA
ATOM     19  HO  XQ7 B 603     -40.237 138.691   8.306  1.00  0.00     0.210 HD
HETATM   20  C1  XQ7 B 603     -42.241 140.171   7.728  1.00 56.81     0.064 C 
HETATM   21  C   XQ7 B 603     -41.007 140.839   7.142  1.00 56.65     0.232 C 
HETATM   22  N   XQ7 B 603     -39.852 140.866   8.032  1.00 54.87    -0.079 N 
ATOM     23  HN1 XQ7 B 603     -39.024 141.314   7.640  1.00  0.00     0.274 HD
ATOM     24  HN2 XQ7 B 603     -39.627 139.923   8.351  1.00  0.00     0.274 HD
ATOM     25  HN3 XQ7 B 603     -40.100 141.298   8.922  1.00  0.00     0.274 HD
ENDROOT
TORSDOF 8
BEGIN_RES PHE A  61
REMARK  2 active torsions:
REMARK  status: ('A' for Active; 'I' for Inactive)
REMARK    1  A    between atoms: CA   and  CB  
REMARK    2  A    between atoms: CB   and  CG  
ROOT
ATOM      1  CA  PHE A  61     -36.237 128.293  12.768  1.00 39.40     0.164 C 
ENDROOT
BRANCH   1   2
ATOM      2  CB  PHE A  61     -36.813 128.951  11.509  1.00 39.41     0.058 C 
BRANCH   2   3
ATOM      3  CG  PHE A  61     -35.868 128.979  10.331  1.00 39.01    -0.020 A 
ATOM      4  CD2 PHE A  61     -36.126 128.229   9.195  1.00 40.32    -0.004 A 
ATOM      5  CE2 PHE A  61     -35.254 128.253   8.113  1.00 40.20    -0.000 A 
ATOM      6  CZ  PHE A  61     -34.118 129.029   8.155  1.00 40.34    -0.000 A 
ATOM      7  CE1 PHE A  61     -33.849 129.781   9.276  1.00 41.51    -0.000 A 
ATOM      8  CD1 PHE A  61     -34.717 129.752  10.360  1.00 39.94    -0.004 A 
ENDBRANCH   2   3
ENDBRANCH   1   2
END_RES PHE A  61
BEGIN_RES VAL A 134
REMARK  1 active torsions:
REMARK  status: ('A' for Active; 'I' for Inactive)
REMARK    3  A    between atoms: CA   and  CB  
ROOT
ATOM      9  CA  VAL A 134     -29.766 132.051   9.815  1.00 40.75     0.159 C 
ENDROOT
BRANCH   9  10
ATOM     10  CB  VAL A 134     -30.864 132.765   9.009  1.00 40.76     0.029 C 
ATOM     11  CG1 VAL A 134     -31.211 131.975   7.756  1.00 41.76     0.002 C 
ATOM     12  CG2 VAL A 134     -32.106 133.015   9.851  1.00 40.56     0.002 C 
ENDBRANCH   9  10
END_RES VAL A 134
BEGIN_RES TYR A 338
REMARK  3 active torsions:
REMARK  status: ('A' for Active; 'I' for Inactive)
REMARK    4  A    between atoms: CA   and  CB  
REMARK    5  A    between atoms: CB   and  CG  
REMARK    6  A    between atoms: CZ   and  OH  
ROOT
ATOM     13  CA  TYR A 338     -41.631 124.950   6.058  1.00 38.23     0.164 C 
ENDROOT
BRANCH  13  14
ATOM     14  CB  TYR A 338     -41.621 126.456   6.339  1.00 39.15     0.058 C 
BRANCH  14  15
ATOM     15  CG  TYR A 338     -40.329 127.174   6.024  1.00 39.03    -0.020 A 
ATOM     16  CD2 TYR A 338     -40.104 128.454   6.500  1.00 40.65    -0.002 A 
ATOM     17  CE2 TYR A 338     -38.938 129.148   6.218  1.00 40.91     0.024 A 
ATOM     18  CZ  TYR A 338     -37.960 128.558   5.438  1.00 42.33     0.089 A 
ATOM     19  CE1 TYR A 338     -38.159 127.277   4.955  1.00 40.63     0.024 A 
ATOM     20  CD1 TYR A 338     -39.338 126.605   5.238  1.00 39.27    -0.002 A 
BRANCH  18  21
ATOM     21  OH  TYR A 338     -36.804 129.231   5.157  1.00 43.36    -0.359 OA
ATOM     22  HH  TYR A 338     -36.484 129.903   5.747  1.00  0.00     0.217 HD
ENDBRANCH  18  21
ENDBRANCH  14  15
ENDBRANCH  13  14
END_RES TYR A 338
ENDMDL
MODEL 5
REMARK VINA RESULT:    -8.406      3.766      5.743
REMARK INTER + INTRA:         -15.865
REMARK INTER:                  -7.941
REMARK INTRA:                  -7.924
REMARK UNBOUND:                -7.458
REMARK  0 active torsions:
REMARK  status: ('A' for Active; 'I' for Inactive)
REMARK       I    between atoms: C9_8  and  C8_9 
REMARK       I    between atoms: C8_9  and  O1_10 
REMARK       I    between atoms: O1_10  and  C7_11 
REMARK       I    between atoms: C3_16  and  C2_17 
REMARK       I    between atoms: C2_17  and  O_18 
REMARK       I    between atoms: C2_17  and  C1_20 
REMARK       I    between atoms: C1_20  and  C_21 
REMARK       I    between atoms: C_21  and  N_22 
ROOT
HETATM    1  F1  XQ7 B 603     -46.636 144.365  13.134  1.00 89.50    -0.206 F 
HETATM    2  C12 XQ7 B 603     -46.268 143.281  12.371  1.00 90.63     0.243 C 
HETATM    3  F   XQ7 B 603     -46.903 142.212  12.964  1.00 90.25    -0.206 F 
HETATM    4  C11 XQ7 B 603     -46.779 143.454  10.974  1.00 89.14     0.079 C 
HETATM    5  C10 XQ7 B 603     -46.295 142.326  10.056  1.00 85.92     0.013 C 
HETATM    6  C13 XQ7 B 603     -44.786 143.089  12.459  1.00 88.46     0.079 C 
HETATM    7  C14 XQ7 B 603     -44.327 141.953  11.543  1.00 86.13     0.013 C 
HETATM    8  C9  XQ7 B 603     -44.774 142.171  10.100  1.00 81.25     0.010 C 
HETATM    9  C8  XQ7 B 603     -44.294 141.024   9.234  1.00 76.24     0.180 C 
HETATM   10  O1  XQ7 B 603     -45.164 139.906   9.469  1.00 68.93    -0.351 OA
HETATM   11  C7  XQ7 B 603     -44.840 138.649   9.011  1.00 64.09     0.069 A 
HETATM   12  C6  XQ7 B 603     -45.742 137.621   9.203  1.00 62.20     0.037 A 
HETATM   13  C5  XQ7 B 603     -45.454 136.365   8.706  1.00 61.57     0.003 A 
HETATM   14  C4  XQ7 B 603     -44.266 136.131   8.038  1.00 62.22     0.010 A 
HETATM   15  C15 XQ7 B 603     -43.644 138.420   8.336  1.00 62.13     0.046 A 
HETATM   16  C3  XQ7 B 603     -43.348 137.149   7.846  1.00 59.17    -0.027 A 
HETATM   17  C2  XQ7 B 603     -42.036 136.848   7.145  1.00 59.30     0.152 C 
HETATM   18  O   XQ7 B 603     -40.975 136.640   8.070  1.00 63.67    -0.391 OA
ATOM     19  HO  XQ7 B 603     -40.154 136.452   7.631  1.00  0.00     0.210 HD
HETATM   20  C1  XQ7 B 603     -41.629 137.913   6.137  1.00 56.81     0.064 C 
HETATM   21  C   XQ7 B 603     -40.433 137.481   5.303  1.00 56.65     0.232 C 
HETATM   22  N   XQ7 B 603     -39.149 137.570   5.989  1.00 54.87    -0.079 N 
ATOM     23  HN1 XQ7 B 603     -38.347 137.280   5.430  1.00  0.00     0.274 HD
ATOM     24  HN2 XQ7 B 603     -39.179 137.046   6.864  1.00  0.00     0.274 HD
ATOM     25  HN3 XQ7 B 603     -39.007 138.512   6.353  1.00  0.00     0.274 HD
ENDROOT
TORSDOF 8
BEGIN_RES PHE A  61
REMARK  2 active torsions:
REMARK  status: ('A' for Active; 'I' for Inactive)
REMARK    1  A    between atoms: CA   and  CB  
REMARK    2  A    between atoms: CB   and  CG  
ROOT
ATOM      1  CA  PHE A  61     -36.237 128.293  12.768  1.00 39.40     0.164 C 
ENDROOT
BRANCH   1   2
ATOM      2  CB  PHE A  61     -36.813 128.951  11.509  1.00 39.41     0.058 C 
BRANCH   2   3
ATOM      3  CG  PHE A  61     -35.871 128.972  10.329  1.00 39.01    -0.020 A 
ATOM      4  CD2 PHE A  61     -36.136 128.222   9.194  1.00 40.32    -0.004 A 
ATOM      5  CE2 PHE A  61     -35.266 128.240   8.110  1.00 40.20    -0.000 A 
ATOM      6  CZ  PHE A  61     -34.126 129.009   8.148  1.00 40.34    -0.000 A 
ATOM      7  CE1 PHE A  61     -33.849 129.762   9.268  1.00 41.51    -0.000 A 
ATOM      8  CD1 PHE A  61     -34.715 129.739  10.354  1.00 39.94    -0.004 A 
ENDBRANCH   2   3
ENDBRANCH   1   2
END_RES PHE A  61
BEGIN_RES VAL A 134
REMARK  1 active torsions:
REMARK  status: ('A' for Active; 'I' for Inactive)
REMARK    3  A    between atoms: CA   and  CB  
ROOT
ATOM      9  CA  VAL A 134     -29.766 132.051   9.815  1.00 40.75     0.159 C 
ENDROOT
BRANCH   9  10
ATOM     10  CB  VAL A 134     -30.864 132.765   9.009  1.00 40.76     0.029 C 
ATOM     11  CG1 VAL A 134     -31.211 131.975   7.756  1.00 41.76     0.002 C 
ATOM     12  CG2 VAL A 134     -32.105 133.016   9.851  1.00 40.56     0.002 C 
ENDBRANCH   9  10
END_RES VAL A 134
BEGIN_RES TYR A 338
REMARK  3 active torsions:
REMARK  status: ('A' for Active; 'I' for Inactive)
REMARK    4  A    between atoms: CA   and  CB  
REMARK    5  A    between atoms: CB   and  CG  
REMARK    6  A    between atoms: CZ   and  OH  
ROOT
ATOM     13  CA  TYR A 338     -41.631 124.950   6.058  1.00 38.23     0.164 C 
ENDROOT
BRANCH  13  14
ATOM     14  CB  TYR A 338     -41.621 126.456   6.339  1.00 39.15     0.058 C 
BRANCH  14  15
ATOM     15  CG  TYR A 338     -40.328 127.173   6.026  1.00 39.03    -0.020 A 
ATOM     16  CD2 TYR A 338     -40.105 128.455   6.500  1.00 40.65    -0.002 A 
ATOM     17  CE2 TYR A 338     -38.938 129.148   6.220  1.00 40.91     0.024 A 
ATOM     18  CZ  TYR A 338     -37.958 128.557   5.444  1.00 42.33     0.089 A 
ATOM     19  CE1 TYR A 338     -38.156 127.275   4.962  1.00 40.63     0.024 A 
ATOM     20  CD1 TYR A 338     -39.336 126.604   5.243  1.00 39.27    -0.002 A 
BRANCH  18  21
ATOM     21  OH  TYR A 338     -36.801 129.230   5.165  1.00 43.36    -0.359 OA
ATOM     22  HH  TYR A 338     -35.993 128.753   5.012  1.00  0.00     0.217 HD
ENDBRANCH  18  21
ENDBRANCH  14  15
ENDBRANCH  13  14
END_RES TYR A 338
ENDMDL
MODEL 6
REMARK VINA RESULT:    -8.318      4.440      7.618
REMARK INTER + INTRA:         -15.776
REMARK INTER:                  -7.846
REMARK INTRA:                  -7.930
REMARK UNBOUND:                -7.458
REMARK  0 active torsions:
REMARK  status: ('A' for Active; 'I' for Inactive)
REMARK       I    between atoms: C9_8  and  C8_9 
REMARK       I    between atoms: C8_9  and  O1_10 
REMARK       I    between atoms: O1_10  and  C7_11 
REMARK       I    between atoms: C3_16  and  C2_17 
REMARK       I    between atoms: C2_17  and  O_18 
REMARK       I    between atoms: C2_17  and  C1_20 
REMARK       I    between atoms: C1_20  and  C_21 
REMARK       I    between atoms: C_21  and  N_22 
ROOT
HETATM    1  F1  XQ7 B 603     -39.098 134.891   7.954  1.00 89.50    -0.206 F 
HETATM    2  C12 XQ7 B 603     -39.964 135.941   7.755  1.00 90.63     0.243 C 
HETATM    3  F   XQ7 B 603     -39.699 136.367   6.473  1.00 90.25    -0.206 F 
HETATM    4  C11 XQ7 B 603     -41.376 135.448   7.836  1.00 89.14     0.079 C 
HETATM    5  C10 XQ7 B 603     -42.379 136.603   7.737  1.00 85.92     0.013 C 
HETATM    6  C13 XQ7 B 603     -39.645 137.040   8.720  1.00 88.46     0.079 C 
HETATM    7  C14 XQ7 B 603     -40.652 138.184   8.596  1.00 86.13     0.013 C 
HETATM    8  C9  XQ7 B 603     -42.089 137.698   8.765  1.00 81.25     0.010 C 
HETATM    9  C8  XQ7 B 603     -43.047 138.865   8.638  1.00 76.24     0.180 C 
HETATM   10  O1  XQ7 B 603     -43.178 139.170   7.241  1.00 68.93    -0.351 OA
HETATM   11  C7  XQ7 B 603     -43.790 140.332   6.826  1.00 64.09     0.069 A 
HETATM   12  C6  XQ7 B 603     -43.953 140.547   5.471  1.00 62.20     0.037 A 
HETATM   13  C5  XQ7 B 603     -44.608 141.684   5.040  1.00 61.57     0.003 A 
HETATM   14  C4  XQ7 B 603     -45.081 142.609   5.952  1.00 62.22     0.010 A 
HETATM   15  C15 XQ7 B 603     -44.267 141.259   7.749  1.00 62.13     0.046 A 
HETATM   16  C3  XQ7 B 603     -44.916 142.412   7.312  1.00 59.17    -0.027 A 
HETATM   17  C2  XQ7 B 603     -45.410 143.468   8.284  1.00 59.30     0.152 C 
HETATM   18  O   XQ7 B 603     -44.361 144.329   8.712  1.00 63.67    -0.391 OA
ATOM     19  HO  XQ7 B 603     -44.670 144.990   9.320  1.00  0.00     0.210 HD
HETATM   20  C1  XQ7 B 603     -46.118 142.889   9.500  1.00 56.81     0.064 C 
HETATM   21  C   XQ7 B 603     -46.786 143.968  10.339  1.00 56.65     0.232 C 
HETATM   22  N   XQ7 B 603     -45.874 144.738  11.176  1.00 54.87    -0.079 N 
ATOM     23  HN1 XQ7 B 603     -46.321 145.461  11.739  1.00  0.00     0.274 HD
ATOM     24  HN2 XQ7 B 603     -45.127 145.141  10.609  1.00  0.00     0.274 HD
ATOM     25  HN3 XQ7 B 603     -45.326 144.115  11.769  1.00  0.00     0.274 HD
ENDROOT
TORSDOF 8
BEGIN_RES PHE A  61
REMARK  2 active torsions:
REMARK  status: ('A' for Active; 'I' for Inactive)
REMARK    1  A    between atoms: CA   and  CB  
REMARK    2  A    between atoms: CB   and  CG  
ROOT
ATOM      1  CA  PHE A  61     -36.237 128.293  12.768  1.00 39.40     0.164 C 
ENDROOT
BRANCH   1   2
ATOM      2  CB  PHE A  61     -36.813 128.951  11.509  1.00 39.41     0.058 C 
BRANCH   2   3
ATOM      3  CG  PHE A  61     -35.869 128.977  10.331  1.00 39.01    -0.020 A 
ATOM      4  CD2 PHE A  61     -36.123 128.220   9.198  1.00 40.32    -0.004 A 
ATOM      5  CE2 PHE A  61     -35.252 128.243   8.116  1.00 40.20    -0.000 A 
ATOM      6  CZ  PHE A  61     -34.120 129.024   8.153  1.00 40.34    -0.000 A 
ATOM      7  CE1 PHE A  61     -33.854 129.784   9.271  1.00 41.51    -0.000 A 
ATOM      8  CD1 PHE A  61     -34.721 129.757  10.355  1.00 39.94    -0.004 A 
ENDBRANCH   2   3
ENDBRANCH   1   2
END_RES PHE A  61
BEGIN_RES VAL A 134
REMARK  1 active torsions:
REMARK  status: ('A' for Active; 'I' for Inactive)
REMARK    3  A    between atoms: CA   and  CB  
ROOT
ATOM      9  CA  VAL A 134     -29.766 132.051   9.815  1.00 40.75     0.159 C 
ENDROOT
BRANCH   9  10
ATOM     10  CB  VAL A 134     -30.864 132.765   9.009  1.00 40.76     0.029 C 
ATOM     11  CG1 VAL A 134     -31.211 131.975   7.755  1.00 41.76     0.002 C 
ATOM     12  CG2 VAL A 134     -32.106 133.015   9.851  1.00 40.56     0.002 C 
ENDBRANCH   9  10
END_RES VAL A 134
BEGIN_RES TYR A 338
REMARK  3 active torsions:
REMARK  status: ('A' for Active; 'I' for Inactive)
REMARK    4  A    between atoms: CA   and  CB  
REMARK    5  A    between atoms: CB   and  CG  
REMARK    6  A    between atoms: CZ   and  OH  
ROOT
ATOM     13  CA  TYR A 338     -41.631 124.950   6.058  1.00 38.23     0.164 C 
ENDROOT
BRANCH  13  14
ATOM     14  CB  TYR A 338     -41.621 126.456   6.339  1.00 39.15     0.058 C 
BRANCH  14  15
ATOM     15  CG  TYR A 338     -40.329 127.174   6.024  1.00 39.03    -0.020 A 
ATOM     16  CD2 TYR A 338     -40.106 128.456   6.495  1.00 40.65    -0.002 A 
ATOM     17  CE2 TYR A 338     -38.940 129.150   6.213  1.00 40.91     0.024 A 
ATOM     18  CZ  TYR A 338     -37.960 128.558   5.438  1.00 42.33     0.089 A 
ATOM     19  CE1 TYR A 338     -38.157 127.275   4.960  1.00 40.63     0.024 A 
ATOM     20  CD1 TYR A 338     -39.336 126.603   5.242  1.00 39.27    -0.002 A 
BRANCH  18  21
ATOM     21  OH  TYR A 338     -36.804 129.231   5.157  1.00 43.36    -0.359 OA
ATOM     22  HH  TYR A 338     -36.119 128.817   4.644  1.00  0.00     0.217 HD
ENDBRANCH  18  21
ENDBRANCH  14  15
ENDBRANCH  13  14
END_RES TYR A 338
ENDMDL
