REMARK  0 active torsions:
REMARK  status: ('A' for Active; 'I' for Inactive)
REMARK       I    between atoms: C3_3  and  O3_21 
REMARK       I    between atoms: C6_6  and  C7_7 
REMARK       I    between atoms: C8_8  and  C9_9 
REMARK       I    between atoms: C10_10  and  C11_11 
REMARK       I    between atoms: C12_12  and  C13_13 
REMARK       I    between atoms: C14_14  and  C15_15 
REMARK       I    between atoms: C23_25  and  O23_43 
REMARK       I    between atoms: C26_28  and  C27_29 
REMARK       I    between atoms: C28_30  and  C29_31 
REMARK       I    between atoms: C30_32  and  C31_33 
REMARK       I    between atoms: C32_34  and  C33_35 
REMARK       I    between atoms: C34_36  and  C35_37 
ROOT
HETATM    1  C1  LUT 6 321     -11.982   1.087  85.690  1.00 93.31    -0.018 C 
HETATM    2  C2  LUT 6 321     -11.846   1.618  84.263  1.00 93.93     0.045 C 
HETATM    3  C3  LUT 6 321     -10.782   2.687  84.051  1.00 93.98     0.123 C 
HETATM    4  C4  LUT 6 321     -10.923   3.767  85.109  1.00 93.16     0.066 C 
HETATM    5  C5  LUT 6 321     -10.794   3.148  86.475  1.00 92.19    -0.074 C 
HETATM    6  C6  LUT 6 321     -11.330   1.954  86.752  1.00 91.50    -0.048 C 
HETATM    7  C7  LUT 6 321     -11.280   1.439  88.141  1.00 98.60     0.009 C 
HETATM    8  C8  LUT 6 321     -12.176   1.801  89.062  1.00 95.09     0.007 C 
HETATM    9  C9  LUT 6 321     -12.105   1.274  90.441  1.00 91.76    -0.062 C 
HETATM   10  C10 LUT 6 321     -12.897   1.801  91.385  1.00 98.95     0.007 C 
HETATM   11  C11 LUT 6 321     -12.872   1.319  92.765  1.00 96.41     0.001 C 
HETATM   12  C12 LUT 6 321     -13.677   1.889  93.658  1.00 94.60     0.007 C 
HETATM   13  C13 LUT 6 321     -13.696   1.441  95.063  1.00 93.62    -0.062 C 
HETATM   14  C14 LUT 6 321     -14.545   2.008  95.934  1.00 93.18     0.007 C 
HETATM   15  C15 LUT 6 321     -14.572   1.565  97.326  1.00 93.10     0.001 C 
HETATM   16  C16 LUT 6 321     -11.322  -0.286  85.756  1.00 93.81     0.020 C 
HETATM   17  C17 LUT 6 321     -13.465   0.941  86.010  1.00 92.50     0.020 C 
HETATM   18  C18 LUT 6 321     -10.027   3.906  87.520  1.00 91.81     0.044 C 
HETATM   19  C19 LUT 6 321     -11.158   0.161  90.781  1.00 91.57     0.048 C 
HETATM   20  C20 LUT 6 321     -12.769   0.351  95.512  1.00 93.41     0.048 C 
HETATM   21  O3  LUT 6 321     -10.951   3.275  82.756  1.00 94.06    -0.395 OA
ATOM     22  H3  LUT 6 321     -10.287   3.942  82.624  1.00  0.00     0.210 HD
HETATM   23  C21 LUT 6 321     -18.304  -1.087 109.254  1.00 98.56    -0.035 C 
HETATM   24  C22 LUT 6 321     -17.868  -1.828 110.513  1.00 98.19     0.045 C 
HETATM   25  C23 LUT 6 321     -17.418  -0.912 111.650  1.00 98.22     0.142 C 
HETATM   26  C24 LUT 6 321     -16.599   0.254 111.147  1.00 99.27     0.007 C 
HETATM   27  C25 LUT 6 321     -16.727   0.737 109.903  1.00 99.66    -0.077 C 
HETATM   28  C26 LUT 6 321     -17.204  -0.140 108.780  1.00 99.84     0.044 C 
HETATM   29  C27 LUT 6 321     -17.694   0.710 107.626  1.00 90.68    -0.016 C 
HETATM   30  C28 LUT 6 321     -17.013   0.656 106.484  1.00 92.00     0.003 C 
HETATM   31  C29 LUT 6 321     -17.376   1.428 105.280  1.00 92.38    -0.062 C 
HETATM   32  C30 LUT 6 321     -16.621   1.256 104.184  1.00 92.82     0.007 C 
HETATM   33  C31 LUT 6 321     -16.852   1.942 102.915  1.00 93.26     0.001 C 
HETATM   34  C32 LUT 6 321     -16.058   1.591 101.906  1.00 94.43     0.007 C 
HETATM   35  C33 LUT 6 321     -16.150   2.170 100.551  1.00 94.12    -0.062 C 
HETATM   36  C34 LUT 6 321     -15.369   1.651  99.590  1.00 93.68     0.007 C 
HETATM   37  C35 LUT 6 321     -15.381   2.140  98.215  1.00 93.36     0.001 C 
HETATM   38  C36 LUT 6 321     -19.599  -0.323 109.506  1.00 97.63     0.016 C 
HETATM   39  C37 LUT 6 321     -18.560  -2.118 108.161  1.00 98.72     0.016 C 
HETATM   40  C38 LUT 6 321     -16.389   2.174 109.636  1.00 99.28     0.044 C 
HETATM   41  C39 LUT 6 321     -18.544   2.370 105.283  1.00 91.58     0.048 C 
HETATM   42  C40 LUT 6 321     -17.090   3.303 100.261  1.00 93.59     0.048 C 
HETATM   43  O23 LUT 6 321     -16.622  -1.668 112.571  1.00 97.53    -0.392 OA
ATOM     44  H23 LUT 6 321     -16.342  -1.098 113.278  1.00  0.00     0.210 HD
ENDROOT
TORSDOF 12
