REMARK  0 active torsions:
REMARK  status: ('A' for Active; 'I' for Inactive)
REMARK       I    between atoms: C3_3  and  O3_21 
REMARK       I    between atoms: C6_6  and  C7_7 
REMARK       I    between atoms: C8_8  and  C9_9 
REMARK       I    between atoms: C10_10  and  C11_11 
REMARK       I    between atoms: C12_12  and  C13_13 
REMARK       I    between atoms: C14_14  and  C15_15 
REMARK       I    between atoms: C23_25  and  O23_43 
REMARK       I    between atoms: C26_28  and  C27_29 
REMARK       I    between atoms: C28_30  and  C29_31 
REMARK       I    between atoms: C30_32  and  C31_33 
REMARK       I    between atoms: C32_34  and  C33_35 
REMARK       I    between atoms: C34_36  and  C35_37 
ROOT
HETATM    1  C1  LUT 4 616      34.798  31.819 231.186  1.00 72.69    -0.018 C 
HETATM    2  C2  LUT 4 616      34.297  32.984 230.333  1.00 72.50     0.045 C 
HETATM    3  C3  LUT 4 616      33.592  32.656 229.020  1.00 72.53     0.123 C 
HETATM    4  C4  LUT 4 616      34.068  31.345 228.420  1.00 73.67     0.066 C 
HETATM    5  C5  LUT 4 616      33.956  30.251 229.446  1.00 74.71    -0.074 C 
HETATM    6  C6  LUT 4 616      34.386  30.449 230.691  1.00 74.26    -0.048 C 
HETATM    7  C7  LUT 4 616      34.501  29.313 231.633  1.00 75.37     0.009 C 
HETATM    8  C8  LUT 4 616      35.585  28.538 231.600  1.00 77.10     0.007 C 
HETATM    9  C9  LUT 4 616      35.768  27.400 232.522  1.00 78.39    -0.062 C 
HETATM   10  C10 LUT 4 616      36.911  26.700 232.455  1.00 81.08     0.007 C 
HETATM   11  C11 LUT 4 616      37.205  25.567 233.332  1.00 84.31     0.001 C 
HETATM   12  C12 LUT 4 616      38.453  25.104 233.317  1.00 87.06     0.007 C 
HETATM   13  C13 LUT 4 616      38.925  23.986 234.156  1.00 89.04    -0.062 C 
HETATM   14  C14 LUT 4 616      40.236  23.694 234.122  1.00 90.91     0.007 C 
HETATM   15  C15 LUT 4 616      40.844  22.635 234.923  1.00 91.21     0.001 C 
HETATM   16  C16 LUT 4 616      34.245  31.975 232.597  1.00 72.40     0.020 C 
HETATM   17  C17 LUT 4 616      36.319  31.886 231.236  1.00 73.92     0.020 C 
HETATM   18  C18 LUT 4 616      33.355  28.938 229.038  1.00 74.98     0.044 C 
HETATM   19  C19 LUT 4 616      34.701  27.048 233.515  1.00 77.08     0.048 C 
HETATM   20  C20 LUT 4 616      37.978  23.212 235.025  1.00 88.60     0.048 C 
HETATM   21  O3  LUT 4 616      33.866  33.708 228.087  1.00 71.08    -0.395 OA
ATOM     22  H3  LUT 4 616      33.427  33.504 227.270  1.00  0.00     0.210 HD
HETATM   23  C21 LUT 4 616      50.025  16.197 240.820  1.00 93.06    -0.035 C 
HETATM   24  C22 LUT 4 616      50.629  15.169 241.765  1.00 92.50     0.045 C 
HETATM   25  C23 LUT 4 616      51.472  14.154 241.010  1.00 91.66     0.142 C 
HETATM   26  C24 LUT 4 616      50.670  13.562 239.878  1.00 93.88     0.007 C 
HETATM   27  C25 LUT 4 616      49.718  14.252 239.229  1.00 94.96    -0.077 C 
HETATM   28  C26 LUT 4 616      49.139  15.534 239.765  1.00 94.46     0.044 C 
HETATM   29  C27 LUT 4 616      48.911  16.509 238.629  1.00 94.80    -0.016 C 
HETATM   30  C28 LUT 4 616      47.679  16.924 238.347  1.00 94.45     0.003 C 
HETATM   31  C29 LUT 4 616      47.431  17.883 237.253  1.00 94.55    -0.062 C 
HETATM   32  C30 LUT 4 616      46.265  18.543 237.245  1.00 95.44     0.007 C 
HETATM   33  C31 LUT 4 616      45.896  19.532 236.233  1.00 95.37     0.001 C 
HETATM   34  C32 LUT 4 616      44.670  20.038 236.335  1.00 94.20     0.007 C 
HETATM   35  C33 LUT 4 616      44.100  21.061 235.440  1.00 92.43    -0.062 C 
HETATM   36  C34 LUT 4 616      42.805  21.380 235.595  1.00 91.40     0.007 C 
HETATM   37  C35 LUT 4 616      42.150  22.402 234.786  1.00 91.41     0.001 C 
HETATM   38  C36 LUT 4 616      51.140  16.992 240.150  1.00 92.31     0.016 C 
HETATM   39  C37 LUT 4 616      49.174  17.156 241.643  1.00 93.35     0.016 C 
HETATM   40  C38 LUT 4 616      49.206  13.716 237.924  1.00 95.20     0.044 C 
HETATM   41  C39 LUT 4 616      48.456  18.109 236.180  1.00 93.92     0.048 C 
HETATM   42  C40 LUT 4 616      44.948  21.735 234.403  1.00 91.99     0.048 C 
HETATM   43  O23 LUT 4 616      51.863  13.108 241.905  1.00 89.28    -0.392 OA
ATOM     44  H23 LUT 4 616      52.368  13.481 242.618  1.00  0.00     0.210 HD
ENDROOT
TORSDOF 12
