REMARK  0 active torsions:
REMARK  status: ('A' for Active; 'I' for Inactive)
REMARK       I    between atoms: C3_3  and  O3_21 
REMARK       I    between atoms: C6_6  and  C7_7 
REMARK       I    between atoms: C8_8  and  C9_9 
REMARK       I    between atoms: C10_10  and  C11_11 
REMARK       I    between atoms: C12_12  and  C13_13 
REMARK       I    between atoms: C14_14  and  C15_15 
REMARK       I    between atoms: C23_25  and  O23_43 
REMARK       I    between atoms: C26_28  and  C27_29 
REMARK       I    between atoms: C28_30  and  C29_31 
REMARK       I    between atoms: C30_32  and  C31_33 
REMARK       I    between atoms: C32_34  and  C33_35 
REMARK       I    between atoms: C34_36  and  C35_37 
ROOT
HETATM    1  C1  LUT 1 320      53.277   6.912 198.832  1.00 79.00    -0.018 C 
HETATM    2  C2  LUT 1 320      54.136   7.491 197.708  1.00 79.55     0.045 C 
HETATM    3  C3  LUT 1 320      55.274   8.419 198.117  1.00 80.08     0.123 C 
HETATM    4  C4  LUT 1 320      54.891   9.277 199.313  1.00 79.64     0.066 C 
HETATM    5  C5  LUT 1 320      54.437   8.404 200.453  1.00 79.19    -0.074 C 
HETATM    6  C6  LUT 1 320      53.751   7.284 200.219  1.00 79.31    -0.048 C 
HETATM    7  C7  LUT 1 320      53.409   6.376 201.335  1.00 78.64     0.009 C 
HETATM    8  C8  LUT 1 320      52.254   6.527 201.979  1.00 77.62     0.007 C 
HETATM    9  C9  LUT 1 320      51.858   5.644 203.093  1.00 76.30    -0.062 C 
HETATM   10  C10 LUT 1 320      50.732   5.933 203.758  1.00 74.97     0.007 C 
HETATM   11  C11 LUT 1 320      50.246   5.123 204.869  1.00 73.76     0.001 C 
HETATM   12  C12 LUT 1 320      49.046   5.415 205.359  1.00 72.98     0.007 C 
HETATM   13  C13 LUT 1 320      48.462   4.652 206.476  1.00 72.79    -0.062 C 
HETATM   14  C14 LUT 1 320      47.245   4.987 206.934  1.00 72.37     0.007 C 
HETATM   15  C15 LUT 1 320      46.630   4.255 208.037  1.00 71.72     0.001 C 
HETATM   16  C16 LUT 1 320      53.314   5.392 198.723  1.00 78.31     0.020 C 
HETATM   17  C17 LUT 1 320      51.843   7.404 198.664  1.00 77.27     0.020 C 
HETATM   18  C18 LUT 1 320      54.773   8.818 201.856  1.00 78.52     0.044 C 
HETATM   19  C19 LUT 1 320      52.690   4.451 203.463  1.00 75.52     0.048 C 
HETATM   20  C20 LUT 1 320      49.225   3.510 207.080  1.00 72.36     0.048 C 
HETATM   21  O3  LUT 1 320      55.570   9.281 197.011  1.00 80.30    -0.395 OA
ATOM     22  H3  LUT 1 320      55.809   8.745 196.264  1.00  0.00     0.210 HD
HETATM   23  C21 LUT 1 320      38.450  -1.436 215.992  1.00 90.94    -0.035 C 
HETATM   24  C22 LUT 1 320      38.389  -2.328 217.226  1.00 90.49     0.045 C 
HETATM   25  C23 LUT 1 320      38.053  -1.562 218.500  1.00 90.33     0.142 C 
HETATM   26  C24 LUT 1 320      38.843  -0.279 218.594  1.00 90.54     0.007 C 
HETATM   27  C25 LUT 1 320      39.267   0.388 217.513  1.00 89.72    -0.077 C 
HETATM   28  C26 LUT 1 320      39.446  -0.296 216.186  1.00 89.61     0.044 C 
HETATM   29  C27 LUT 1 320      39.316   0.709 215.060  1.00 88.07    -0.016 C 
HETATM   30  C28 LUT 1 320      40.410   0.982 214.356  1.00 86.99     0.003 C 
HETATM   31  C29 LUT 1 320      40.449   1.935 213.230  1.00 84.95    -0.062 C 
HETATM   32  C30 LUT 1 320      41.655   2.237 212.730  1.00 81.64     0.007 C 
HETATM   33  C31 LUT 1 320      41.888   3.151 211.616  1.00 78.38     0.001 C 
HETATM   34  C32 LUT 1 320      43.128   3.149 211.135  1.00 76.42     0.007 C 
HETATM   35  C33 LUT 1 320      43.582   3.987 210.012  1.00 74.01    -0.062 C 
HETATM   36  C34 LUT 1 320      44.822   3.781 209.542  1.00 73.35     0.007 C 
HETATM   37  C35 LUT 1 320      45.392   4.541 208.433  1.00 72.23     0.001 C 
HETATM   38  C36 LUT 1 320      37.064  -0.888 215.675  1.00 91.00     0.016 C 
HETATM   39  C37 LUT 1 320      38.912  -2.280 214.809  1.00 91.82     0.016 C 
HETATM   40  C38 LUT 1 320      39.574   1.850 217.640  1.00 88.96     0.044 C 
HETATM   41  C39 LUT 1 320      39.191   2.531 212.669  1.00 85.50     0.048 C 
HETATM   42  C40 LUT 1 320      42.685   5.032 209.420  1.00 73.58     0.048 C 
HETATM   43  O23 LUT 1 320      38.379  -2.372 219.634  1.00 91.01    -0.392 OA
ATOM     44  H23 LUT 1 320      38.170  -1.895 220.428  1.00  0.00     0.210 HD
ENDROOT
TORSDOF 12
