REMARK  0 active torsions:
REMARK  status: ('A' for Active; 'I' for Inactive)
REMARK       I    between atoms: C3_3  and  O3_21 
REMARK       I    between atoms: C6_6  and  C7_7 
REMARK       I    between atoms: C8_8  and  C9_9 
REMARK       I    between atoms: C10_10  and  C11_11 
REMARK       I    between atoms: C12_12  and  C13_13 
REMARK       I    between atoms: C14_14  and  C15_15 
REMARK       I    between atoms: C23_25  and  O23_43 
REMARK       I    between atoms: C26_28  and  C27_29 
REMARK       I    between atoms: C28_30  and  C29_31 
REMARK       I    between atoms: C30_32  and  C31_33 
REMARK       I    between atoms: C32_34  and  C33_35 
REMARK       I    between atoms: C34_36  and  C35_37 
ROOT
HETATM    1  C1  LUT Z 617     163.495 237.459 233.659  1.00 32.73    -0.018 C 
HETATM    2  C2  LUT Z 617     163.791 238.174 232.355  1.00 32.73     0.045 C 
HETATM    3  C3  LUT Z 617     163.030 237.561 231.203  1.00 32.73     0.123 C 
HETATM    4  C4  LUT Z 617     163.478 236.130 231.013  1.00 32.73     0.066 C 
HETATM    5  C5  LUT Z 617     163.493 235.351 232.304  1.00 32.73    -0.074 C 
HETATM    6  C6  LUT Z 617     163.517 235.939 233.520  1.00 32.73    -0.048 C 
HETATM    7  C7  LUT Z 617     163.501 235.103 234.755  1.00 32.73     0.009 C 
HETATM    8  C8  LUT Z 617     164.606 234.601 235.326  1.00 32.73     0.007 C 
HETATM    9  C9  LUT Z 617     164.591 233.782 236.546  1.00 32.73    -0.062 C 
HETATM   10  C10 LUT Z 617     165.740 233.729 237.222  1.00 32.73     0.007 C 
HETATM   11  C11 LUT Z 617     165.964 233.002 238.461  1.00 32.73     0.001 C 
HETATM   12  C12 LUT Z 617     167.181 233.202 238.948  1.00 32.73     0.007 C 
HETATM   13  C13 LUT Z 617     167.703 232.647 240.200  1.00 32.73    -0.062 C 
HETATM   14  C14 LUT Z 617     168.923 233.059 240.553  1.00 32.73     0.007 C 
HETATM   15  C15 LUT Z 617     169.578 232.652 241.782  1.00 32.73     0.001 C 
HETATM   16  C16 LUT Z 617     162.099 237.834 234.126  1.00 32.73     0.020 C 
HETATM   17  C17 LUT Z 617     164.492 238.022 234.667  1.00 32.73     0.020 C 
HETATM   18  C18 LUT Z 617     163.468 233.861 232.117  1.00 32.73     0.044 C 
HETATM   19  C19 LUT Z 617     163.366 233.035 236.979  1.00 32.73     0.048 C 
HETATM   20  C20 LUT Z 617     166.905 231.704 241.050  1.00 32.73     0.048 C 
HETATM   21  O3  LUT Z 617     163.300 238.289 230.003  1.00 32.73    -0.395 OA
ATOM     22  H3  LUT Z 617     163.018 239.188 230.122  1.00  0.00     0.210 HD
HETATM   23  C21 LUT Z 617     177.533 233.020 251.589  1.00 32.73    -0.035 C 
HETATM   24  C22 LUT Z 617     177.588 232.499 253.019  1.00 32.73     0.045 C 
HETATM   25  C23 LUT Z 617     178.349 231.194 253.216  1.00 32.73     0.142 C 
HETATM   26  C24 LUT Z 617     178.173 230.235 252.062  1.00 32.73     0.007 C 
HETATM   27  C25 LUT Z 617     177.876 230.658 250.828  1.00 32.73    -0.077 C 
HETATM   28  C26 LUT Z 617     177.080 231.919 250.628  1.00 32.73     0.044 C 
HETATM   29  C27 LUT Z 617     177.156 232.430 249.207  1.00 32.73    -0.016 C 
HETATM   30  C28 LUT Z 617     176.046 232.377 248.482  1.00 32.73     0.003 C 
HETATM   31  C29 LUT Z 617     175.975 232.863 247.098  1.00 32.73    -0.062 C 
HETATM   32  C30 LUT Z 617     174.748 233.001 246.600  1.00 32.73     0.007 C 
HETATM   33  C31 LUT Z 617     174.426 233.477 245.267  1.00 32.73     0.001 C 
HETATM   34  C32 LUT Z 617     173.217 233.111 244.869  1.00 32.73     0.007 C 
HETATM   35  C33 LUT Z 617     172.623 233.454 243.574  1.00 32.73    -0.062 C 
HETATM   36  C34 LUT Z 617     171.375 233.033 243.349  1.00 32.73     0.007 C 
HETATM   37  C35 LUT Z 617     170.667 233.332 242.115  1.00 32.73     0.001 C 
HETATM   38  C36 LUT Z 617     178.881 233.607 251.172  1.00 32.73     0.016 C 
HETATM   39  C37 LUT Z 617     176.512 234.152 251.568  1.00 32.73     0.016 C 
HETATM   40  C38 LUT Z 617     178.341 229.847 249.657  1.00 32.73     0.044 C 
HETATM   41  C39 LUT Z 617     177.202 233.189 246.303  1.00 32.73     0.048 C 
HETATM   42  C40 LUT Z 617     173.392 234.234 242.552  1.00 32.73     0.048 C 
HETATM   43  O23 LUT Z 617     177.868 230.568 254.410  1.00 32.73    -0.392 OA
ATOM     44  H23 LUT Z 617     178.343 229.754 254.533  1.00  0.00     0.210 HD
ENDROOT
TORSDOF 12
