REMARK  0 active torsions:
REMARK  status: ('A' for Active; 'I' for Inactive)
REMARK       I    between atoms: C3_3  and  O3_21 
REMARK       I    between atoms: C6_6  and  C7_7 
REMARK       I    between atoms: C8_8  and  C9_9 
REMARK       I    between atoms: C10_10  and  C11_11 
REMARK       I    between atoms: C12_12  and  C13_13 
REMARK       I    between atoms: C14_14  and  C15_15 
REMARK       I    between atoms: C23_25  and  O23_43 
REMARK       I    between atoms: C26_28  and  C27_29 
REMARK       I    between atoms: C28_30  and  C29_31 
REMARK       I    between atoms: C30_32  and  C31_33 
REMARK       I    between atoms: C32_34  and  C33_35 
REMARK       I    between atoms: C34_36  and  C35_37 
ROOT
HETATM    1  C1  LUT 6 621      95.561 192.056 175.892  1.00 27.76    -0.018 C 
HETATM    2  C2  LUT 6 621      95.857 192.555 174.481  1.00 27.76     0.045 C 
HETATM    3  C3  LUT 6 621      97.257 192.385 173.905  1.00 27.76     0.123 C 
HETATM    4  C4  LUT 6 621      98.319 192.319 174.980  1.00 27.76     0.066 C 
HETATM    5  C5  LUT 6 621      97.924 191.284 175.996  1.00 27.76    -0.074 C 
HETATM    6  C6  LUT 6 621      96.687 191.243 176.497  1.00 27.76    -0.048 C 
HETATM    7  C7  LUT 6 621      96.406 190.362 177.658  1.00 27.76     0.009 C 
HETATM    8  C8  LUT 6 621      96.461 190.790 178.924  1.00 27.76     0.007 C 
HETATM    9  C9  LUT 6 621      96.187 189.885 180.054  1.00 27.76    -0.062 C 
HETATM   10  C10 LUT 6 621      96.220 190.389 181.302  1.00 27.76     0.007 C 
HETATM   11  C11 LUT 6 621      95.998 189.652 182.547  1.00 27.76     0.001 C 
HETATM   12  C12 LUT 6 621      96.248 190.320 183.669  1.00 27.76     0.007 C 
HETATM   13  C13 LUT 6 621      96.095 189.841 185.056  1.00 27.76    -0.062 C 
HETATM   14  C14 LUT 6 621      96.086 190.779 186.013  1.00 27.76     0.007 C 
HETATM   15  C15 LUT 6 621      95.910 190.515 187.436  1.00 27.76     0.001 C 
HETATM   16  C16 LUT 6 621      94.337 191.156 175.837  1.00 27.76     0.020 C 
HETATM   17  C17 LUT 6 621      95.223 193.278 176.742  1.00 27.76     0.020 C 
HETATM   18  C18 LUT 6 621      98.974 190.299 176.421  1.00 27.76     0.044 C 
HETATM   19  C19 LUT 6 621      95.890 188.447 179.774  1.00 27.76     0.048 C 
HETATM   20  C20 LUT 6 621      95.952 188.391 185.391  1.00 27.76     0.048 C 
HETATM   21  O3  LUT 6 621      97.553 193.486 173.041  1.00 27.76    -0.395 OA
ATOM     22  H3  LUT 6 621      98.426 193.380 172.682  1.00  0.00     0.210 HD
HETATM   23  C21 LUT 6 621      92.763 194.099 199.413  1.00 27.76    -0.035 C 
HETATM   24  C22 LUT 6 621      92.298 193.465 200.721  1.00 27.76     0.045 C 
HETATM   25  C23 LUT 6 621      93.410 193.105 201.701  1.00 27.76     0.142 C 
HETATM   26  C24 LUT 6 621      94.665 192.616 201.014  1.00 27.76     0.007 C 
HETATM   27  C25 LUT 6 621      94.973 192.975 199.764  1.00 27.76    -0.077 C 
HETATM   28  C26 LUT 6 621      93.884 193.277 198.772  1.00 27.76     0.044 C 
HETATM   29  C27 LUT 6 621      94.415 193.981 197.542  1.00 27.76    -0.016 C 
HETATM   30  C28 LUT 6 621      94.409 193.292 196.407  1.00 27.76     0.003 C 
HETATM   31  C29 LUT 6 621      94.874 193.842 195.125  1.00 27.76    -0.062 C 
HETATM   32  C30 LUT 6 621      94.632 193.090 194.048  1.00 27.76     0.007 C 
HETATM   33  C31 LUT 6 621      94.978 193.436 192.677  1.00 27.76     0.001 C 
HETATM   34  C32 LUT 6 621      94.922 192.425 191.819  1.00 27.76     0.007 C 
HETATM   35  C33 LUT 6 621      95.198 192.553 190.384  1.00 27.76    -0.062 C 
HETATM   36  C34 LUT 6 621      95.310 191.449 189.627  1.00 27.76     0.007 C 
HETATM   37  C35 LUT 6 621      95.554 191.554 188.190  1.00 27.76     0.001 C 
HETATM   38  C36 LUT 6 621      93.190 195.547 199.635  1.00 27.76     0.016 C 
HETATM   39  C37 LUT 6 621      91.566 194.112 198.473  1.00 27.76     0.016 C 
HETATM   40  C38 LUT 6 621      96.419 193.067 199.378  1.00 27.76     0.044 C 
HETATM   41  C39 LUT 6 621      95.568 195.168 195.040  1.00 27.76     0.048 C 
HETATM   42  C40 LUT 6 621      95.315 193.917 189.790  1.00 27.76     0.048 C 
HETATM   43  O23 LUT 6 621      92.941 192.076 202.580  1.00 27.76    -0.392 OA
ATOM     44  H23 LUT 6 621      93.634 191.852 203.190  1.00  0.00     0.210 HD
ENDROOT
TORSDOF 12
