REMARK  0 active torsions:
REMARK  status: ('A' for Active; 'I' for Inactive)
REMARK       I    between atoms: C3_3  and  O3_21 
REMARK       I    between atoms: C6_6  and  C7_7 
REMARK       I    between atoms: C8_8  and  C9_9 
REMARK       I    between atoms: C10_10  and  C11_11 
REMARK       I    between atoms: C12_12  and  C13_13 
REMARK       I    between atoms: C14_14  and  C15_15 
REMARK       I    between atoms: C23_25  and  O23_43 
REMARK       I    between atoms: C26_28  and  C27_29 
REMARK       I    between atoms: C28_30  and  C29_31 
REMARK       I    between atoms: C30_32  and  C31_33 
REMARK       I    between atoms: C32_34  and  C33_35 
REMARK       I    between atoms: C34_36  and  C35_37 
ROOT
HETATM    1  C1  LUT 5 620      99.213 155.158 139.850  1.00 27.86    -0.018 C 
HETATM    2  C2  LUT 5 620      99.847 156.343 139.131  1.00 27.86     0.045 C 
HETATM    3  C3  LUT 5 620     101.367 156.365 139.198  1.00 27.86     0.123 C 
HETATM    4  C4  LUT 5 620     101.814 156.336 140.648  1.00 27.86     0.066 C 
HETATM    5  C5  LUT 5 620     101.216 155.147 141.352  1.00 27.86    -0.074 C 
HETATM    6  C6  LUT 5 620      99.976 154.727 141.080  1.00 27.86    -0.048 C 
HETATM    7  C7  LUT 5 620      99.292 153.810 142.014  1.00 27.86     0.009 C 
HETATM    8  C8  LUT 5 620      99.174 154.194 143.279  1.00 27.86     0.007 C 
HETATM    9  C9  LUT 5 620      98.497 153.366 144.293  1.00 27.86    -0.062 C 
HETATM   10  C10 LUT 5 620      98.184 153.946 145.459  1.00 27.86     0.007 C 
HETATM   11  C11 LUT 5 620      97.498 153.255 146.547  1.00 27.86     0.001 C 
HETATM   12  C12 LUT 5 620      96.974 154.037 147.483  1.00 27.86     0.007 C 
HETATM   13  C13 LUT 5 620      96.227 153.534 148.649  1.00 27.86    -0.062 C 
HETATM   14  C14 LUT 5 620      95.475 154.414 149.323  1.00 27.86     0.007 C 
HETATM   15  C15 LUT 5 620      94.681 154.027 150.480  1.00 27.86     0.001 C 
HETATM   16  C16 LUT 5 620      99.136 153.969 138.901  1.00 27.86     0.020 C 
HETATM   17  C17 LUT 5 620      97.805 155.536 140.292  1.00 27.86     0.020 C 
HETATM   18  C18 LUT 5 620     102.047 154.440 142.383  1.00 27.86     0.044 C 
HETATM   19  C19 LUT 5 620      98.170 151.930 144.023  1.00 27.86     0.048 C 
HETATM   20  C20 LUT 5 620      96.296 152.095 149.065  1.00 27.86     0.048 C 
HETATM   21  O3  LUT 5 620     101.849 157.561 138.578  1.00 27.86    -0.395 OA
ATOM     22  H3  LUT 5 620     102.798 157.575 138.620  1.00  0.00     0.210 HD
HETATM   23  C21 LUT 5 620      85.628 155.332 159.473  1.00 27.86    -0.035 C 
HETATM   24  C22 LUT 5 620      84.927 154.441 160.488  1.00 27.86     0.045 C 
HETATM   25  C23 LUT 5 620      85.343 154.733 161.927  1.00 27.86     0.142 C 
HETATM   26  C24 LUT 5 620      86.817 155.052 162.052  1.00 27.86     0.007 C 
HETATM   27  C25 LUT 5 620      87.568 155.447 161.014  1.00 27.86    -0.077 C 
HETATM   28  C26 LUT 5 620      87.133 155.155 159.606  1.00 27.86     0.044 C 
HETATM   29  C27 LUT 5 620      87.844 156.037 158.605  1.00 27.86    -0.016 C 
HETATM   30  C28 LUT 5 620      88.628 155.424 157.726  1.00 27.86     0.003 C 
HETATM   31  C29 LUT 5 620      89.382 156.137 156.681  1.00 27.86    -0.062 C 
HETATM   32  C30 LUT 5 620      89.995 155.391 155.755  1.00 27.86     0.007 C 
HETATM   33  C31 LUT 5 620      90.774 155.949 154.657  1.00 27.86     0.001 C 
HETATM   34  C32 LUT 5 620      91.470 155.085 153.926  1.00 27.86     0.007 C 
HETATM   35  C33 LUT 5 620      92.294 155.501 152.780  1.00 27.86    -0.062 C 
HETATM   36  C34 LUT 5 620      93.029 154.574 152.151  1.00 27.86     0.007 C 
HETATM   37  C35 LUT 5 620      93.854 154.925 151.004  1.00 27.86     0.001 C 
HETATM   38  C36 LUT 5 620      85.249 156.788 159.695  1.00 27.86     0.016 C 
HETATM   39  C37 LUT 5 620      85.206 154.916 158.070  1.00 27.86     0.016 C 
HETATM   40  C38 LUT 5 620      88.851 156.179 161.270  1.00 27.86     0.044 C 
HETATM   41  C39 LUT 5 620      89.459 157.633 156.654  1.00 27.86     0.048 C 
HETATM   42  C40 LUT 5 620      92.301 156.929 152.323  1.00 27.86     0.048 C 
HETATM   43  O23 LUT 5 620      85.049 153.586 162.731  1.00 27.86    -0.392 OA
ATOM     44  H23 LUT 5 620      85.308 153.768 163.627  1.00  0.00     0.210 HD
ENDROOT
TORSDOF 12
