REMARK  0 active torsions:
REMARK  status: ('A' for Active; 'I' for Inactive)
REMARK       I    between atoms: C3_3  and  O3_21 
REMARK       I    between atoms: C6_6  and  C7_7 
REMARK       I    between atoms: C8_8  and  C9_9 
REMARK       I    between atoms: C10_10  and  C11_11 
REMARK       I    between atoms: C12_12  and  C13_13 
REMARK       I    between atoms: C14_14  and  C15_15 
REMARK       I    between atoms: C23_25  and  O23_43 
REMARK       I    between atoms: C26_28  and  C27_29 
REMARK       I    between atoms: C28_30  and  C29_31 
REMARK       I    between atoms: C30_32  and  C31_33 
REMARK       I    between atoms: C32_34  and  C33_35 
REMARK       I    between atoms: C34_36  and  C35_37 
ROOT
HETATM    1  C1  LUT 8 617     151.004 208.368 197.931  1.00 16.39    -0.018 C 
HETATM    2  C2  LUT 8 617     151.001 208.924 196.514  1.00 16.39     0.045 C 
HETATM    3  C3  LUT 8 617     152.087 208.463 195.553  1.00 16.39     0.123 C 
HETATM    4  C4  LUT 8 617     153.376 208.123 196.264  1.00 16.39     0.066 C 
HETATM    5  C5  LUT 8 617     153.081 207.123 197.338  1.00 16.39    -0.074 C 
HETATM    6  C6  LUT 8 617     152.076 207.324 198.191  1.00 16.39    -0.048 C 
HETATM    7  C7  LUT 8 617     151.974 206.479 199.403  1.00 16.39     0.009 C 
HETATM    8  C8  LUT 8 617     152.564 206.792 200.558  1.00 16.39     0.007 C 
HETATM    9  C9  LUT 8 617     152.433 205.913 201.728  1.00 16.39    -0.062 C 
HETATM   10  C10 LUT 8 617     153.078 206.265 202.857  1.00 16.39     0.007 C 
HETATM   11  C11 LUT 8 617     153.091 205.553 204.133  1.00 16.39     0.001 C 
HETATM   12  C12 LUT 8 617     153.759 206.147 205.116  1.00 16.39     0.007 C 
HETATM   13  C13 LUT 8 617     153.878 205.658 206.502  1.00 16.39    -0.062 C 
HETATM   14  C14 LUT 8 617     154.479 206.467 207.378  1.00 16.39     0.007 C 
HETATM   15  C15 LUT 8 617     154.602 206.130 208.786  1.00 16.39     0.001 C 
HETATM   16  C16 LUT 8 617     149.664 207.690 198.174  1.00 16.39     0.020 C 
HETATM   17  C17 LUT 8 617     151.125 209.557 198.875  1.00 16.39     0.020 C 
HETATM   18  C18 LUT 8 617     153.931 205.888 197.390  1.00 16.39     0.044 C 
HETATM   19  C19 LUT 8 617     151.605 204.677 201.595  1.00 16.39     0.048 C 
HETATM   20  C20 LUT 8 617     153.321 204.342 206.943  1.00 16.39     0.048 C 
HETATM   21  O3  LUT 8 617     152.343 209.510 194.615  1.00 16.39    -0.395 OA
ATOM     22  H3  LUT 8 617     153.021 209.222 194.015  1.00  0.00     0.210 HD
HETATM   23  C21 LUT 8 617     156.696 208.555 221.178  1.00 16.39    -0.035 C 
HETATM   24  C22 LUT 8 617     156.390 207.987 222.555  1.00 16.39     0.045 C 
HETATM   25  C23 LUT 8 617     157.517 207.166 223.158  1.00 16.39     0.142 C 
HETATM   26  C24 LUT 8 617     158.121 206.229 222.142  1.00 16.39     0.007 C 
HETATM   27  C25 LUT 8 617     158.145 206.510 220.835  1.00 16.39    -0.077 C 
HETATM   28  C26 LUT 8 617     157.135 207.443 220.217  1.00 16.39     0.044 C 
HETATM   29  C27 LUT 8 617     157.633 208.031 218.915  1.00 16.39    -0.016 C 
HETATM   30  C28 LUT 8 617     156.972 207.669 217.822  1.00 16.39     0.003 C 
HETATM   31  C29 LUT 8 617     157.280 208.148 216.470  1.00 16.39    -0.062 C 
HETATM   32  C30 LUT 8 617     156.438 207.757 215.520  1.00 16.39     0.007 C 
HETATM   33  C31 LUT 8 617     156.533 208.136 214.123  1.00 16.39     0.001 C 
HETATM   34  C32 LUT 8 617     155.864 207.377 213.269  1.00 16.39     0.007 C 
HETATM   35  C33 LUT 8 617     155.848 207.660 211.832  1.00 16.39    -0.062 C 
HETATM   36  C34 LUT 8 617     155.223 206.802 211.020  1.00 16.39     0.007 C 
HETATM   37  C35 LUT 8 617     155.129 207.045 209.590  1.00 16.39     0.001 C 
HETATM   38  C36 LUT 8 617     157.741 209.661 221.283  1.00 16.39     0.016 C 
HETATM   39  C37 LUT 8 617     155.408 209.188 220.665  1.00 16.39     0.016 C 
HETATM   40  C38 LUT 8 617     159.198 205.856 219.993  1.00 16.39     0.044 C 
HETATM   41  C39 LUT 8 617     158.449 209.037 216.168  1.00 16.39     0.048 C 
HETATM   42  C40 LUT 8 617     156.525 208.891 211.318  1.00 16.39     0.048 C 
HETATM   43  O23 LUT 8 617     156.982 206.387 224.232  1.00 16.39    -0.392 OA
ATOM     44  H23 LUT 8 617     157.687 205.874 224.609  1.00  0.00     0.210 HD
ENDROOT
TORSDOF 12
