REMARK  0 active torsions:
REMARK  status: ('A' for Active; 'I' for Inactive)
REMARK       I    between atoms: C3_3  and  O3_21 
REMARK       I    between atoms: C6_6  and  C7_7 
REMARK       I    between atoms: C8_8  and  C9_9 
REMARK       I    between atoms: C10_10  and  C11_11 
REMARK       I    between atoms: C12_12  and  C13_13 
REMARK       I    between atoms: C14_14  and  C15_15 
REMARK       I    between atoms: C23_25  and  O23_43 
REMARK       I    between atoms: C26_28  and  C27_29 
REMARK       I    between atoms: C28_30  and  C29_31 
REMARK       I    between atoms: C30_32  and  C31_33 
REMARK       I    between atoms: C32_34  and  C33_35 
REMARK       I    between atoms: C34_36  and  C35_37 
ROOT
HETATM    1  C1  LUT 8 618     166.216 212.111 201.761  1.00 13.13    -0.018 C 
HETATM    2  C2  LUT 8 618     165.988 213.451 201.077  1.00 13.13     0.045 C 
HETATM    3  C3  LUT 8 618     165.326 214.504 201.935  1.00 13.13     0.123 C 
HETATM    4  C4  LUT 8 618     164.061 213.944 202.534  1.00 13.13     0.066 C 
HETATM    5  C5  LUT 8 618     164.338 212.682 203.302  1.00 13.13    -0.074 C 
HETATM    6  C6  LUT 8 618     165.271 211.798 202.911  1.00 13.13    -0.048 C 
HETATM    7  C7  LUT 8 618     165.469 210.500 203.617  1.00 13.13     0.009 C 
HETATM    8  C8  LUT 8 618     164.728 209.401 203.419  1.00 13.13     0.007 C 
HETATM    9  C9  LUT 8 618     164.981 208.136 204.133  1.00 13.13    -0.062 C 
HETATM   10  C10 LUT 8 618     164.500 207.018 203.585  1.00 13.13     0.007 C 
HETATM   11  C11 LUT 8 618     164.674 205.678 204.131  1.00 13.13     0.001 C 
HETATM   12  C12 LUT 8 618     164.360 204.722 203.270  1.00 13.13     0.007 C 
HETATM   13  C13 LUT 8 618     164.439 203.267 203.467  1.00 13.13    -0.062 C 
HETATM   14  C14 LUT 8 618     163.830 202.481 202.567  1.00 13.13     0.007 C 
HETATM   15  C15 LUT 8 618     163.889 201.032 202.658  1.00 13.13     0.001 C 
HETATM   16  C16 LUT 8 618     167.623 212.104 202.337  1.00 13.13     0.020 C 
HETATM   17  C17 LUT 8 618     166.099 211.072 200.658  1.00 13.13     0.020 C 
HETATM   18  C18 LUT 8 618     163.511 212.499 204.537  1.00 13.13     0.044 C 
HETATM   19  C19 LUT 8 618     165.746 208.103 205.420  1.00 13.13     0.048 C 
HETATM   20  C20 LUT 8 618     165.203 202.674 204.605  1.00 13.13     0.048 C 
HETATM   21  O3  LUT 8 618     164.978 215.610 201.103  1.00 13.13    -0.395 OA
ATOM     22  H3  LUT 8 618     165.775 215.963 200.726  1.00  0.00     0.210 HD
HETATM   23  C21 LUT 8 618     162.379 188.589 199.657  1.00 13.13    -0.035 C 
HETATM   24  C22 LUT 8 618     162.742 187.179 200.093  1.00 13.13     0.045 C 
HETATM   25  C23 LUT 8 618     161.904 186.636 201.229  1.00 13.13     0.142 C 
HETATM   26  C24 LUT 8 618     161.808 187.642 202.337  1.00 13.13     0.007 C 
HETATM   27  C25 LUT 8 618     161.759 188.951 202.089  1.00 13.13    -0.077 C 
HETATM   28  C26 LUT 8 618     162.366 189.551 200.851  1.00 13.13     0.044 C 
HETATM   29  C27 LUT 8 618     161.687 190.855 200.488  1.00 13.13    -0.016 C 
HETATM   30  C28 LUT 8 618     162.435 191.946 200.555  1.00 13.13     0.003 C 
HETATM   31  C29 LUT 8 618     161.939 193.287 200.229  1.00 13.13    -0.062 C 
HETATM   32  C30 LUT 8 618     162.708 194.310 200.604  1.00 13.13     0.007 C 
HETATM   33  C31 LUT 8 618     162.403 195.710 200.362  1.00 13.13     0.001 C 
HETATM   34  C32 LUT 8 618     162.885 196.578 201.240  1.00 13.13     0.007 C 
HETATM   35  C33 LUT 8 618     162.667 198.021 201.090  1.00 13.13    -0.062 C 
HETATM   36  C34 LUT 8 618     163.434 198.846 201.806  1.00 13.13     0.007 C 
HETATM   37  C35 LUT 8 618     163.328 200.292 201.712  1.00 13.13     0.001 C 
HETATM   38  C36 LUT 8 618     161.048 188.570 198.920  1.00 13.13     0.016 C 
HETATM   39  C37 LUT 8 618     163.442 189.039 198.664  1.00 13.13     0.016 C 
HETATM   40  C38 LUT 8 618     161.086 189.822 203.097  1.00 13.13     0.044 C 
HETATM   41  C39 LUT 8 618     160.647 193.481 199.499  1.00 13.13     0.048 C 
HETATM   42  C40 LUT 8 618     161.623 198.544 200.161  1.00 13.13     0.048 C 
HETATM   43  O23 LUT 8 618     162.526 185.457 201.736  1.00 13.13    -0.392 OA
ATOM     44  H23 LUT 8 618     162.000 185.116 202.450  1.00  0.00     0.210 HD
ENDROOT
TORSDOF 12
