REMARK  0 active torsions:
REMARK  status: ('A' for Active; 'I' for Inactive)
REMARK       I    between atoms: C3_3  and  O3_21 
REMARK       I    between atoms: C6_6  and  C7_7 
REMARK       I    between atoms: C8_8  and  C9_9 
REMARK       I    between atoms: C10_10  and  C11_11 
REMARK       I    between atoms: C12_12  and  C13_13 
REMARK       I    between atoms: C14_14  and  C15_15 
REMARK       I    between atoms: C23_25  and  O23_43 
REMARK       I    between atoms: C26_28  and  C27_29 
REMARK       I    between atoms: C28_30  and  C29_31 
REMARK       I    between atoms: C30_32  and  C31_33 
REMARK       I    between atoms: C32_34  and  C33_35 
REMARK       I    between atoms: C34_36  and  C35_37 
ROOT
HETATM    1  C1  LUT 1 619     216.054 219.128 223.751  1.00 34.54    -0.018 C 
HETATM    2  C2  LUT 1 619     215.455 220.482 223.369  1.00 34.54     0.045 C 
HETATM    3  C3  LUT 1 619     215.855 221.113 222.035  1.00 34.54     0.123 C 
HETATM    4  C4  LUT 1 619     217.159 220.569 221.473  1.00 34.54     0.066 C 
HETATM    5  C5  LUT 1 619     217.089 219.069 221.484  1.00 34.54    -0.074 C 
HETATM    6  C6  LUT 1 619     216.737 218.415 222.596  1.00 34.54    -0.048 C 
HETATM    7  C7  LUT 1 619     217.005 216.960 222.686  1.00 34.54     0.009 C 
HETATM    8  C8  LUT 1 619     218.171 216.527 223.158  1.00 34.54     0.007 C 
HETATM    9  C9  LUT 1 619     218.538 215.107 223.273  1.00 34.54    -0.062 C 
HETATM   10  C10 LUT 1 619     219.819 214.880 223.556  1.00 34.54     0.007 C 
HETATM   11  C11 LUT 1 619     220.442 213.577 223.708  1.00 34.54     0.001 C 
HETATM   12  C12 LUT 1 619     221.733 213.652 224.000  1.00 34.54     0.007 C 
HETATM   13  C13 LUT 1 619     222.592 212.480 224.190  1.00 34.54    -0.062 C 
HETATM   14  C14 LUT 1 619     223.788 212.668 224.759  1.00 34.54     0.007 C 
HETATM   15  C15 LUT 1 619     224.698 211.554 224.965  1.00 34.54     0.001 C 
HETATM   16  C16 LUT 1 619     214.933 218.226 224.250  1.00 34.54     0.020 C 
HETATM   17  C17 LUT 1 619     217.008 219.360 224.920  1.00 34.54     0.020 C 
HETATM   18  C18 LUT 1 619     217.393 218.344 220.204  1.00 34.54     0.044 C 
HETATM   19  C19 LUT 1 619     217.554 213.994 223.080  1.00 34.54     0.048 C 
HETATM   20  C20 LUT 1 619     222.141 211.123 223.740  1.00 34.54     0.048 C 
HETATM   21  O3  LUT 1 619     215.987 222.526 222.220  1.00 34.54    -0.395 OA
ATOM     22  H3  LUT 1 619     215.172 222.866 222.571  1.00  0.00     0.210 HD
HETATM   23  C21 LUT 1 619     233.303 203.854 230.629  1.00 34.54    -0.035 C 
HETATM   24  C22 LUT 1 619     234.485 202.904 230.763  1.00 34.54     0.045 C 
HETATM   25  C23 LUT 1 619     235.808 203.650 230.830  1.00 34.54     0.142 C 
HETATM   26  C24 LUT 1 619     235.934 204.539 229.619  1.00 34.54     0.007 C 
HETATM   27  C25 LUT 1 619     234.870 205.120 229.046  1.00 34.54    -0.077 C 
HETATM   28  C26 LUT 1 619     233.445 204.769 229.404  1.00 34.54     0.044 C 
HETATM   29  C27 LUT 1 619     232.653 206.052 229.564  1.00 34.54    -0.016 C 
HETATM   30  C28 LUT 1 619     231.568 206.258 228.826  1.00 34.54     0.003 C 
HETATM   31  C29 LUT 1 619     230.792 207.504 228.965  1.00 34.54    -0.062 C 
HETATM   32  C30 LUT 1 619     229.944 207.832 227.984  1.00 34.54     0.007 C 
HETATM   33  C31 LUT 1 619     229.139 209.046 228.022  1.00 34.54     0.001 C 
HETATM   34  C32 LUT 1 619     228.411 209.315 226.945  1.00 34.54     0.007 C 
HETATM   35  C33 LUT 1 619     227.556 210.508 226.860  1.00 34.54    -0.062 C 
HETATM   36  C34 LUT 1 619     226.682 210.578 225.853  1.00 34.54     0.007 C 
HETATM   37  C35 LUT 1 619     225.800 211.721 225.684  1.00 34.54     0.001 C 
HETATM   38  C36 LUT 1 619     233.161 204.645 231.929  1.00 34.54     0.016 C 
HETATM   39  C37 LUT 1 619     232.049 203.010 230.437  1.00 34.54     0.016 C 
HETATM   40  C38 LUT 1 619     235.114 206.158 227.990  1.00 34.54     0.044 C 
HETATM   41  C39 LUT 1 619     230.957 208.381 230.171  1.00 34.54     0.048 C 
HETATM   42  C40 LUT 1 619     227.667 211.610 227.873  1.00 34.54     0.048 C 
HETATM   43  O23 LUT 1 619     236.889 202.710 230.839  1.00 34.54    -0.392 OA
ATOM     44  H23 LUT 1 619     237.716 203.176 230.881  1.00  0.00     0.210 HD
ENDROOT
TORSDOF 12
