REMARK  0 active torsions:
REMARK  status: ('A' for Active; 'I' for Inactive)
REMARK       I    between atoms: C3_3  and  O3_21 
REMARK       I    between atoms: C6_6  and  C7_7 
REMARK       I    between atoms: C8_8  and  C9_9 
REMARK       I    between atoms: C10_10  and  C11_11 
REMARK       I    between atoms: C12_12  and  C13_13 
REMARK       I    between atoms: C14_14  and  C15_15 
REMARK       I    between atoms: C23_25  and  O23_43 
REMARK       I    between atoms: C26_28  and  C27_29 
REMARK       I    between atoms: C28_30  and  C29_31 
REMARK       I    between atoms: C30_32  and  C31_33 
REMARK       I    between atoms: C32_34  and  C33_35 
REMARK       I    between atoms: C34_36  and  C35_37 
ROOT
HETATM    1  C1  LUT 9 616     266.669 202.003 198.192  1.00 62.55    -0.018 C 
HETATM    2  C2  LUT 9 616     266.117 203.312 197.632  1.00 62.55     0.045 C 
HETATM    3  C3  LUT 9 616     264.620 203.400 197.350  1.00 62.55     0.123 C 
HETATM    4  C4  LUT 9 616     264.066 202.062 196.900  1.00 62.55     0.066 C 
HETATM    5  C5  LUT 9 616     264.359 201.077 197.999  1.00 62.55    -0.074 C 
HETATM    6  C6  LUT 9 616     265.594 200.974 198.503  1.00 62.55    -0.048 C 
HETATM    7  C7  LUT 9 616     265.917 199.845 199.405  1.00 62.55     0.009 C 
HETATM    8  C8  LUT 9 616     266.388 198.693 198.934  1.00 62.55     0.007 C 
HETATM    9  C9  LUT 9 616     266.704 197.567 199.822  1.00 62.55    -0.062 C 
HETATM   10  C10 LUT 9 616     267.334 196.525 199.277  1.00 62.55     0.007 C 
HETATM   11  C11 LUT 9 616     267.714 195.317 199.995  1.00 62.55     0.001 C 
HETATM   12  C12 LUT 9 616     268.476 194.497 199.286  1.00 62.55     0.007 C 
HETATM   13  C13 LUT 9 616     268.986 193.206 199.749  1.00 62.55    -0.062 C 
HETATM   14  C14 LUT 9 616     269.745 192.485 198.902  1.00 62.55     0.007 C 
HETATM   15  C15 LUT 9 616     270.336 191.183 199.200  1.00 62.55     0.001 C 
HETATM   16  C16 LUT 9 616     267.395 202.311 199.494  1.00 62.55     0.020 C 
HETATM   17  C17 LUT 9 616     267.690 201.468 197.186  1.00 62.55     0.020 C 
HETATM   18  C18 LUT 9 616     263.218 200.256 198.528  1.00 62.55     0.044 C 
HETATM   19  C19 LUT 9 616     266.326 197.602 201.271  1.00 62.55     0.048 C 
HETATM   20  C20 LUT 9 616     268.625 192.755 201.123  1.00 62.55     0.048 C 
HETATM   21  O3  LUT 9 616     264.391 204.373 196.324  1.00 62.55    -0.395 OA
ATOM     22  H3  LUT 9 616     263.459 204.428 196.148  1.00  0.00     0.210 HD
HETATM   23  C21 LUT 9 616     278.478 181.329 197.938  1.00 62.55    -0.035 C 
HETATM   24  C22 LUT 9 616     278.979 180.027 198.555  1.00 62.55     0.045 C 
HETATM   25  C23 LUT 9 616     278.494 178.760 197.861  1.00 62.55     0.142 C 
HETATM   26  C24 LUT 9 616     277.033 178.867 197.489  1.00 62.55     0.007 C 
HETATM   27  C25 LUT 9 616     276.481 180.037 197.137  1.00 62.55    -0.077 C 
HETATM   28  C26 LUT 9 616     276.954 181.326 197.754  1.00 62.55     0.044 C 
HETATM   29  C27 LUT 9 616     276.525 182.544 196.951  1.00 62.55    -0.016 C 
HETATM   30  C28 LUT 9 616     275.634 183.384 197.479  1.00 62.55     0.003 C 
HETATM   31  C29 LUT 9 616     275.168 184.610 196.798  1.00 62.55    -0.062 C 
HETATM   32  C30 LUT 9 616     274.494 185.509 197.533  1.00 62.55     0.007 C 
HETATM   33  C31 LUT 9 616     273.974 186.782 197.041  1.00 62.55     0.001 C 
HETATM   34  C32 LUT 9 616     273.213 187.466 197.896  1.00 62.55     0.007 C 
HETATM   35  C33 LUT 9 616     272.594 188.773 197.608  1.00 62.55    -0.062 C 
HETATM   36  C34 LUT 9 616     271.790 189.339 198.527  1.00 62.55     0.007 C 
HETATM   37  C35 LUT 9 616     271.154 190.637 198.296  1.00 62.55     0.001 C 
HETATM   38  C36 LUT 9 616     279.196 181.593 196.617  1.00 62.55     0.016 C 
HETATM   39  C37 LUT 9 616     278.845 182.442 198.908  1.00 62.55     0.016 C 
HETATM   40  C38 LUT 9 616     275.381 180.035 196.117  1.00 62.55     0.044 C 
HETATM   41  C39 LUT 9 616     275.444 184.846 195.343  1.00 62.55     0.048 C 
HETATM   42  C40 LUT 9 616     272.875 189.454 196.304  1.00 62.55     0.048 C 
HETATM   43  O23 LUT 9 616     278.670 177.658 198.759  1.00 62.55    -0.392 OA
ATOM     44  H23 LUT 9 616     278.368 176.868 198.326  1.00  0.00     0.210 HD
ENDROOT
TORSDOF 12
