REMARK  0 active torsions:
REMARK  status: ('A' for Active; 'I' for Inactive)
REMARK       I    between atoms: C3_3  and  O3_21 
REMARK       I    between atoms: C6_6  and  C7_7 
REMARK       I    between atoms: C8_8  and  C9_9 
REMARK       I    between atoms: C10_10  and  C11_11 
REMARK       I    between atoms: C12_12  and  C13_13 
REMARK       I    between atoms: C14_14  and  C15_15 
REMARK       I    between atoms: C23_25  and  O23_43 
REMARK       I    between atoms: C26_28  and  C27_29 
REMARK       I    between atoms: C28_30  and  C29_31 
REMARK       I    between atoms: C30_32  and  C31_33 
REMARK       I    between atoms: C32_34  and  C33_35 
REMARK       I    between atoms: C34_36  and  C35_37 
ROOT
HETATM    1  C1  LUT 4 620     136.055 226.576 213.791  1.00 26.49    -0.018 C 
HETATM    2  C2  LUT 4 620     135.763 227.997 213.316  1.00 26.49     0.045 C 
HETATM    3  C3  LUT 4 620     134.642 228.746 214.019  1.00 26.49     0.123 C 
HETATM    4  C4  LUT 4 620     133.483 227.811 214.294  1.00 26.49     0.066 C 
HETATM    5  C5  LUT 4 620     133.997 226.716 215.181  1.00 26.49    -0.074 C 
HETATM    6  C6  LUT 4 620     135.143 226.079 214.901  1.00 26.49    -0.048 C 
HETATM    7  C7  LUT 4 620     135.530 224.889 215.712  1.00 26.49     0.009 C 
HETATM    8  C8  LUT 4 620     135.177 223.649 215.364  1.00 26.49     0.007 C 
HETATM    9  C9  LUT 4 620     135.509 222.424 216.122  1.00 26.49    -0.062 C 
HETATM   10  C10 LUT 4 620     135.177 221.263 215.543  1.00 26.49     0.007 C 
HETATM   11  C11 LUT 4 620     135.377 219.914 216.064  1.00 26.49     0.001 C 
HETATM   12  C12 LUT 4 620     134.540 219.001 215.574  1.00 26.49     0.007 C 
HETATM   13  C13 LUT 4 620     134.574 217.567 215.898  1.00 26.49    -0.062 C 
HETATM   14  C14 LUT 4 620     133.911 216.743 215.071  1.00 26.49     0.007 C 
HETATM   15  C15 LUT 4 620     133.907 215.296 215.229  1.00 26.49     0.001 C 
HETATM   16  C16 LUT 4 620     137.473 226.564 214.329  1.00 26.49     0.020 C 
HETATM   17  C17 LUT 4 620     135.992 225.667 212.570  1.00 26.49     0.020 C 
HETATM   18  C18 LUT 4 620     133.183 226.402 216.400  1.00 26.49     0.044 C 
HETATM   19  C19 LUT 4 620     136.149 222.478 217.476  1.00 26.49     0.048 C 
HETATM   20  C20 LUT 4 620     135.341 217.046 217.076  1.00 26.49     0.048 C 
HETATM   21  O3  LUT 4 620     134.208 229.828 213.190  1.00 26.49    -0.395 OA
ATOM     22  H3  LUT 4 620     133.508 230.296 213.629  1.00  0.00     0.210 HD
HETATM   23  C21 LUT 4 620     132.319 202.901 211.458  1.00 26.49    -0.035 C 
HETATM   24  C22 LUT 4 620     132.742 201.476 211.789  1.00 26.49     0.045 C 
HETATM   25  C23 LUT 4 620     132.036 200.870 212.993  1.00 26.49     0.142 C 
HETATM   26  C24 LUT 4 620     131.944 201.856 214.128  1.00 26.49     0.007 C 
HETATM   27  C25 LUT 4 620     131.760 203.158 213.900  1.00 26.49    -0.077 C 
HETATM   28  C26 LUT 4 620     132.380 203.809 212.692  1.00 26.49     0.044 C 
HETATM   29  C27 LUT 4 620     131.761 205.154 212.377  1.00 26.49    -0.016 C 
HETATM   30  C28 LUT 4 620     132.497 206.234 212.604  1.00 26.49     0.003 C 
HETATM   31  C29 LUT 4 620     132.040 207.605 212.327  1.00 26.49    -0.062 C 
HETATM   32  C30 LUT 4 620     132.779 208.603 212.820  1.00 26.49     0.007 C 
HETATM   33  C31 LUT 4 620     132.511 210.021 212.620  1.00 26.49     0.001 C 
HETATM   34  C32 LUT 4 620     133.054 210.859 213.491  1.00 26.49     0.007 C 
HETATM   35  C33 LUT 4 620     132.917 212.318 213.378  1.00 26.49    -0.062 C 
HETATM   36  C34 LUT 4 620     133.401 213.096 214.356  1.00 26.49     0.007 C 
HETATM   37  C35 LUT 4 620     133.356 214.551 214.274  1.00 26.49     0.001 C 
HETATM   38  C36 LUT 4 620     130.931 202.903 210.827  1.00 26.49     0.016 C 
HETATM   39  C37 LUT 4 620     133.301 203.419 210.419  1.00 26.49     0.016 C 
HETATM   40  C38 LUT 4 620     130.932 203.946 214.870  1.00 26.49     0.044 C 
HETATM   41  C39 LUT 4 620     130.809 207.859 211.513  1.00 26.49     0.048 C 
HETATM   42  C40 LUT 4 620     132.279 212.902 212.158  1.00 26.49     0.048 C 
HETATM   43  O23 LUT 4 620     132.773 199.730 213.439  1.00 26.49    -0.392 OA
ATOM     44  H23 LUT 4 620     132.332 199.352 214.191  1.00  0.00     0.210 HD
ENDROOT
TORSDOF 12
