REMARK  0 active torsions:
REMARK  status: ('A' for Active; 'I' for Inactive)
REMARK       I    between atoms: C3_3  and  O3_21 
REMARK       I    between atoms: C6_6  and  C7_7 
REMARK       I    between atoms: C8_8  and  C9_9 
REMARK       I    between atoms: C10_10  and  C11_11 
REMARK       I    between atoms: C12_12  and  C13_13 
REMARK       I    between atoms: C14_14  and  C15_15 
REMARK       I    between atoms: C23_25  and  O23_43 
REMARK       I    between atoms: C26_28  and  C27_29 
REMARK       I    between atoms: C28_30  and  C29_31 
REMARK       I    between atoms: C30_32  and  C31_33 
REMARK       I    between atoms: C32_34  and  C33_35 
REMARK       I    between atoms: C34_36  and  C35_37 
ROOT
HETATM    1  C1  LUT Z 619     182.721 236.938 239.210  1.00 43.24    -0.018 C 
HETATM    2  C2  LUT Z 619     182.032 238.243 238.803  1.00 43.24     0.045 C 
HETATM    3  C3  LUT Z 619     182.352 238.835 237.432  1.00 43.24     0.123 C 
HETATM    4  C4  LUT Z 619     183.740 238.462 236.948  1.00 43.24     0.066 C 
HETATM    5  C5  LUT Z 619     183.885 236.968 237.000  1.00 43.24    -0.074 C 
HETATM    6  C6  LUT Z 619     183.529 236.287 238.096  1.00 43.24    -0.048 C 
HETATM    7  C7  LUT Z 619     183.925 234.860 238.210  1.00 43.24     0.009 C 
HETATM    8  C8  LUT Z 619     185.076 234.512 238.788  1.00 43.24     0.007 C 
HETATM    9  C9  LUT Z 619     185.537 233.121 238.916  1.00 43.24    -0.062 C 
HETATM   10  C10 LUT Z 619     186.731 232.937 239.487  1.00 43.24     0.007 C 
HETATM   11  C11 LUT Z 619     187.352 231.634 239.669  1.00 43.24     0.001 C 
HETATM   12  C12 LUT Z 619     188.599 231.659 240.124  1.00 43.24     0.007 C 
HETATM   13  C13 LUT Z 619     189.378 230.435 240.347  1.00 43.24    -0.062 C 
HETATM   14  C14 LUT Z 619     190.552 230.529 240.985  1.00 43.24     0.007 C 
HETATM   15  C15 LUT Z 619     191.374 229.350 241.218  1.00 43.24     0.001 C 
HETATM   16  C16 LUT Z 619     181.657 235.940 239.645  1.00 43.24     0.020 C 
HETATM   17  C17 LUT Z 619     183.588 237.257 240.424  1.00 43.24     0.020 C 
HETATM   18  C18 LUT Z 619     184.423 236.281 235.776  1.00 43.24     0.044 C 
HETATM   19  C19 LUT Z 619     184.721 231.969 238.413  1.00 43.24     0.048 C 
HETATM   20  C20 LUT Z 619     188.868 229.116 239.847  1.00 43.24     0.048 C 
HETATM   21  O3  LUT Z 619     182.274 240.262 237.512  1.00 43.24    -0.395 OA
ATOM     22  H3  LUT Z 619     181.405 240.496 237.815  1.00  0.00     0.210 HD
HETATM   23  C21 LUT Z 619     201.016 222.487 246.022  1.00 43.24    -0.035 C 
HETATM   24  C22 LUT Z 619     202.125 221.470 246.275  1.00 43.24     0.045 C 
HETATM   25  C23 LUT Z 619     203.518 222.042 246.055  1.00 43.24     0.142 C 
HETATM   26  C24 LUT Z 619     203.589 222.704 244.703  1.00 43.24     0.007 C 
HETATM   27  C25 LUT Z 619     202.540 223.331 244.153  1.00 43.24    -0.077 C 
HETATM   28  C26 LUT Z 619     201.121 223.099 244.616  1.00 43.24     0.044 C 
HETATM   29  C27 LUT Z 619     200.356 224.404 244.519  1.00 43.24    -0.016 C 
HETATM   30  C28 LUT Z 619     199.234 224.478 243.807  1.00 43.24     0.003 C 
HETATM   31  C29 LUT Z 619     198.506 225.754 243.712  1.00 43.24    -0.062 C 
HETATM   32  C30 LUT Z 619     197.205 225.750 243.392  1.00 43.24     0.007 C 
HETATM   33  C31 LUT Z 619     196.464 227.001 243.280  1.00 43.24     0.001 C 
HETATM   34  C32 LUT Z 619     195.185 226.981 242.925  1.00 43.24     0.007 C 
HETATM   35  C33 LUT Z 619     194.437 228.242 242.796  1.00 43.24    -0.062 C 
HETATM   36  C34 LUT Z 619     193.316 228.243 242.067  1.00 43.24     0.007 C 
HETATM   37  C35 LUT Z 619     192.523 229.450 241.875  1.00 43.24     0.001 C 
HETATM   38  C36 LUT Z 619     201.056 223.549 247.119  1.00 43.24     0.016 C 
HETATM   39  C37 LUT Z 619     199.688 221.743 246.126  1.00 43.24     0.016 C 
HETATM   40  C38 LUT Z 619     202.798 224.292 243.026  1.00 43.24     0.044 C 
HETATM   41  C39 LUT Z 619     199.231 227.046 243.962  1.00 43.24     0.048 C 
HETATM   42  C40 LUT Z 619     194.926 229.491 243.470  1.00 43.24     0.048 C 
HETATM   43  O23 LUT Z 619     204.476 220.980 246.099  1.00 43.24    -0.392 OA
ATOM     44  H23 LUT Z 619     205.346 221.337 245.962  1.00  0.00     0.210 HD
ENDROOT
TORSDOF 12
