REMARK  0 active torsions:
REMARK  status: ('A' for Active; 'I' for Inactive)
REMARK       I    between atoms: C3_3  and  O3_21 
REMARK       I    between atoms: C6_6  and  C7_7 
REMARK       I    between atoms: C8_8  and  C9_9 
REMARK       I    between atoms: C10_10  and  C11_11 
REMARK       I    between atoms: C12_12  and  C13_13 
REMARK       I    between atoms: C14_14  and  C15_15 
REMARK       I    between atoms: C23_25  and  O23_43 
REMARK       I    between atoms: C26_28  and  C27_29 
REMARK       I    between atoms: C28_30  and  C29_31 
REMARK       I    between atoms: C30_32  and  C31_33 
REMARK       I    between atoms: C32_34  and  C33_35 
REMARK       I    between atoms: C34_36  and  C35_37 
ROOT
HETATM    1  C1  LUT 9 617     264.031 192.336 185.102  1.00 40.88    -0.018 C 
HETATM    2  C2  LUT 9 617     264.789 193.272 184.160  1.00 40.88     0.045 C 
HETATM    3  C3  LUT 9 617     266.186 193.727 184.572  1.00 40.88     0.123 C 
HETATM    4  C4  LUT 9 617     266.323 193.814 186.080  1.00 40.88     0.066 C 
HETATM    5  C5  LUT 9 617     265.965 192.469 186.650  1.00 40.88    -0.074 C 
HETATM    6  C6  LUT 9 617     264.862 191.821 186.260  1.00 40.88    -0.048 C 
HETATM    7  C7  LUT 9 617     264.452 190.562 186.944  1.00 40.88     0.009 C 
HETATM    8  C8  LUT 9 617     263.584 190.547 187.955  1.00 40.88     0.007 C 
HETATM    9  C9  LUT 9 617     263.160 189.310 188.645  1.00 40.88    -0.062 C 
HETATM   10  C10 LUT 9 617     262.370 189.457 189.712  1.00 40.88     0.007 C 
HETATM   11  C11 LUT 9 617     261.827 188.398 190.551  1.00 40.88     0.001 C 
HETATM   12  C12 LUT 9 617     261.346 188.832 191.709  1.00 40.88     0.007 C 
HETATM   13  C13 LUT 9 617     260.702 187.992 192.728  1.00 40.88    -0.062 C 
HETATM   14  C14 LUT 9 617     260.028 188.642 193.690  1.00 40.88     0.007 C 
HETATM   15  C15 LUT 9 617     259.286 187.971 194.748  1.00 40.88     0.001 C 
HETATM   16  C16 LUT 9 617     263.594 191.119 184.306  1.00 40.88     0.020 C 
HETATM   17  C17 LUT 9 617     262.782 193.071 185.582  1.00 40.88     0.020 C 
HETATM   18  C18 LUT 9 617     266.912 191.867 187.639  1.00 40.88     0.044 C 
HETATM   19  C19 LUT 9 617     263.594 187.956 188.175  1.00 40.88     0.048 C 
HETATM   20  C20 LUT 9 617     260.772 186.495 192.672  1.00 40.88     0.048 C 
HETATM   21  O3  LUT 9 617     266.426 195.022 184.012  1.00 40.88    -0.395 OA
ATOM     22  H3  LUT 9 617     266.340 194.968 183.067  1.00  0.00     0.210 HD
HETATM   23  C21 LUT 9 617     250.579 186.189 204.048  1.00 40.88    -0.035 C 
HETATM   24  C22 LUT 9 617     249.778 185.072 204.704  1.00 40.88     0.045 C 
HETATM   25  C23 LUT 9 617     250.530 184.240 205.737  1.00 40.88     0.142 C 
HETATM   26  C24 LUT 9 617     251.952 183.975 205.311  1.00 40.88     0.007 C 
HETATM   27  C25 LUT 9 617     252.623 184.894 204.614  1.00 40.88    -0.077 C 
HETATM   28  C26 LUT 9 617     251.928 185.679 203.541  1.00 40.88     0.044 C 
HETATM   29  C27 LUT 9 617     252.757 186.849 203.057  1.00 40.88    -0.016 C 
HETATM   30  C28 LUT 9 617     253.248 186.795 201.827  1.00 40.88     0.003 C 
HETATM   31  C29 LUT 9 617     254.044 187.887 201.246  1.00 40.88    -0.062 C 
HETATM   32  C30 LUT 9 617     254.533 187.692 200.020  1.00 40.88     0.007 C 
HETATM   33  C31 LUT 9 617     255.317 188.664 199.268  1.00 40.88     0.001 C 
HETATM   34  C32 LUT 9 617     256.017 188.139 198.275  1.00 40.88     0.007 C 
HETATM   35  C33 LUT 9 617     256.863 188.877 197.334  1.00 40.88    -0.062 C 
HETATM   36  C34 LUT 9 617     257.579 188.143 196.471  1.00 40.88     0.007 C 
HETATM   37  C35 LUT 9 617     258.425 188.720 195.435  1.00 40.88     0.001 C 
HETATM   38  C36 LUT 9 617     250.757 187.347 205.023  1.00 40.88     0.016 C 
HETATM   39  C37 LUT 9 617     249.768 186.707 202.868  1.00 40.88     0.016 C 
HETATM   40  C38 LUT 9 617     254.065 185.135 204.932  1.00 40.88     0.044 C 
HETATM   41  C39 LUT 9 617     254.272 189.167 201.992  1.00 40.88     0.048 C 
HETATM   42  C40 LUT 9 617     256.889 190.376 197.335  1.00 40.88     0.048 C 
HETATM   43  O23 LUT 9 617     249.849 182.992 205.903  1.00 40.88    -0.392 OA
ATOM     44  H23 LUT 9 617     250.318 182.474 206.547  1.00  0.00     0.210 HD
ENDROOT
TORSDOF 12
