REMARK  0 active torsions:
REMARK  status: ('A' for Active; 'I' for Inactive)
REMARK       I    between atoms: C3_3  and  O3_21 
REMARK       I    between atoms: C6_6  and  C7_7 
REMARK       I    between atoms: C8_8  and  C9_9 
REMARK       I    between atoms: C10_10  and  C11_11 
REMARK       I    between atoms: C12_12  and  C13_13 
REMARK       I    between atoms: C14_14  and  C15_15 
REMARK       I    between atoms: C23_25  and  O23_43 
REMARK       I    between atoms: C26_28  and  C27_29 
REMARK       I    between atoms: C28_30  and  C29_31 
REMARK       I    between atoms: C30_32  and  C31_33 
REMARK       I    between atoms: C32_34  and  C33_35 
REMARK       I    between atoms: C34_36  and  C35_37 
ROOT
HETATM    1  C1  LUT 6 624     106.337 201.140 183.992  1.00 25.46    -0.018 C 
HETATM    2  C2  LUT 6 624     105.725 202.335 183.265  1.00 25.46     0.045 C 
HETATM    3  C3  LUT 6 624     104.266 202.645 183.549  1.00 25.46     0.123 C 
HETATM    4  C4  LUT 6 624     103.476 201.362 183.676  1.00 25.46     0.066 C 
HETATM    5  C5  LUT 6 624     104.065 200.583 184.815  1.00 25.46    -0.074 C 
HETATM    6  C6  LUT 6 624     105.381 200.354 184.872  1.00 25.46    -0.048 C 
HETATM    7  C7  LUT 6 624     105.940 199.358 185.831  1.00 25.46     0.009 C 
HETATM    8  C8  LUT 6 624     106.021 198.058 185.534  1.00 25.46     0.007 C 
HETATM    9  C9  LUT 6 624     106.568 197.015 186.429  1.00 25.46    -0.062 C 
HETATM   10  C10 LUT 6 624     106.613 195.762 185.953  1.00 25.46     0.007 C 
HETATM   11  C11 LUT 6 624     107.121 194.570 186.624  1.00 25.46     0.001 C 
HETATM   12  C12 LUT 6 624     106.952 193.436 185.948  1.00 25.46     0.007 C 
HETATM   13  C13 LUT 6 624     107.409 192.099 186.371  1.00 25.46    -0.062 C 
HETATM   14  C14 LUT 6 624     107.375 191.115 185.458  1.00 25.46     0.007 C 
HETATM   15  C15 LUT 6 624     107.857 189.769 185.745  1.00 25.46     0.001 C 
HETATM   16  C16 LUT 6 624     107.407 201.677 184.921  1.00 25.46     0.020 C 
HETATM   17  C17 LUT 6 624     106.990 200.253 182.938  1.00 25.46     0.020 C 
HETATM   18  C18 LUT 6 624     103.127 200.120 185.883  1.00 25.46     0.044 C 
HETATM   19  C19 LUT 6 624     107.052 197.344 187.807  1.00 25.46     0.048 C 
HETATM   20  C20 LUT 6 624     107.911 191.850 187.761  1.00 25.46     0.048 C 
HETATM   21  O3  LUT 6 624     103.746 203.410 182.459  1.00 25.46    -0.395 OA
ATOM     22  H3  LUT 6 624     104.242 204.216 182.379  1.00  0.00     0.210 HD
HETATM   23  C21 LUT 6 624     111.919 177.547 183.980  1.00 25.46    -0.035 C 
HETATM   24  C22 LUT 6 624     112.697 176.455 184.707  1.00 25.46     0.045 C 
HETATM   25  C23 LUT 6 624     111.922 175.733 185.803  1.00 25.46     0.142 C 
HETATM   26  C24 LUT 6 624     111.091 176.686 186.620  1.00 25.46     0.007 C 
HETATM   27  C25 LUT 6 624     110.546 177.772 186.067  1.00 25.46    -0.077 C 
HETATM   28  C26 LUT 6 624     111.264 178.514 184.972  1.00 25.46     0.044 C 
HETATM   29  C27 LUT 6 624     110.336 179.470 184.257  1.00 25.46    -0.016 C 
HETATM   30  C28 LUT 6 624     110.550 180.769 184.432  1.00 25.46     0.003 C 
HETATM   31  C29 LUT 6 624     109.735 181.822 183.808  1.00 25.46    -0.062 C 
HETATM   32  C30 LUT 6 624     109.953 183.074 184.223  1.00 25.46     0.007 C 
HETATM   33  C31 LUT 6 624     109.263 184.251 183.717  1.00 25.46     0.001 C 
HETATM   34  C32 LUT 6 624     109.113 185.273 184.550  1.00 25.46     0.007 C 
HETATM   35  C33 LUT 6 624     108.459 186.531 184.155  1.00 25.46    -0.062 C 
HETATM   36  C34 LUT 6 624     108.497 187.555 185.021  1.00 25.46     0.007 C 
HETATM   37  C35 LUT 6 624     107.945 188.879 184.758  1.00 25.46     0.001 C 
HETATM   38  C36 LUT 6 624     110.888 176.932 183.043  1.00 25.46     0.016 C 
HETATM   39  C37 LUT 6 624     112.911 178.317 183.120  1.00 25.46     0.016 C 
HETATM   40  C38 LUT 6 624     109.206 178.222 186.561  1.00 25.46     0.044 C 
HETATM   41  C39 LUT 6 624     108.706 181.502 182.765  1.00 25.46     0.048 C 
HETATM   42  C40 LUT 6 624     107.780 186.646 182.824  1.00 25.46     0.048 C 
HETATM   43  O23 LUT 6 624     112.843 175.051 186.661  1.00 25.46    -0.392 OA
ATOM     44  H23 LUT 6 624     112.360 174.601 187.344  1.00  0.00     0.210 HD
ENDROOT
TORSDOF 12
