REMARK  0 active torsions:
REMARK  status: ('A' for Active; 'I' for Inactive)
REMARK       I    between atoms: C3_3  and  O3_21 
REMARK       I    between atoms: C6_6  and  C7_7 
REMARK       I    between atoms: C8_8  and  C9_9 
REMARK       I    between atoms: C10_10  and  C11_11 
REMARK       I    between atoms: C12_12  and  C13_13 
REMARK       I    between atoms: C14_14  and  C15_15 
REMARK       I    between atoms: C23_25  and  O23_43 
REMARK       I    between atoms: C26_28  and  C27_29 
REMARK       I    between atoms: C28_30  and  C29_31 
REMARK       I    between atoms: C30_32  and  C31_33 
REMARK       I    between atoms: C32_34  and  C33_35 
REMARK       I    between atoms: C34_36  and  C35_37 
ROOT
HETATM    1  C1  LUT 3 622     136.738 153.770 139.424  1.00 17.54    -0.018 C 
HETATM    2  C2  LUT 3 622     135.784 154.874 139.001  1.00 17.54     0.045 C 
HETATM    3  C3  LUT 3 622     134.801 154.577 137.873  1.00 17.54     0.123 C 
HETATM    4  C4  LUT 3 622     134.365 153.122 137.768  1.00 17.54     0.066 C 
HETATM    5  C5  LUT 3 622     134.844 152.257 138.904  1.00 17.54    -0.074 C 
HETATM    6  C6  LUT 3 622     135.962 152.491 139.606  1.00 17.54    -0.048 C 
HETATM    7  C7  LUT 3 622     136.433 151.503 140.606  1.00 17.54     0.009 C 
HETATM    8  C8  LUT 3 622     137.353 150.580 140.335  1.00 17.54     0.007 C 
HETATM    9  C9  LUT 3 622     137.781 149.619 141.367  1.00 17.54    -0.062 C 
HETATM   10  C10 LUT 3 622     138.712 148.716 141.037  1.00 17.54     0.007 C 
HETATM   11  C11 LUT 3 622     139.243 147.702 141.946  1.00 17.54     0.001 C 
HETATM   12  C12 LUT 3 622     140.319 147.069 141.495  1.00 17.54     0.007 C 
HETATM   13  C13 LUT 3 622     141.087 146.007 142.165  1.00 17.54    -0.062 C 
HETATM   14  C14 LUT 3 622     142.033 145.410 141.428  1.00 17.54     0.007 C 
HETATM   15  C15 LUT 3 622     142.898 144.356 141.933  1.00 17.54     0.001 C 
HETATM   16  C16 LUT 3 622     137.343 154.194 140.749  1.00 17.54     0.020 C 
HETATM   17  C17 LUT 3 622     137.894 153.597 138.439  1.00 17.54     0.020 C 
HETATM   18  C18 LUT 3 622     133.979 151.086 139.214  1.00 17.54     0.044 C 
HETATM   19  C19 LUT 3 622     137.188 149.662 142.741  1.00 17.54     0.048 C 
HETATM   20  C20 LUT 3 622     140.841 145.609 143.588  1.00 17.54     0.048 C 
HETATM   21  O3  LUT 3 622     135.402 154.972 136.636  1.00 17.54    -0.395 OA
ATOM     22  H3  LUT 3 622     134.790 154.787 135.934  1.00  0.00     0.210 HD
HETATM   23  C21 LUT 3 622     151.951 135.557 143.580  1.00 17.54    -0.035 C 
HETATM   24  C22 LUT 3 622     152.587 134.632 144.610  1.00 17.54     0.045 C 
HETATM   25  C23 LUT 3 622     152.024 133.219 144.631  1.00 17.54     0.142 C 
HETATM   26  C24 LUT 3 622     150.525 133.196 144.458  1.00 17.54     0.007 C 
HETATM   27  C25 LUT 3 622     149.843 134.192 143.880  1.00 17.54    -0.077 C 
HETATM   28  C26 LUT 3 622     150.424 135.573 143.722  1.00 17.54     0.044 C 
HETATM   29  C27 LUT 3 622     149.793 136.294 142.547  1.00 17.54    -0.016 C 
HETATM   30  C28 LUT 3 622     149.090 137.396 142.780  1.00 17.54     0.003 C 
HETATM   31  C29 LUT 3 622     148.453 138.164 141.701  1.00 17.54    -0.062 C 
HETATM   32  C30 LUT 3 622     147.822 139.286 142.055  1.00 17.54     0.007 C 
HETATM   33  C31 LUT 3 622     147.136 140.175 141.131  1.00 17.54     0.001 C 
HETATM   34  C32 LUT 3 622     146.279 141.013 141.695  1.00 17.54     0.007 C 
HETATM   35  C33 LUT 3 622     145.476 141.997 140.953  1.00 17.54    -0.062 C 
HETATM   36  C34 LUT 3 622     144.674 142.786 141.678  1.00 17.54     0.007 C 
HETATM   37  C35 LUT 3 622     143.808 143.818 141.129  1.00 17.54     0.001 C 
HETATM   38  C36 LUT 3 622     152.380 135.179 142.164  1.00 17.54     0.016 C 
HETATM   39  C37 LUT 3 622     152.485 136.954 143.861  1.00 17.54     0.016 C 
HETATM   40  C38 LUT 3 622     148.454 133.904 143.396  1.00 17.54     0.044 C 
HETATM   41  C39 LUT 3 622     148.520 137.702 140.278  1.00 17.54     0.048 C 
HETATM   42  C40 LUT 3 622     145.553 142.097 139.462  1.00 17.54     0.048 C 
HETATM   43  O23 LUT 3 622     152.334 132.608 145.888  1.00 17.54    -0.392 OA
ATOM     44  H23 LUT 3 622     151.982 131.726 145.901  1.00  0.00     0.210 HD
ENDROOT
TORSDOF 12
