REMARK  0 active torsions:
REMARK  status: ('A' for Active; 'I' for Inactive)
REMARK       I    between atoms: C3_3  and  O3_21 
REMARK       I    between atoms: C6_6  and  C7_7 
REMARK       I    between atoms: C8_8  and  C9_9 
REMARK       I    between atoms: C10_10  and  C11_11 
REMARK       I    between atoms: C12_12  and  C13_13 
REMARK       I    between atoms: C14_14  and  C15_15 
REMARK       I    between atoms: C23_25  and  O23_43 
REMARK       I    between atoms: C26_28  and  C27_29 
REMARK       I    between atoms: C28_30  and  C29_31 
REMARK       I    between atoms: C30_32  and  C31_33 
REMARK       I    between atoms: C32_34  and  C33_35 
REMARK       I    between atoms: C34_36  and  C35_37 
ROOT
HETATM    1  C1  LUT 2 616     269.582 169.267 158.010  1.00 78.53    -0.018 C 
HETATM    2  C2  LUT 2 616     269.376 170.708 157.532  1.00 78.53     0.045 C 
HETATM    3  C3  LUT 2 616     267.944 171.198 157.313  1.00 78.53     0.123 C 
HETATM    4  C4  LUT 2 616     267.016 170.064 156.908  1.00 78.53     0.066 C 
HETATM    5  C5  LUT 2 616     267.114 169.026 157.987  1.00 78.53    -0.074 C 
HETATM    6  C6  LUT 2 616     268.302 168.488 158.250  1.00 78.53    -0.048 C 
HETATM    7  C7  LUT 2 616     268.392 167.125 158.820  1.00 78.53     0.009 C 
HETATM    8  C8  LUT 2 616     268.200 166.027 158.085  1.00 78.53     0.007 C 
HETATM    9  C9  LUT 2 616     268.314 164.699 158.712  1.00 78.53    -0.062 C 
HETATM   10  C10 LUT 2 616     268.298 163.608 157.930  1.00 78.53     0.007 C 
HETATM   11  C11 LUT 2 616     268.413 162.236 158.424  1.00 78.53     0.001 C 
HETATM   12  C12 LUT 2 616     268.327 161.264 157.515  1.00 78.53     0.007 C 
HETATM   13  C13 LUT 2 616     268.444 159.824 157.825  1.00 78.53    -0.062 C 
HETATM   14  C14 LUT 2 616     268.568 158.971 156.798  1.00 78.53     0.007 C 
HETATM   15  C15 LUT 2 616     268.729 157.531 156.979  1.00 78.53     0.001 C 
HETATM   16  C16 LUT 2 616     270.335 169.294 159.335  1.00 78.53     0.020 C 
HETATM   17  C17 LUT 2 616     270.439 168.555 156.968  1.00 78.53     0.020 C 
HETATM   18  C18 LUT 2 616     265.885 168.651 158.764  1.00 78.53     0.044 C 
HETATM   19  C19 LUT 2 616     268.433 164.610 160.201  1.00 78.53     0.048 C 
HETATM   20  C20 LUT 2 616     268.431 159.320 159.237  1.00 78.53     0.048 C 
HETATM   21  O3  LUT 2 616     267.938 172.195 156.285  1.00 78.53    -0.395 OA
ATOM     22  H3  LUT 2 616     267.048 172.499 156.149  1.00  0.00     0.210 HD
HETATM   23  C21 LUT 2 616     271.452 145.674 152.315  1.00 78.53    -0.035 C 
HETATM   24  C22 LUT 2 616     271.802 144.217 152.602  1.00 78.53     0.045 C 
HETATM   25  C23 LUT 2 616     270.593 143.293 152.722  1.00 78.53     0.142 C 
HETATM   26  C24 LUT 2 616     269.504 143.929 153.552  1.00 78.53     0.007 C 
HETATM   27  C25 LUT 2 616     269.293 145.255 153.540  1.00 78.53    -0.077 C 
HETATM   28  C26 LUT 2 616     270.434 146.218 153.326  1.00 78.53     0.044 C 
HETATM   29  C27 LUT 2 616     269.951 147.584 152.876  1.00 78.53    -0.016 C 
HETATM   30  C28 LUT 2 616     270.087 148.627 153.693  1.00 78.53     0.003 C 
HETATM   31  C29 LUT 2 616     269.660 149.987 153.311  1.00 78.53    -0.062 C 
HETATM   32  C30 LUT 2 616     269.961 150.985 154.149  1.00 78.53     0.007 C 
HETATM   33  C31 LUT 2 616     269.641 152.387 153.914  1.00 78.53     0.001 C 
HETATM   34  C32 LUT 2 616     269.682 153.196 154.966  1.00 78.53     0.007 C 
HETATM   35  C33 LUT 2 616     269.416 154.640 154.859  1.00 78.53    -0.062 C 
HETATM   36  C34 LUT 2 616     269.206 155.359 155.974  1.00 78.53     0.007 C 
HETATM   37  C35 LUT 2 616     268.985 156.800 155.898  1.00 78.53     0.001 C 
HETATM   38  C36 LUT 2 616     270.948 145.816 150.878  1.00 78.53     0.016 C 
HETATM   39  C37 LUT 2 616     272.735 146.485 152.437  1.00 78.53     0.016 C 
HETATM   40  C38 LUT 2 616     267.896 145.761 153.747  1.00 78.53     0.044 C 
HETATM   41  C39 LUT 2 616     268.923 150.241 152.029  1.00 78.53     0.048 C 
HETATM   42  C40 LUT 2 616     269.417 155.289 153.509  1.00 78.53     0.048 C 
HETATM   43  O23 LUT 2 616     271.002 142.071 153.349  1.00 78.53    -0.392 OA
ATOM     44  H23 LUT 2 616     270.250 141.496 153.424  1.00  0.00     0.210 HD
ENDROOT
TORSDOF 12
