REMARK  0 active torsions:
REMARK  status: ('A' for Active; 'I' for Inactive)
REMARK       I    between atoms: C3_3  and  O3_21 
REMARK       I    between atoms: C6_6  and  C7_7 
REMARK       I    between atoms: C8_8  and  C9_9 
REMARK       I    between atoms: C10_10  and  C11_11 
REMARK       I    between atoms: C12_12  and  C13_13 
REMARK       I    between atoms: C14_14  and  C15_15 
REMARK       I    between atoms: C23_25  and  O23_43 
REMARK       I    between atoms: C26_28  and  C27_29 
REMARK       I    between atoms: C28_30  and  C29_31 
REMARK       I    between atoms: C30_32  and  C31_33 
REMARK       I    between atoms: C32_34  and  C33_35 
REMARK       I    between atoms: C34_36  and  C35_37 
ROOT
HETATM    1  C1  LUT 4 619     121.229 222.275 208.960  1.00 29.53    -0.018 C 
HETATM    2  C2  LUT 4 619     121.486 222.807 207.551  1.00 29.53     0.045 C 
HETATM    3  C3  LUT 4 619     122.587 222.148 206.734  1.00 29.53     0.123 C 
HETATM    4  C4  LUT 4 619     123.749 221.753 207.621  1.00 29.53     0.066 C 
HETATM    5  C5  LUT 4 619     123.230 220.813 208.669  1.00 29.53    -0.074 C 
HETATM    6  C6  LUT 4 619     122.141 221.135 209.377  1.00 29.53    -0.048 C 
HETATM    7  C7  LUT 4 619     121.781 220.361 210.586  1.00 29.53     0.009 C 
HETATM    8  C8  LUT 4 619     122.314 220.601 211.785  1.00 29.53     0.007 C 
HETATM    9  C9  LUT 4 619     121.913 219.808 212.957  1.00 29.53    -0.062 C 
HETATM   10  C10 LUT 4 619     122.623 219.945 214.087  1.00 29.53     0.007 C 
HETATM   11  C11 LUT 4 619     122.369 219.264 215.354  1.00 29.53     0.001 C 
HETATM   12  C12 LUT 4 619     123.160 219.622 216.357  1.00 29.53     0.007 C 
HETATM   13  C13 LUT 4 619     123.103 219.120 217.738  1.00 29.53    -0.062 C 
HETATM   14  C14 LUT 4 619     123.717 219.896 218.640  1.00 29.53     0.007 C 
HETATM   15  C15 LUT 4 619     123.772 219.642 220.071  1.00 29.53     0.001 C 
HETATM   16  C16 LUT 4 619     119.800 221.750 209.021  1.00 29.53     0.020 C 
HETATM   17  C17 LUT 4 619     121.349 223.458 209.916  1.00 29.53     0.020 C 
HETATM   18  C18 LUT 4 619     123.966 219.517 208.853  1.00 29.53     0.044 C 
HETATM   19  C19 LUT 4 619     120.734 218.893 212.846  1.00 29.53     0.048 C 
HETATM   20  C20 LUT 4 619     122.409 217.845 218.105  1.00 29.53     0.048 C 
HETATM   21  O3  LUT 4 619     123.067 223.076 205.757  1.00 29.53    -0.395 OA
ATOM     22  H3  LUT 4 619     123.755 222.664 205.247  1.00  0.00     0.210 HD
HETATM   23  C21 LUT 4 619     124.866 222.741 232.367  1.00 29.53    -0.035 C 
HETATM   24  C22 LUT 4 619     124.398 222.139 233.686  1.00 29.53     0.045 C 
HETATM   25  C23 LUT 4 619     125.407 221.248 234.401  1.00 29.53     0.142 C 
HETATM   26  C24 LUT 4 619     126.288 220.464 233.457  1.00 29.53     0.007 C 
HETATM   27  C25 LUT 4 619     126.522 220.855 232.200  1.00 29.53    -0.077 C 
HETATM   28  C26 LUT 4 619     125.503 221.679 231.464  1.00 29.53     0.044 C 
HETATM   29  C27 LUT 4 619     126.060 222.328 230.214  1.00 29.53    -0.016 C 
HETATM   30  C28 LUT 4 619     125.627 221.836 229.059  1.00 29.53     0.003 C 
HETATM   31  C29 LUT 4 619     126.019 222.348 227.738  1.00 29.53    -0.062 C 
HETATM   32  C30 LUT 4 619     125.369 221.808 226.704  1.00 29.53     0.007 C 
HETATM   33  C31 LUT 4 619     125.540 222.161 225.301  1.00 29.53     0.001 C 
HETATM   34  C32 LUT 4 619     124.916 221.341 224.465  1.00 29.53     0.007 C 
HETATM   35  C33 LUT 4 619     124.899 221.485 223.005  1.00 29.53    -0.062 C 
HETATM   36  C34 LUT 4 619     124.352 220.503 222.272  1.00 29.53     0.007 C 
HETATM   37  C35 LUT 4 619     124.277 220.616 220.821  1.00 29.53     0.001 C 
HETATM   38  C36 LUT 4 619     125.814 223.906 232.630  1.00 29.53     0.016 C 
HETATM   39  C37 LUT 4 619     123.631 223.304 231.674  1.00 29.53     0.016 C 
HETATM   40  C38 LUT 4 619     127.806 220.438 231.547  1.00 29.53     0.044 C 
HETATM   41  C39 LUT 4 619     127.056 223.418 227.567  1.00 29.53     0.048 C 
HETATM   42  C40 LUT 4 619     125.459 222.718 222.369  1.00 29.53     0.048 C 
HETATM   43  O23 LUT 4 619     124.669 220.310 235.186  1.00 29.53    -0.392 OA
ATOM     44  H23 LUT 4 619     125.298 219.755 235.632  1.00  0.00     0.210 HD
ENDROOT
TORSDOF 12
