REMARK  0 active torsions:
REMARK  status: ('A' for Active; 'I' for Inactive)
REMARK       I    between atoms: C3_3  and  O3_21 
REMARK       I    between atoms: C6_6  and  C7_7 
REMARK       I    between atoms: C8_8  and  C9_9 
REMARK       I    between atoms: C10_10  and  C11_11 
REMARK       I    between atoms: C12_12  and  C13_13 
REMARK       I    between atoms: C14_14  and  C15_15 
REMARK       I    between atoms: C23_25  and  O23_43 
REMARK       I    between atoms: C26_28  and  C27_29 
REMARK       I    between atoms: C28_30  and  C29_31 
REMARK       I    between atoms: C30_32  and  C31_33 
REMARK       I    between atoms: C32_34  and  C33_35 
REMARK       I    between atoms: C34_36  and  C35_37 
ROOT
HETATM    1  C1  LUT 7 622     137.721 187.155 171.444  1.00 13.75    -0.018 C 
HETATM    2  C2  LUT 7 622     137.265 188.269 170.514  1.00 13.75     0.045 C 
HETATM    3  C3  LUT 7 622     135.944 188.885 170.913  1.00 13.75     0.123 C 
HETATM    4  C4  LUT 7 622     134.908 187.793 170.971  1.00 13.75     0.066 C 
HETATM    5  C5  LUT 7 622     135.318 186.769 171.987  1.00 13.75    -0.074 C 
HETATM    6  C6  LUT 7 622     136.603 186.419 172.167  1.00 13.75    -0.048 C 
HETATM    7  C7  LUT 7 622     137.022 185.343 173.110  1.00 13.75     0.009 C 
HETATM    8  C8  LUT 7 622     136.957 184.029 172.857  1.00 13.75     0.007 C 
HETATM    9  C9  LUT 7 622     137.424 183.022 173.830  1.00 13.75    -0.062 C 
HETATM   10  C10 LUT 7 622     137.646 181.783 173.373  1.00 13.75     0.007 C 
HETATM   11  C11 LUT 7 622     138.138 180.662 174.167  1.00 13.75     0.001 C 
HETATM   12  C12 LUT 7 622     138.590 179.641 173.448  1.00 13.75     0.007 C 
HETATM   13  C13 LUT 7 622     139.169 178.391 173.967  1.00 13.75    -0.062 C 
HETATM   14  C14 LUT 7 622     139.365 177.392 173.092  1.00 13.75     0.007 C 
HETATM   15  C15 LUT 7 622     139.966 176.120 173.461  1.00 13.75     0.001 C 
HETATM   16  C16 LUT 7 622     138.607 187.774 172.514  1.00 13.75     0.020 C 
HETATM   17  C17 LUT 7 622     138.546 186.201 170.594  1.00 13.75     0.020 C 
HETATM   18  C18 LUT 7 622     134.192 186.201 172.786  1.00 13.75     0.044 C 
HETATM   19  C19 LUT 7 622     137.648 183.382 175.267  1.00 13.75     0.048 C 
HETATM   20  C20 LUT 7 622     139.564 178.251 175.406  1.00 13.75     0.048 C 
HETATM   21  O3  LUT 7 622     135.548 189.854 169.941  1.00 13.75    -0.395 OA
ATOM     22  H3  LUT 7 622     136.201 190.543 169.904  1.00  0.00     0.210 HD
HETATM   23  C21 LUT 7 622     145.402 164.502 172.424  1.00 13.75    -0.035 C 
HETATM   24  C22 LUT 7 622     146.191 163.501 173.256  1.00 13.75     0.045 C 
HETATM   25  C23 LUT 7 622     145.326 162.571 174.094  1.00 13.75     0.142 C 
HETATM   26  C24 LUT 7 622     144.194 163.303 174.768  1.00 13.75     0.007 C 
HETATM   27  C25 LUT 7 622     143.683 164.444 174.296  1.00 13.75    -0.077 C 
HETATM   28  C26 LUT 7 622     144.429 165.301 173.305  1.00 13.75     0.044 C 
HETATM   29  C27 LUT 7 622     143.481 166.120 172.449  1.00 13.75    -0.016 C 
HETATM   30  C28 LUT 7 622     143.499 167.438 172.612  1.00 13.75     0.003 C 
HETATM   31  C29 LUT 7 622     142.663 168.377 171.849  1.00 13.75    -0.062 C 
HETATM   32  C30 LUT 7 622     142.732 169.663 172.212  1.00 13.75     0.007 C 
HETATM   33  C31 LUT 7 622     142.004 170.749 171.572  1.00 13.75     0.001 C 
HETATM   34  C32 LUT 7 622     141.801 171.818 172.329  1.00 13.75     0.007 C 
HETATM   35  C33 LUT 7 622     141.107 173.035 171.882  1.00 13.75    -0.062 C 
HETATM   36  C34 LUT 7 622     140.905 173.996 172.794  1.00 13.75     0.007 C 
HETATM   37  C35 LUT 7 622     140.264 175.266 172.485  1.00 13.75     0.001 C 
HETATM   38  C36 LUT 7 622     144.691 163.793 171.275  1.00 13.75     0.016 C 
HETATM   39  C37 LUT 7 622     146.414 165.455 171.800  1.00 13.75     0.016 C 
HETATM   40  C38 LUT 7 622     142.340 164.861 174.812  1.00 13.75     0.044 C 
HETATM   41  C39 LUT 7 622     141.799 167.917 170.718  1.00 13.75     0.048 C 
HETATM   42  C40 LUT 7 622     140.661 173.196 170.461  1.00 13.75     0.048 C 
HETATM   43  O23 LUT 7 622     146.124 161.956 175.109  1.00 13.75    -0.392 OA
ATOM     44  H23 LUT 7 622     145.584 161.375 175.632  1.00  0.00     0.210 HD
ENDROOT
TORSDOF 12
