REMARK  0 active torsions:
REMARK  status: ('A' for Active; 'I' for Inactive)
REMARK       I    between atoms: C3_3  and  O3_21 
REMARK       I    between atoms: C6_6  and  C7_7 
REMARK       I    between atoms: C8_8  and  C9_9 
REMARK       I    between atoms: C10_10  and  C11_11 
REMARK       I    between atoms: C12_12  and  C13_13 
REMARK       I    between atoms: C14_14  and  C15_15 
REMARK       I    between atoms: C23_25  and  O23_43 
REMARK       I    between atoms: C26_28  and  C27_29 
REMARK       I    between atoms: C28_30  and  C29_31 
REMARK       I    between atoms: C30_32  and  C31_33 
REMARK       I    between atoms: C32_34  and  C33_35 
REMARK       I    between atoms: C34_36  and  C35_37 
ROOT
HETATM    1  C1  LUT 3 621     136.414 142.406 128.036  1.00 19.54    -0.018 C 
HETATM    2  C2  LUT 3 621     136.998 143.428 127.064  1.00 19.54     0.045 C 
HETATM    3  C3  LUT 3 621     138.472 143.767 127.164  1.00 19.54     0.123 C 
HETATM    4  C4  LUT 3 621     138.849 143.968 128.610  1.00 19.54     0.066 C 
HETATM    5  C5  LUT 3 621     138.430 142.788 129.449  1.00 19.54    -0.074 C 
HETATM    6  C6  LUT 3 621     137.266 142.142 129.264  1.00 19.54    -0.048 C 
HETATM    7  C7  LUT 3 621     136.805 141.108 130.239  1.00 19.54     0.009 C 
HETATM    8  C8  LUT 3 621     136.117 141.390 131.353  1.00 19.54     0.007 C 
HETATM    9  C9  LUT 3 621     135.653 140.374 132.319  1.00 19.54    -0.062 C 
HETATM   10  C10 LUT 3 621     134.959 140.812 133.380  1.00 19.54     0.007 C 
HETATM   11  C11 LUT 3 621     134.412 139.975 134.444  1.00 19.54     0.001 C 
HETATM   12  C12 LUT 3 621     133.828 140.637 135.438  1.00 19.54     0.007 C 
HETATM   13  C13 LUT 3 621     133.189 139.997 136.600  1.00 19.54    -0.062 C 
HETATM   14  C14 LUT 3 621     132.293 140.727 137.280  1.00 19.54     0.007 C 
HETATM   15  C15 LUT 3 621     131.559 140.223 138.434  1.00 19.54     0.001 C 
HETATM   16  C16 LUT 3 621     136.261 141.073 127.318  1.00 19.54     0.020 C 
HETATM   17  C17 LUT 3 621     135.026 142.923 128.395  1.00 19.54     0.020 C 
HETATM   18  C18 LUT 3 621     139.405 142.366 130.503  1.00 19.54     0.044 C 
HETATM   19  C19 LUT 3 621     135.963 138.920 132.129  1.00 19.54     0.048 C 
HETATM   20  C20 LUT 3 621     133.526 138.594 137.007  1.00 19.54     0.048 C 
HETATM   21  O3  LUT 3 621     138.707 144.992 126.466  1.00 19.54    -0.395 OA
ATOM     22  H3  LUT 3 621     139.631 145.204 126.529  1.00  0.00     0.210 HD
HETATM   23  C21 LUT 3 621     122.876 138.845 147.394  1.00 19.54    -0.035 C 
HETATM   24  C22 LUT 3 621     122.233 137.904 148.405  1.00 19.54     0.045 C 
HETATM   25  C23 LUT 3 621     122.554 138.233 149.854  1.00 19.54     0.142 C 
HETATM   26  C24 LUT 3 621     124.022 138.533 150.027  1.00 19.54     0.007 C 
HETATM   27  C25 LUT 3 621     124.750 139.113 149.062  1.00 19.54    -0.077 C 
HETATM   28  C26 LUT 3 621     124.390 138.958 147.608  1.00 19.54     0.044 C 
HETATM   29  C27 LUT 3 621     124.956 140.093 146.775  1.00 19.54    -0.016 C 
HETATM   30  C28 LUT 3 621     125.841 139.805 145.827  1.00 19.54     0.003 C 
HETATM   31  C29 LUT 3 621     126.431 140.836 144.960  1.00 19.54    -0.062 C 
HETATM   32  C30 LUT 3 621     126.904 140.444 143.776  1.00 19.54     0.007 C 
HETATM   33  C31 LUT 3 621     127.518 141.332 142.798  1.00 19.54     0.001 C 
HETATM   34  C32 LUT 3 621     128.275 140.713 141.904  1.00 19.54     0.007 C 
HETATM   35  C33 LUT 3 621     129.007 141.341 140.796  1.00 19.54    -0.062 C 
HETATM   36  C34 LUT 3 621     129.853 140.552 140.118  1.00 19.54     0.007 C 
HETATM   37  C35 LUT 3 621     130.637 141.013 138.981  1.00 19.54     0.001 C 
HETATM   38  C36 LUT 3 621     122.195 140.211 147.451  1.00 19.54     0.016 C 
HETATM   39  C37 LUT 3 621     122.618 138.249 146.016  1.00 19.54     0.016 C 
HETATM   40  C38 LUT 3 621     125.947 139.923 149.460  1.00 19.54     0.044 C 
HETATM   41  C39 LUT 3 621     126.506 142.265 145.382  1.00 19.54     0.048 C 
HETATM   42  C40 LUT 3 621     128.806 142.783 140.450  1.00 19.54     0.048 C 
HETATM   43  O23 LUT 3 621     122.211 137.105 150.664  1.00 19.54    -0.392 OA
ATOM     44  H23 LUT 3 621     122.412 137.311 151.570  1.00  0.00     0.210 HD
ENDROOT
TORSDOF 12
