REMARK  0 active torsions:
REMARK  status: ('A' for Active; 'I' for Inactive)
REMARK       I    between atoms: C3_3  and  O3_21 
REMARK       I    between atoms: C6_6  and  C7_7 
REMARK       I    between atoms: C8_8  and  C9_9 
REMARK       I    between atoms: C10_10  and  C11_11 
REMARK       I    between atoms: C12_12  and  C13_13 
REMARK       I    between atoms: C14_14  and  C15_15 
REMARK       I    between atoms: C23_25  and  O23_43 
REMARK       I    between atoms: C26_28  and  C27_29 
REMARK       I    between atoms: C28_30  and  C29_31 
REMARK       I    between atoms: C30_32  and  C31_33 
REMARK       I    between atoms: C32_34  and  C33_35 
REMARK       I    between atoms: C34_36  and  C35_37 
ROOT
HETATM    1  C1  LUT S1620     141.334 280.522 237.442  1.00 51.40    -0.018 C 
HETATM    2  C2  LUT S1620     140.911 280.074 238.834  1.00 51.40     0.045 C 
HETATM    3  C3  LUT S1620     139.432 280.062 239.196  1.00 51.40     0.123 C 
HETATM    4  C4  LUT S1620     138.579 280.862 238.237  1.00 51.40     0.066 C 
HETATM    5  C5  LUT S1620     138.932 280.498 236.832  1.00 51.40    -0.074 C 
HETATM    6  C6  LUT S1620     140.200 280.561 236.442  1.00 51.40    -0.048 C 
HETATM    7  C7  LUT S1620     140.542 280.649 235.011  1.00 51.40     0.009 C 
HETATM    8  C8  LUT S1620     140.481 281.813 234.382  1.00 51.40     0.007 C 
HETATM    9  C9  LUT S1620     140.844 281.934 232.973  1.00 51.40    -0.062 C 
HETATM   10  C10 LUT S1620     140.709 283.148 232.446  1.00 51.40     0.007 C 
HETATM   11  C11 LUT S1620     141.037 283.522 231.085  1.00 51.40     0.001 C 
HETATM   12  C12 LUT S1620     141.119 284.833 230.945  1.00 51.40     0.007 C 
HETATM   13  C13 LUT S1620     141.468 285.506 229.696  1.00 51.40    -0.062 C 
HETATM   14  C14 LUT S1620     141.626 286.829 229.747  1.00 51.40     0.007 C 
HETATM   15  C15 LUT S1620     142.022 287.601 228.585  1.00 51.40     0.001 C 
HETATM   16  C16 LUT S1620     142.350 279.521 236.921  1.00 51.40     0.020 C 
HETATM   17  C17 LUT S1620     142.034 281.868 237.577  1.00 51.40     0.020 C 
HETATM   18  C18 LUT S1620     137.829 280.051 235.924  1.00 51.40     0.044 C 
HETATM   19  C19 LUT S1620     141.345 280.749 232.208  1.00 51.40     0.048 C 
HETATM   20  C20 LUT S1620     141.652 284.731 228.434  1.00 51.40     0.048 C 
HETATM   21  O3  LUT S1620     139.279 280.652 240.489  1.00 51.40    -0.395 OA
ATOM     22  H3  LUT S1620     138.356 280.645 240.715  1.00  0.00     0.210 HD
HETATM   23  C21 LUT S1620     146.901 296.314 221.105  1.00 51.40    -0.035 C 
HETATM   24  C22 LUT S1620     147.554 296.679 219.785  1.00 51.40     0.045 C 
HETATM   25  C23 LUT S1620     146.729 297.609 218.911  1.00 51.40     0.142 C 
HETATM   26  C24 LUT S1620     145.264 297.252 218.917  1.00 51.40     0.007 C 
HETATM   27  C25 LUT S1620     144.689 296.538 219.892  1.00 51.40    -0.077 C 
HETATM   28  C26 LUT S1620     145.497 295.740 220.882  1.00 51.40     0.044 C 
HETATM   29  C27 LUT S1620     144.776 295.619 222.206  1.00 51.40    -0.016 C 
HETATM   30  C28 LUT S1620     144.411 294.415 222.628  1.00 51.40     0.003 C 
HETATM   31  C29 LUT S1620     143.727 294.243 223.915  1.00 51.40    -0.062 C 
HETATM   32  C30 LUT S1620     143.894 293.077 224.543  1.00 51.40     0.007 C 
HETATM   33  C31 LUT S1620     143.305 292.759 225.834  1.00 51.40     0.001 C 
HETATM   34  C32 LUT S1620     143.293 291.476 226.158  1.00 51.40     0.007 C 
HETATM   35  C33 LUT S1620     142.770 290.961 227.430  1.00 51.40    -0.062 C 
HETATM   36  C34 LUT S1620     142.664 289.635 227.533  1.00 51.40     0.007 C 
HETATM   37  C35 LUT S1620     142.218 288.910 228.709  1.00 51.40     0.001 C 
HETATM   38  C36 LUT S1620     146.900 297.519 222.042  1.00 51.40     0.016 C 
HETATM   39  C37 LUT S1620     147.785 295.243 221.721  1.00 51.40     0.016 C 
HETATM   40  C38 LUT S1620     143.192 296.533 219.971  1.00 51.40     0.044 C 
HETATM   41  C39 LUT S1620     142.879 295.331 224.493  1.00 51.40     0.048 C 
HETATM   42  C40 LUT S1620     142.409 291.884 228.551  1.00 51.40     0.048 C 
HETATM   43  O23 LUT S1620     147.218 297.515 217.571  1.00 51.40    -0.392 OA
ATOM     44  H23 LUT S1620     148.141 297.740 217.567  1.00  0.00     0.210 HD
ENDROOT
TORSDOF 12
