REMARK  0 active torsions:
REMARK  status: ('A' for Active; 'I' for Inactive)
REMARK       I    between atoms: C3_3  and  O3_21 
REMARK       I    between atoms: C6_6  and  C7_7 
REMARK       I    between atoms: C8_8  and  C9_9 
REMARK       I    between atoms: C10_10  and  C11_11 
REMARK       I    between atoms: C12_12  and  C13_13 
REMARK       I    between atoms: C14_14  and  C15_15 
REMARK       I    between atoms: C23_25  and  O23_43 
REMARK       I    between atoms: C26_28  and  C27_29 
REMARK       I    between atoms: C28_30  and  C29_31 
REMARK       I    between atoms: C30_32  and  C31_33 
REMARK       I    between atoms: C32_34  and  C33_35 
REMARK       I    between atoms: C34_36  and  C35_37 
ROOT
HETATM    1  C1  LUT N1621     171.314 300.391 239.436  1.00 51.88    -0.018 C 
HETATM    2  C2  LUT N1621     170.602 300.224 240.771  1.00 51.88     0.045 C 
HETATM    3  C3  LUT N1621     169.199 300.781 240.870  1.00 51.88     0.123 C 
HETATM    4  C4  LUT N1621     169.126 302.111 240.159  1.00 51.88     0.066 C 
HETATM    5  C5  LUT N1621     169.497 301.920 238.719  1.00 51.88    -0.074 C 
HETATM    6  C6  LUT N1621     170.554 301.178 238.384  1.00 51.88    -0.048 C 
HETATM    7  C7  LUT N1621     171.041 301.075 236.983  1.00 51.88     0.009 C 
HETATM    8  C8  LUT N1621     171.853 301.985 236.441  1.00 51.88     0.007 C 
HETATM    9  C9  LUT N1621     172.396 301.899 235.079  1.00 51.88    -0.062 C 
HETATM   10  C10 LUT N1621     173.476 302.649 234.859  1.00 51.88     0.007 C 
HETATM   11  C11 LUT N1621     174.243 302.729 233.627  1.00 51.88     0.001 C 
HETATM   12  C12 LUT N1621     175.294 303.536 233.691  1.00 51.88     0.007 C 
HETATM   13  C13 LUT N1621     176.229 303.713 232.573  1.00 51.88    -0.062 C 
HETATM   14  C14 LUT N1621     177.248 304.569 232.721  1.00 51.88     0.007 C 
HETATM   15  C15 LUT N1621     178.234 304.764 231.666  1.00 51.88     0.001 C 
HETATM   16  C16 LUT N1621     171.548 299.006 238.879  1.00 51.88     0.020 C 
HETATM   17  C17 LUT N1621     172.675 301.009 239.714  1.00 51.88     0.020 C 
HETATM   18  C18 LUT N1621     168.623 302.594 237.707  1.00 51.88     0.044 C 
HETATM   19  C19 LUT N1621     171.789 301.029 234.024  1.00 51.88     0.048 C 
HETATM   20  C20 LUT N1621     176.055 302.911 231.321  1.00 51.88     0.048 C 
HETATM   21  O3  LUT N1621     168.886 300.997 242.248  1.00 51.88    -0.395 OA
ATOM     22  H3  LUT N1621     168.005 301.347 242.310  1.00  0.00     0.210 HD
HETATM   23  C21 LUT N1621     188.780 309.222 225.742  1.00 51.88    -0.035 C 
HETATM   24  C22 LUT N1621     189.657 309.474 224.526  1.00 51.88     0.045 C 
HETATM   25  C23 LUT N1621     189.329 310.776 223.820  1.00 51.88     0.142 C 
HETATM   26  C24 LUT N1621     187.853 310.859 223.540  1.00 51.88     0.007 C 
HETATM   27  C25 LUT N1621     186.942 310.196 224.262  1.00 51.88    -0.077 C 
HETATM   28  C26 LUT N1621     187.290 309.255 225.382  1.00 51.88     0.044 C 
HETATM   29  C27 LUT N1621     186.417 309.567 226.578  1.00 51.88    -0.016 C 
HETATM   30  C28 LUT N1621     185.657 308.588 227.050  1.00 51.88     0.003 C 
HETATM   31  C29 LUT N1621     184.768 308.759 228.207  1.00 51.88    -0.062 C 
HETATM   32  C30 LUT N1621     184.125 307.673 228.651  1.00 51.88     0.007 C 
HETATM   33  C31 LUT N1621     183.207 307.656 229.783  1.00 51.88     0.001 C 
HETATM   34  C32 LUT N1621     182.178 306.813 229.719  1.00 51.88     0.007 C 
HETATM   35  C33 LUT N1621     181.193 306.708 230.805  1.00 51.88    -0.062 C 
HETATM   36  C34 LUT N1621     180.169 305.845 230.717  1.00 51.88     0.007 C 
HETATM   37  C35 LUT N1621     179.178 305.696 231.780  1.00 51.88     0.001 C 
HETATM   38  C36 LUT N1621     189.135 310.223 226.833  1.00 51.88     0.016 C 
HETATM   39  C37 LUT N1621     189.126 307.832 226.246  1.00 51.88     0.016 C 
HETATM   40  C38 LUT N1621     185.500 310.380 223.920  1.00 51.88     0.044 C 
HETATM   41  C39 LUT N1621     184.601 310.102 228.847  1.00 51.88     0.048 C 
HETATM   42  C40 LUT N1621     181.363 307.577 232.000  1.00 51.88     0.048 C 
HETATM   43  O23 LUT N1621     190.038 310.790 222.582  1.00 51.88    -0.392 OA
ATOM     44  H23 LUT N1621     189.833 311.605 222.140  1.00  0.00     0.210 HD
ENDROOT
TORSDOF 12
