REMARK  0 active torsions:
REMARK  status: ('A' for Active; 'I' for Inactive)
REMARK       I    between atoms: C3_3  and  O3_21 
REMARK       I    between atoms: C6_6  and  C7_7 
REMARK       I    between atoms: C8_8  and  C9_9 
REMARK       I    between atoms: C10_10  and  C11_11 
REMARK       I    between atoms: C12_12  and  C13_13 
REMARK       I    between atoms: C14_14  and  C15_15 
REMARK       I    between atoms: C23_25  and  O23_43 
REMARK       I    between atoms: C26_28  and  C27_29 
REMARK       I    between atoms: C28_30  and  C29_31 
REMARK       I    between atoms: C30_32  and  C31_33 
REMARK       I    between atoms: C32_34  and  C33_35 
REMARK       I    between atoms: C34_36  and  C35_37 
ROOT
HETATM    1  C1  LUT G1621     201.410 315.964 242.783  1.00 57.09    -0.018 C 
HETATM    2  C2  LUT G1621     201.546 316.428 244.227  1.00 57.09     0.045 C 
HETATM    3  C3  LUT G1621     202.754 317.278 244.575  1.00 57.09     0.123 C 
HETATM    4  C4  LUT G1621     203.970 316.815 243.805  1.00 57.09     0.066 C 
HETATM    5  C5  LUT G1621     203.665 316.890 242.337  1.00 57.09    -0.074 C 
HETATM    6  C6  LUT G1621     202.533 316.368 241.851  1.00 57.09    -0.048 C 
HETATM    7  C7  LUT G1621     202.325 316.185 240.389  1.00 57.09     0.009 C 
HETATM    8  C8  LUT G1621     202.829 315.137 239.730  1.00 57.09     0.007 C 
HETATM    9  C9  LUT G1621     202.637 314.900 238.290  1.00 57.09    -0.062 C 
HETATM   10  C10 LUT G1621     202.788 313.636 237.888  1.00 57.09     0.007 C 
HETATM   11  C11 LUT G1621     202.626 313.125 236.533  1.00 57.09     0.001 C 
HETATM   12  C12 LUT G1621     202.785 311.811 236.417  1.00 57.09     0.007 C 
HETATM   13  C13 LUT G1621     202.629 311.064 235.161  1.00 57.09    -0.062 C 
HETATM   14  C14 LUT G1621     202.906 309.753 235.154  1.00 57.09     0.007 C 
HETATM   15  C15 LUT G1621     202.725 308.942 233.957  1.00 57.09     0.001 C 
HETATM   16  C16 LUT G1621     200.146 316.583 242.229  1.00 57.09     0.020 C 
HETATM   17  C17 LUT G1621     201.251 314.452 242.816  1.00 57.09     0.020 C 
HETATM   18  C18 LUT G1621     204.666 317.592 241.468  1.00 57.09     0.044 C 
HETATM   19  C19 LUT G1621     202.294 316.008 237.342  1.00 57.09     0.048 C 
HETATM   20  C20 LUT G1621     202.121 311.756 233.935  1.00 57.09     0.048 C 
HETATM   21  O3  LUT G1621     203.007 317.121 245.972  1.00 57.09    -0.395 OA
ATOM     22  H3  LUT G1621     202.243 317.412 246.456  1.00  0.00     0.210 HD
HETATM   23  C21 LUT G1621     201.959 298.456 226.661  1.00 57.09    -0.035 C 
HETATM   24  C22 LUT G1621     201.743 297.804 225.306  1.00 57.09     0.045 C 
HETATM   25  C23 LUT G1621     203.027 297.483 224.564  1.00 57.09     0.142 C 
HETATM   26  C24 LUT G1621     203.979 298.648 224.604  1.00 57.09     0.007 C 
HETATM   27  C25 LUT G1621     203.927 299.603 225.540  1.00 57.09    -0.077 C 
HETATM   28  C26 LUT G1621     202.812 299.720 226.541  1.00 57.09     0.044 C 
HETATM   29  C27 LUT G1621     203.378 300.151 227.878  1.00 57.09    -0.016 C 
HETATM   30  C28 LUT G1621     202.911 301.267 228.422  1.00 57.09     0.003 C 
HETATM   31  C29 LUT G1621     203.379 301.787 229.713  1.00 57.09    -0.062 C 
HETATM   32  C30 LUT G1621     202.691 302.808 230.228  1.00 57.09     0.007 C 
HETATM   33  C31 LUT G1621     203.018 303.446 231.493  1.00 57.09     0.001 C 
HETATM   34  C32 LUT G1621     202.793 304.751 231.562  1.00 57.09     0.007 C 
HETATM   35  C33 LUT G1621     203.068 305.528 232.771  1.00 57.09    -0.062 C 
HETATM   36  C34 LUT G1621     202.700 306.810 232.838  1.00 57.09     0.007 C 
HETATM   37  C35 LUT G1621     202.925 307.631 234.021  1.00 57.09     0.001 C 
HETATM   38  C36 LUT G1621     202.571 297.452 227.635  1.00 57.09     0.016 C 
HETATM   39  C37 LUT G1621     200.583 298.855 227.167  1.00 57.09     0.016 C 
HETATM   40  C38 LUT G1621     205.023 300.617 225.571  1.00 57.09     0.044 C 
HETATM   41  C39 LUT G1621     204.573 301.208 230.405  1.00 57.09     0.048 C 
HETATM   42  C40 LUT G1621     203.775 304.854 233.889  1.00 57.09     0.048 C 
HETATM   43  O23 LUT G1621     202.703 297.221 223.197  1.00 57.09    -0.392 OA
ATOM     44  H23 LUT G1621     203.507 297.020 222.732  1.00  0.00     0.210 HD
ENDROOT
TORSDOF 12
