REMARK  0 active torsions:
REMARK  status: ('A' for Active; 'I' for Inactive)
REMARK       I    between atoms: C3_3  and  O3_21 
REMARK       I    between atoms: C6_6  and  C7_7 
REMARK       I    between atoms: C8_8  and  C9_9 
REMARK       I    between atoms: C10_10  and  C11_11 
REMARK       I    between atoms: C12_12  and  C13_13 
REMARK       I    between atoms: C14_14  and  C15_15 
REMARK       I    between atoms: C23_25  and  O23_43 
REMARK       I    between atoms: C26_28  and  C27_29 
REMARK       I    between atoms: C28_30  and  C29_31 
REMARK       I    between atoms: C30_32  and  C31_33 
REMARK       I    between atoms: C32_34  and  C33_35 
REMARK       I    between atoms: C34_36  and  C35_37 
ROOT
HETATM    1  C1  LUT S1621     131.049 293.531 236.822  1.00 56.99    -0.018 C 
HETATM    2  C2  LUT S1621     131.497 294.208 238.115  1.00 56.99     0.045 C 
HETATM    3  C3  LUT S1621     132.989 294.431 238.322  1.00 56.99     0.123 C 
HETATM    4  C4  LUT S1621     133.817 293.363 237.636  1.00 56.99     0.066 C 
HETATM    5  C5  LUT S1621     133.434 293.308 236.186  1.00 56.99    -0.074 C 
HETATM    6  C6  LUT S1621     132.157 293.329 235.806  1.00 56.99    -0.048 C 
HETATM    7  C7  LUT S1621     131.813 293.169 234.368  1.00 56.99     0.009 C 
HETATM    8  C8  LUT S1621     131.514 291.976 233.850  1.00 56.99     0.007 C 
HETATM    9  C9  LUT S1621     131.162 291.750 232.435  1.00 56.99    -0.062 C 
HETATM   10  C10 LUT S1621     130.905 290.493 232.068  1.00 56.99     0.007 C 
HETATM   11  C11 LUT S1621     130.544 290.085 230.718  1.00 56.99     0.001 C 
HETATM   12  C12 LUT S1621     130.614 288.780 230.488  1.00 56.99     0.007 C 
HETATM   13  C13 LUT S1621     130.258 288.157 229.205  1.00 56.99    -0.062 C 
HETATM   14  C14 LUT S1621     130.216 286.822 229.168  1.00 56.99     0.007 C 
HETATM   15  C15 LUT S1621     129.839 286.072 227.982  1.00 56.99     0.001 C 
HETATM   16  C16 LUT S1621     130.016 294.430 236.175  1.00 56.99     0.020 C 
HETATM   17  C17 LUT S1621     130.369 292.213 237.187  1.00 56.99     0.020 C 
HETATM   18  C18 LUT S1621     134.550 293.251 235.192  1.00 56.99     0.044 C 
HETATM   19  C19 LUT S1621     131.102 292.863 231.439  1.00 56.99     0.048 C 
HETATM   20  C20 LUT S1621     129.945 288.985 227.997  1.00 56.99     0.048 C 
HETATM   21  O3  LUT S1621     133.271 294.386 239.724  1.00 56.99    -0.395 OA
ATOM     22  H3  LUT S1621     132.752 295.055 240.154  1.00  0.00     0.210 HD
HETATM   23  C21 LUT S1621     125.730 275.665 221.684  1.00 56.99    -0.035 C 
HETATM   24  C22 LUT S1621     125.090 275.216 220.380  1.00 56.99     0.045 C 
HETATM   25  C23 LUT S1621     126.106 274.878 219.305  1.00 56.99     0.142 C 
HETATM   26  C24 LUT S1621     127.148 275.958 219.185  1.00 56.99     0.007 C 
HETATM   27  C25 LUT S1621     127.538 276.703 220.223  1.00 56.99    -0.077 C 
HETATM   28  C26 LUT S1621     126.691 276.842 221.459  1.00 56.99     0.044 C 
HETATM   29  C27 LUT S1621     127.531 277.070 222.695  1.00 56.99    -0.016 C 
HETATM   30  C28 LUT S1621     127.391 278.249 223.282  1.00 56.99     0.003 C 
HETATM   31  C29 LUT S1621     128.088 278.663 224.504  1.00 56.99    -0.062 C 
HETATM   32  C30 LUT S1621     127.873 279.919 224.876  1.00 56.99     0.007 C 
HETATM   33  C31 LUT S1621     128.414 280.559 226.061  1.00 56.99     0.001 C 
HETATM   34  C32 LUT S1621     128.668 281.854 225.959  1.00 56.99     0.007 C 
HETATM   35  C33 LUT S1621     129.159 282.626 227.101  1.00 56.99    -0.062 C 
HETATM   36  C34 LUT S1621     129.363 283.941 226.953  1.00 56.99     0.007 C 
HETATM   37  C35 LUT S1621     129.791 284.750 228.083  1.00 56.99     0.001 C 
HETATM   38  C36 LUT S1621     126.414 274.479 222.356  1.00 56.99     0.016 C 
HETATM   39  C37 LUT S1621     124.596 276.124 222.592  1.00 56.99     0.016 C 
HETATM   40  C38 LUT S1621     128.840 277.433 220.111  1.00 56.99     0.044 C 
HETATM   41  C39 LUT S1621     128.968 277.737 225.284  1.00 56.99     0.048 C 
HETATM   42  C40 LUT S1621     129.377 281.941 228.413  1.00 56.99     0.048 C 
HETATM   43  O23 LUT S1621     125.438 274.756 218.048  1.00 56.99    -0.392 OA
ATOM     44  H23 LUT S1621     126.074 274.544 217.375  1.00  0.00     0.210 HD
ENDROOT
TORSDOF 12
