REMARK  0 active torsions:
REMARK  status: ('A' for Active; 'I' for Inactive)
REMARK       I    between atoms: C3_3  and  O3_21 
REMARK       I    between atoms: C6_6  and  C7_7 
REMARK       I    between atoms: C8_8  and  C9_9 
REMARK       I    between atoms: C10_10  and  C11_11 
REMARK       I    between atoms: C12_12  and  C13_13 
REMARK       I    between atoms: C14_14  and  C15_15 
REMARK       I    between atoms: C23_25  and  O23_43 
REMARK       I    between atoms: C26_28  and  C27_29 
REMARK       I    between atoms: C28_30  and  C29_31 
REMARK       I    between atoms: C30_32  and  C31_33 
REMARK       I    between atoms: C32_34  and  C33_35 
REMARK       I    between atoms: C34_36  and  C35_37 
ROOT
HETATM    1  C1  LUT Z1620     260.419 181.744 225.398  1.00 27.53    -0.018 C 
HETATM    2  C2  LUT Z1620     260.311 181.321 223.934  1.00 27.53     0.045 C 
HETATM    3  C3  LUT Z1620     260.003 179.842 223.806  1.00 27.53     0.123 C 
HETATM    4  C4  LUT Z1620     261.184 179.122 224.415  1.00 27.53     0.066 C 
HETATM    5  C5  LUT Z1620     261.065 179.364 225.893  1.00 27.53    -0.074 C 
HETATM    6  C6  LUT Z1620     260.699 180.586 226.348  1.00 27.53    -0.048 C 
HETATM    7  C7  LUT Z1620     260.757 180.901 227.790  1.00 27.53     0.009 C 
HETATM    8  C8  LUT Z1620     261.886 180.526 228.400  1.00 27.53     0.007 C 
HETATM    9  C9  LUT Z1620     262.174 180.947 229.788  1.00 27.53    -0.062 C 
HETATM   10  C10 LUT Z1620     263.453 180.852 230.200  1.00 27.53     0.007 C 
HETATM   11  C11 LUT Z1620     263.914 181.350 231.495  1.00 27.53     0.001 C 
HETATM   12  C12 LUT Z1620     265.219 181.452 231.724  1.00 27.53     0.007 C 
HETATM   13  C13 LUT Z1620     265.736 182.048 232.975  1.00 27.53    -0.062 C 
HETATM   14  C14 LUT Z1620     267.051 182.336 233.006  1.00 27.53     0.007 C 
HETATM   15  C15 LUT Z1620     267.740 182.969 234.130  1.00 27.53     0.001 C 
HETATM   16  C16 LUT Z1620     259.137 182.486 225.768  1.00 27.53     0.020 C 
HETATM   17  C17 LUT Z1620     261.608 182.694 225.529  1.00 27.53     0.020 C 
HETATM   18  C18 LUT Z1620     261.217 178.135 226.758  1.00 27.53     0.044 C 
HETATM   19  C19 LUT Z1620     261.061 181.490 230.649  1.00 27.53     0.048 C 
HETATM   20  C20 LUT Z1620     264.783 182.335 234.105  1.00 27.53     0.048 C 
HETATM   21  O3  LUT Z1620     259.829 179.449 222.443  1.00 27.53    -0.395 OA
ATOM     22  H3  LUT Z1620     259.636 178.522 222.363  1.00  0.00     0.210 HD
HETATM   23  C21 LUT Z1620     276.561 188.870 240.807  1.00 27.53    -0.035 C 
HETATM   24  C22 LUT Z1620     276.747 189.495 242.176  1.00 27.53     0.045 C 
HETATM   25  C23 LUT Z1620     277.924 188.877 242.919  1.00 27.53     0.142 C 
HETATM   26  C24 LUT Z1620     277.984 187.372 242.762  1.00 27.53     0.007 C 
HETATM   27  C25 LUT Z1620     277.229 186.687 241.887  1.00 27.53    -0.077 C 
HETATM   28  C26 LUT Z1620     276.259 187.381 240.966  1.00 27.53     0.044 C 
HETATM   29  C27 LUT Z1620     276.213 186.770 239.583  1.00 27.53    -0.016 C 
HETATM   30  C28 LUT Z1620     275.021 186.413 239.121  1.00 27.53     0.003 C 
HETATM   31  C29 LUT Z1620     274.812 185.832 237.784  1.00 27.53    -0.062 C 
HETATM   32  C30 LUT Z1620     273.529 185.562 237.495  1.00 27.53     0.007 C 
HETATM   33  C31 LUT Z1620     273.034 184.987 236.255  1.00 27.53     0.001 C 
HETATM   34  C32 LUT Z1620     271.723 184.756 236.178  1.00 27.53     0.007 C 
HETATM   35  C33 LUT Z1620     271.106 184.142 234.988  1.00 27.53    -0.062 C 
HETATM   36  C34 LUT Z1620     269.787 183.866 235.061  1.00 27.53     0.007 C 
HETATM   37  C35 LUT Z1620     269.031 183.233 233.981  1.00 27.53     0.001 C 
HETATM   38  C36 LUT Z1620     277.798 189.113 239.946  1.00 27.53     0.016 C 
HETATM   39  C37 LUT Z1620     275.370 189.546 240.132  1.00 27.53     0.016 C 
HETATM   40  C38 LUT Z1620     277.338 185.187 241.887  1.00 27.53     0.044 C 
HETATM   41  C39 LUT Z1620     275.968 185.615 236.847  1.00 27.53     0.048 C 
HETATM   42  C40 LUT Z1620     271.978 183.846 233.795  1.00 27.53     0.048 C 
HETATM   43  O23 LUT Z1620     277.810 189.179 244.314  1.00 27.53    -0.392 OA
ATOM     44  H23 LUT Z1620     277.772 190.123 244.412  1.00  0.00     0.210 HD
ENDROOT
TORSDOF 12
