REMARK  0 active torsions:
REMARK  status: ('A' for Active; 'I' for Inactive)
REMARK       I    between atoms: C3_3  and  O3_21 
REMARK       I    between atoms: C6_6  and  C7_7 
REMARK       I    between atoms: C8_8  and  C9_9 
REMARK       I    between atoms: C10_10  and  C11_11 
REMARK       I    between atoms: C12_12  and  C13_13 
REMARK       I    between atoms: C14_14  and  C15_15 
REMARK       I    between atoms: C23_25  and  O23_43 
REMARK       I    between atoms: C26_28  and  C27_29 
REMARK       I    between atoms: C28_30  and  C29_31 
REMARK       I    between atoms: C30_32  and  C31_33 
REMARK       I    between atoms: C32_34  and  C33_35 
REMARK       I    between atoms: C34_36  and  C35_37 
ROOT
HETATM    1  C1  LUT 8 619     184.077 291.925 232.599  1.00 35.06    -0.018 C 
HETATM    2  C2  LUT 8 619     184.255 291.189 231.270  1.00 35.06     0.045 C 
HETATM    3  C3  LUT 8 619     185.686 290.795 230.921  1.00 35.06     0.123 C 
HETATM    4  C4  LUT 8 619     186.673 291.640 231.704  1.00 35.06     0.066 C 
HETATM    5  C5  LUT 8 619     186.388 291.353 233.148  1.00 35.06    -0.074 C 
HETATM    6  C6  LUT 8 619     185.160 291.610 233.601  1.00 35.06    -0.048 C 
HETATM    7  C7  LUT 8 619     184.870 291.776 235.037  1.00 35.06     0.009 C 
HETATM    8  C8  LUT 8 619     185.775 292.455 235.741  1.00 35.06     0.007 C 
HETATM    9  C9  LUT 8 619     185.488 292.856 237.131  1.00 35.06    -0.062 C 
HETATM   10  C10 LUT 8 619     186.189 293.888 237.623  1.00 35.06     0.007 C 
HETATM   11  C11 LUT 8 619     185.949 294.488 238.928  1.00 35.06     0.001 C 
HETATM   12  C12 LUT 8 619     186.597 295.602 239.238  1.00 35.06     0.007 C 
HETATM   13  C13 LUT 8 619     186.353 296.315 240.497  1.00 35.06    -0.062 C 
HETATM   14  C14 LUT 8 619     186.883 297.541 240.603  1.00 35.06     0.007 C 
HETATM   15  C15 LUT 8 619     186.719 298.421 241.752  1.00 35.06     0.001 C 
HETATM   16  C16 LUT 8 619     182.717 291.598 233.196  1.00 35.06     0.020 C 
HETATM   17  C17 LUT 8 619     184.165 293.427 232.351  1.00 35.06     0.020 C 
HETATM   18  C18 LUT 8 619     187.451 290.652 233.957  1.00 35.06     0.044 C 
HETATM   19  C19 LUT 8 619     184.406 292.144 237.890  1.00 35.06     0.048 C 
HETATM   20  C20 LUT 8 619     185.520 295.651 241.551  1.00 35.06     0.048 C 
HETATM   21  O3  LUT 8 619     185.917 290.993 229.522  1.00 35.06    -0.395 OA
ATOM     22  H3  LUT 8 619     186.809 290.748 229.305  1.00  0.00     0.210 HD
HETATM   23  C21 LUT 8 619     186.979 308.798 249.199  1.00 35.06    -0.035 C 
HETATM   24  C22 LUT 8 619     186.614 309.218 250.606  1.00 35.06     0.045 C 
HETATM   25  C23 LUT 8 619     187.845 309.465 251.455  1.00 35.06     0.142 C 
HETATM   26  C24 LUT 8 619     188.893 308.401 251.243  1.00 35.06     0.007 C 
HETATM   27  C25 LUT 8 619     188.835 307.501 250.253  1.00 35.06    -0.077 C 
HETATM   28  C26 LUT 8 619     187.719 307.471 249.247  1.00 35.06     0.044 C 
HETATM   29  C27 LUT 8 619     188.225 307.118 247.868  1.00 35.06    -0.016 C 
HETATM   30  C28 LUT 8 619     187.810 305.981 247.327  1.00 35.06     0.003 C 
HETATM   31  C29 LUT 8 619     188.232 305.541 245.989  1.00 35.06    -0.062 C 
HETATM   32  C30 LUT 8 619     187.727 304.370 245.579  1.00 35.06     0.007 C 
HETATM   33  C31 LUT 8 619     188.011 303.731 244.304  1.00 35.06     0.001 C 
HETATM   34  C32 LUT 8 619     187.460 302.542 244.099  1.00 35.06     0.007 C 
HETATM   35  C33 LUT 8 619     187.686 301.763 242.874  1.00 35.06    -0.062 C 
HETATM   36  C34 LUT 8 619     187.139 300.537 242.826  1.00 35.06     0.007 C 
HETATM   37  C35 LUT 8 619     187.279 299.620 241.700  1.00 35.06     0.001 C 
HETATM   38  C36 LUT 8 619     187.798 309.880 248.518  1.00 35.06     0.016 C 
HETATM   39  C37 LUT 8 619     185.687 308.617 248.425  1.00 35.06     0.016 C 
HETATM   40  C38 LUT 8 619     189.912 306.466 250.195  1.00 35.06     0.044 C 
HETATM   41  C39 LUT 8 619     189.155 306.397 245.176  1.00 35.06     0.048 C 
HETATM   42  C40 LUT 8 619     188.523 302.365 241.787  1.00 35.06     0.048 C 
HETATM   43  O23 LUT 8 619     187.462 309.477 252.832  1.00 35.06    -0.392 OA
ATOM     44  H23 LUT 8 619     186.802 310.147 252.966  1.00  0.00     0.210 HD
ENDROOT
TORSDOF 12
