REMARK  0 active torsions:
REMARK  status: ('A' for Active; 'I' for Inactive)
REMARK       I    between atoms: C3_3  and  O3_21 
REMARK       I    between atoms: C6_6  and  C7_7 
REMARK       I    between atoms: C8_8  and  C9_9 
REMARK       I    between atoms: C10_10  and  C11_11 
REMARK       I    between atoms: C12_12  and  C13_13 
REMARK       I    between atoms: C14_14  and  C15_15 
REMARK       I    between atoms: C23_25  and  O23_43 
REMARK       I    between atoms: C26_28  and  C27_29 
REMARK       I    between atoms: C28_30  and  C29_31 
REMARK       I    between atoms: C30_32  and  C31_33 
REMARK       I    between atoms: C32_34  and  C33_35 
REMARK       I    between atoms: C34_36  and  C35_37 
ROOT
HETATM    1  C1  LUT 5 620     143.055 208.691 227.493  1.00 42.32    -0.018 C 
HETATM    2  C2  LUT 5 620     143.542 208.308 226.099  1.00 42.32     0.045 C 
HETATM    3  C3  LUT 5 620     144.978 208.718 225.789  1.00 42.32     0.123 C 
HETATM    4  C4  LUT 5 620     145.311 210.033 226.469  1.00 42.32     0.066 C 
HETATM    5  C5  LUT 5 620     145.170 209.848 227.955  1.00 42.32    -0.074 C 
HETATM    6  C6  LUT 5 620     144.196 209.060 228.411  1.00 42.32    -0.048 C 
HETATM    7  C7  LUT 5 620     143.978 208.887 229.850  1.00 42.32     0.009 C 
HETATM    8  C8  LUT 5 620     143.332 209.989 230.263  1.00 42.32     0.007 C 
HETATM    9  C9  LUT 5 620     142.872 210.199 231.659  1.00 42.32    -0.062 C 
HETATM   10  C10 LUT 5 620     142.138 211.304 231.908  1.00 42.32     0.007 C 
HETATM   11  C11 LUT 5 620     141.552 211.625 233.210  1.00 42.32     0.001 C 
HETATM   12  C12 LUT 5 620     140.733 212.663 233.315  1.00 42.32     0.007 C 
HETATM   13  C13 LUT 5 620     140.047 212.979 234.580  1.00 42.32    -0.062 C 
HETATM   14  C14 LUT 5 620     139.105 213.928 234.505  1.00 42.32     0.007 C 
HETATM   15  C15 LUT 5 620     138.247 214.385 235.591  1.00 42.32     0.001 C 
HETATM   16  C16 LUT 5 620     142.336 207.504 228.115  1.00 42.32     0.020 C 
HETATM   17  C17 LUT 5 620     142.088 209.861 227.361  1.00 42.32     0.020 C 
HETATM   18  C18 LUT 5 620     146.163 210.545 228.839  1.00 42.32     0.044 C 
HETATM   19  C19 LUT 5 620     143.206 209.200 232.733  1.00 42.32     0.048 C 
HETATM   20  C20 LUT 5 620     140.368 212.221 235.835  1.00 42.32     0.048 C 
HETATM   21  O3  LUT 5 620     145.132 208.882 224.376  1.00 42.32    -0.395 OA
ATOM     22  H3  LUT 5 620     146.026 209.137 224.183  1.00  0.00     0.210 HD
HETATM   23  C21 LUT 5 620     128.488 220.399 240.571  1.00 42.32    -0.035 C 
HETATM   24  C22 LUT 5 620     127.682 220.415 241.847  1.00 42.32     0.045 C 
HETATM   25  C23 LUT 5 620     127.643 221.803 242.442  1.00 42.32     0.142 C 
HETATM   26  C24 LUT 5 620     129.019 222.424 242.469  1.00 42.32     0.007 C 
HETATM   27  C25 LUT 5 620     130.058 221.949 241.764  1.00 42.32    -0.077 C 
HETATM   28  C26 LUT 5 620     129.940 220.751 240.870  1.00 42.32     0.044 C 
HETATM   29  C27 LUT 5 620     130.619 220.860 239.523  1.00 42.32    -0.016 C 
HETATM   30  C28 LUT 5 620     131.588 219.997 239.275  1.00 42.32     0.003 C 
HETATM   31  C29 LUT 5 620     132.286 219.906 237.990  1.00 42.32    -0.062 C 
HETATM   32  C30 LUT 5 620     133.120 218.864 237.912  1.00 42.32     0.007 C 
HETATM   33  C31 LUT 5 620     133.919 218.487 236.759  1.00 42.32     0.001 C 
HETATM   34  C32 LUT 5 620     134.684 217.414 236.920  1.00 42.32     0.007 C 
HETATM   35  C33 LUT 5 620     135.571 216.896 235.874  1.00 42.32    -0.062 C 
HETATM   36  C34 LUT 5 620     136.416 215.897 236.205  1.00 42.32     0.007 C 
HETATM   37  C35 LUT 5 620     137.364 215.317 235.258  1.00 42.32     0.001 C 
HETATM   38  C36 LUT 5 620     127.870 221.363 239.570  1.00 42.32     0.016 C 
HETATM   39  C37 LUT 5 620     128.427 218.998 239.985  1.00 42.32     0.016 C 
HETATM   40  C38 LUT 5 620     131.393 222.594 241.942  1.00 42.32     0.044 C 
HETATM   41  C39 LUT 5 620     131.986 220.859 236.871  1.00 42.32     0.048 C 
HETATM   42  C40 LUT 5 620     135.476 217.523 234.516  1.00 42.32     0.048 C 
HETATM   43  O23 LUT 5 620     127.149 221.667 243.774  1.00 42.32    -0.392 OA
ATOM     44  H23 LUT 5 620     127.124 222.540 244.148  1.00  0.00     0.210 HD
ENDROOT
TORSDOF 12
