REMARK  0 active torsions:
REMARK  status: ('A' for Active; 'I' for Inactive)
REMARK       I    between atoms: C3_3  and  O3_21 
REMARK       I    between atoms: C6_6  and  C7_7 
REMARK       I    between atoms: C8_8  and  C9_9 
REMARK       I    between atoms: C10_10  and  C11_11 
REMARK       I    between atoms: C12_12  and  C13_13 
REMARK       I    between atoms: C14_14  and  C15_15 
REMARK       I    between atoms: C23_25  and  O23_43 
REMARK       I    between atoms: C26_28  and  C27_29 
REMARK       I    between atoms: C28_30  and  C29_31 
REMARK       I    between atoms: C30_32  and  C31_33 
REMARK       I    between atoms: C32_34  and  C33_35 
REMARK       I    between atoms: C34_36  and  C35_37 
ROOT
HETATM    1  C1  LUT U1620     332.796 167.211 218.700  1.00 22.99    -0.018 C 
HETATM    2  C2  LUT U1620     332.950 167.923 217.373  1.00 22.99     0.045 C 
HETATM    3  C3  LUT U1620     333.794 169.168 217.442  1.00 22.99     0.123 C 
HETATM    4  C4  LUT U1620     333.127 170.059 218.451  1.00 22.99     0.066 C 
HETATM    5  C5  LUT U1620     333.138 169.398 219.791  1.00 22.99    -0.074 C 
HETATM    6  C6  LUT U1620     333.213 168.075 219.870  1.00 22.99    -0.048 C 
HETATM    7  C7  LUT U1620     333.319 167.430 221.173  1.00 22.99     0.009 C 
HETATM    8  C8  LUT U1620     332.081 167.325 221.667  1.00 22.99     0.007 C 
HETATM    9  C9  LUT U1620     331.771 166.720 222.975  1.00 22.99    -0.062 C 
HETATM   10  C10 LUT U1620     330.477 166.634 223.327  1.00 22.99     0.007 C 
HETATM   11  C11 LUT U1620     330.028 166.026 224.572  1.00 22.99     0.001 C 
HETATM   12  C12 LUT U1620     328.731 165.921 224.835  1.00 22.99     0.007 C 
HETATM   13  C13 LUT U1620     328.291 165.245 226.061  1.00 22.99    -0.062 C 
HETATM   14  C14 LUT U1620     326.980 165.021 226.191  1.00 22.99     0.007 C 
HETATM   15  C15 LUT U1620     326.354 164.299 227.290  1.00 22.99     0.001 C 
HETATM   16  C16 LUT U1620     333.690 165.983 218.692  1.00 22.99     0.020 C 
HETATM   17  C17 LUT U1620     331.349 166.763 218.749  1.00 22.99     0.020 C 
HETATM   18  C18 LUT U1620     333.084 170.302 220.980  1.00 22.99     0.044 C 
HETATM   19  C19 LUT U1620     332.883 166.219 223.847  1.00 22.99     0.048 C 
HETATM   20  C20 LUT U1620     329.323 164.775 227.033  1.00 22.99     0.048 C 
HETATM   21  O3  LUT U1620     333.755 169.824 216.182  1.00 22.99    -0.395 OA
ATOM     22  H3  LUT U1620     334.288 170.610 216.226  1.00  0.00     0.210 HD
HETATM   23  C21 LUT U1620     317.645 157.586 233.508  1.00 22.99    -0.035 C 
HETATM   24  C22 LUT U1620     317.599 156.616 234.663  1.00 22.99     0.045 C 
HETATM   25  C23 LUT U1620     316.593 157.041 235.715  1.00 22.99     0.142 C 
HETATM   26  C24 LUT U1620     316.463 158.543 235.830  1.00 22.99     0.007 C 
HETATM   27  C25 LUT U1620     317.167 159.417 235.087  1.00 22.99    -0.077 C 
HETATM   28  C26 LUT U1620     318.094 158.957 234.001  1.00 22.99     0.044 C 
HETATM   29  C27 LUT U1620     318.165 159.848 232.777  1.00 22.99    -0.016 C 
HETATM   30  C28 LUT U1620     319.345 160.313 232.367  1.00 22.99     0.003 C 
HETATM   31  C29 LUT U1620     319.510 161.128 231.145  1.00 22.99    -0.062 C 
HETATM   32  C30 LUT U1620     320.777 161.428 230.810  1.00 22.99     0.007 C 
HETATM   33  C31 LUT U1620     321.195 162.189 229.634  1.00 22.99     0.001 C 
HETATM   34  C32 LUT U1620     322.497 162.406 229.449  1.00 22.99     0.007 C 
HETATM   35  C33 LUT U1620     323.024 163.162 228.299  1.00 22.99    -0.062 C 
HETATM   36  C34 LUT U1620     324.352 163.360 228.260  1.00 22.99     0.007 C 
HETATM   37  C35 LUT U1620     325.045 164.096 227.209  1.00 22.99     0.001 C 
HETATM   38  C36 LUT U1620     316.278 157.645 232.848  1.00 22.99     0.016 C 
HETATM   39  C37 LUT U1620     318.619 157.034 232.479  1.00 22.99     0.016 C 
HETATM   40  C38 LUT U1620     317.078 160.872 235.420  1.00 22.99     0.044 C 
HETATM   41  C39 LUT U1620     318.309 161.518 230.333  1.00 22.99     0.048 C 
HETATM   42  C40 LUT U1620     322.079 163.641 227.239  1.00 22.99     0.048 C 
HETATM   43  O23 LUT U1620     317.021 156.515 236.975  1.00 22.99    -0.392 OA
ATOM     44  H23 LUT U1620     316.391 156.781 237.634  1.00  0.00     0.210 HD
ENDROOT
TORSDOF 12
