REMARK  0 active torsions:
REMARK  status: ('A' for Active; 'I' for Inactive)
REMARK       I    between atoms: C3_3  and  O3_21 
REMARK       I    between atoms: C6_6  and  C7_7 
REMARK       I    between atoms: C8_8  and  C9_9 
REMARK       I    between atoms: C10_10  and  C11_11 
REMARK       I    between atoms: C12_12  and  C13_13 
REMARK       I    between atoms: C14_14  and  C15_15 
REMARK       I    between atoms: C23_25  and  O23_43 
REMARK       I    between atoms: C26_28  and  C27_29 
REMARK       I    between atoms: C28_30  and  C29_31 
REMARK       I    between atoms: C30_32  and  C31_33 
REMARK       I    between atoms: C32_34  and  C33_35 
REMARK       I    between atoms: C34_36  and  C35_37 
ROOT
HETATM    1  C1  LUT X1620     287.870 150.115 219.011  1.00 33.88    -0.018 C 
HETATM    2  C2  LUT X1620     287.481 150.717 217.669  1.00 33.88     0.045 C 
HETATM    3  C3  LUT X1620     286.866 152.098 217.754  1.00 33.88     0.123 C 
HETATM    4  C4  LUT X1620     285.677 152.000 218.684  1.00 33.88     0.066 C 
HETATM    5  C5  LUT X1620     286.144 151.570 220.051  1.00 33.88    -0.074 C 
HETATM    6  C6  LUT X1620     287.312 150.930 220.177  1.00 33.88    -0.048 C 
HETATM    7  C7  LUT X1620     287.911 150.724 221.502  1.00 33.88     0.009 C 
HETATM    8  C8  LUT X1620     287.519 149.522 221.945  1.00 33.88     0.007 C 
HETATM    9  C9  LUT X1620     287.874 148.987 223.285  1.00 33.88    -0.062 C 
HETATM   10  C10 LUT X1620     287.395 147.756 223.585  1.00 33.88     0.007 C 
HETATM   11  C11 LUT X1620     287.671 147.059 224.836  1.00 33.88     0.001 C 
HETATM   12  C12 LUT X1620     287.213 145.833 225.037  1.00 33.88     0.007 C 
HETATM   13  C13 LUT X1620     287.549 145.092 226.266  1.00 33.88    -0.062 C 
HETATM   14  C14 LUT X1620     287.166 143.805 226.294  1.00 33.88     0.007 C 
HETATM   15  C15 LUT X1620     287.452 142.865 227.378  1.00 33.88     0.001 C 
HETATM   16  C16 LUT X1620     289.394 150.170 219.088  1.00 33.88     0.020 C 
HETATM   17  C17 LUT X1620     287.432 148.654 218.933  1.00 33.88     0.020 C 
HETATM   18  C18 LUT X1620     285.237 151.868 221.217  1.00 33.88     0.044 C 
HETATM   19  C19 LUT X1620     288.740 149.790 224.232  1.00 33.88     0.048 C 
HETATM   20  C20 LUT X1620     288.356 145.761 227.347  1.00 33.88     0.048 C 
HETATM   21  O3  LUT X1620     286.437 152.447 216.434  1.00 33.88    -0.395 OA
ATOM     22  H3  LUT X1620     286.051 153.313 216.487  1.00  0.00     0.210 HD
HETATM   23  C21 LUT X1620     289.327 131.919 233.350  1.00 33.88    -0.035 C 
HETATM   24  C22 LUT X1620     290.170 131.407 234.504  1.00 33.88     0.045 C 
HETATM   25  C23 LUT X1620     289.334 130.697 235.557  1.00 33.88     0.142 C 
HETATM   26  C24 LUT X1620     287.949 131.292 235.705  1.00 33.88     0.007 C 
HETATM   27  C25 LUT X1620     287.467 132.308 234.961  1.00 33.88    -0.077 C 
HETATM   28  C26 LUT X1620     288.280 132.920 233.848  1.00 33.88     0.044 C 
HETATM   29  C27 LUT X1620     287.523 133.380 232.611  1.00 33.88    -0.016 C 
HETATM   30  C28 LUT X1620     287.641 134.650 232.220  1.00 33.88     0.003 C 
HETATM   31  C29 LUT X1620     287.026 135.195 230.988  1.00 33.88    -0.062 C 
HETATM   32  C30 LUT X1620     287.345 136.477 230.706  1.00 33.88     0.007 C 
HETATM   33  C31 LUT X1620     286.899 137.230 229.531  1.00 33.88     0.001 C 
HETATM   34  C32 LUT X1620     287.306 138.497 229.401  1.00 33.88     0.007 C 
HETATM   35  C33 LUT X1620     286.919 139.344 228.250  1.00 33.88    -0.062 C 
HETATM   36  C34 LUT X1620     287.324 140.630 228.275  1.00 33.88     0.007 C 
HETATM   37  C35 LUT X1620     287.039 141.609 227.226  1.00 33.88     0.001 C 
HETATM   38  C36 LUT X1620     288.681 130.732 232.633  1.00 33.88     0.016 C 
HETATM   39  C37 LUT X1620     290.270 132.617 232.376  1.00 33.88     0.016 C 
HETATM   40  C38 LUT X1620     286.122 132.860 235.334  1.00 33.88     0.044 C 
HETATM   41  C39 LUT X1620     286.162 134.326 230.105  1.00 33.88     0.048 C 
HETATM   42  C40 LUT X1620     286.147 138.728 227.113  1.00 33.88     0.048 C 
HETATM   43  O23 LUT X1620     290.019 130.787 236.812  1.00 33.88    -0.392 OA
ATOM     44  H23 LUT X1620     289.497 130.343 237.470  1.00  0.00     0.210 HD
ENDROOT
TORSDOF 12
