REMARK  0 active torsions:
REMARK  status: ('A' for Active; 'I' for Inactive)
REMARK       I    between atoms: C3_3  and  O3_21 
REMARK       I    between atoms: C6_6  and  C7_7 
REMARK       I    between atoms: C8_8  and  C9_9 
REMARK       I    between atoms: C10_10  and  C11_11 
REMARK       I    between atoms: C12_12  and  C13_13 
REMARK       I    between atoms: C14_14  and  C15_15 
REMARK       I    between atoms: C23_25  and  O23_43 
REMARK       I    between atoms: C26_28  and  C27_29 
REMARK       I    between atoms: C28_30  and  C29_31 
REMARK       I    between atoms: C30_32  and  C31_33 
REMARK       I    between atoms: C32_34  and  C33_35 
REMARK       I    between atoms: C34_36  and  C35_37 
ROOT
HETATM    1  C1  LUT 7 619     167.811 244.344 228.839  1.00 33.87    -0.018 C 
HETATM    2  C2  LUT 7 619     168.122 243.786 227.456  1.00 33.87     0.045 C 
HETATM    3  C3  LUT 7 619     169.607 243.618 227.176  1.00 33.87     0.123 C 
HETATM    4  C4  LUT 7 619     170.395 244.714 227.869  1.00 33.87     0.066 C 
HETATM    5  C5  LUT 7 619     170.199 244.574 229.352  1.00 33.87    -0.074 C 
HETATM    6  C6  LUT 7 619     168.977 244.242 229.785  1.00 33.87    -0.048 C 
HETATM    7  C7  LUT 7 619     168.662 244.116 231.205  1.00 33.87     0.009 C 
HETATM    8  C8  LUT 7 619     168.810 245.323 231.762  1.00 33.87     0.007 C 
HETATM    9  C9  LUT 7 619     168.400 245.605 233.155  1.00 33.87    -0.062 C 
HETATM   10  C10 LUT 7 619     168.297 246.899 233.514  1.00 33.87     0.007 C 
HETATM   11  C11 LUT 7 619     167.809 247.358 234.816  1.00 33.87     0.001 C 
HETATM   12  C12 LUT 7 619     167.613 248.657 235.019  1.00 33.87     0.007 C 
HETATM   13  C13 LUT 7 619     167.050 249.182 236.278  1.00 33.87    -0.062 C 
HETATM   14  C14 LUT 7 619     166.724 250.484 236.285  1.00 33.87     0.007 C 
HETATM   15  C15 LUT 7 619     166.117 251.199 237.404  1.00 33.87     0.001 C 
HETATM   16  C16 LUT 7 619     166.632 243.596 229.446  1.00 33.87     0.020 C 
HETATM   17  C17 LUT 7 619     167.477 245.827 228.732  1.00 33.87     0.020 C 
HETATM   18  C18 LUT 7 619     171.414 244.727 230.226  1.00 33.87     0.044 C 
HETATM   19  C19 LUT 7 619     168.071 244.468 234.084  1.00 33.87     0.048 C 
HETATM   20  C20 LUT 7 619     166.837 248.267 237.449  1.00 33.87     0.048 C 
HETATM   21  O3  LUT 7 619     169.833 243.710 225.768  1.00 33.87    -0.395 OA
ATOM     22  H3  LUT 7 619     170.761 243.605 225.593  1.00  0.00     0.210 HD
HETATM   23  C21 LUT 7 619     160.509 260.202 244.071  1.00 33.87    -0.035 C 
HETATM   24  C22 LUT 7 619     159.898 260.611 245.386  1.00 33.87     0.045 C 
HETATM   25  C23 LUT 7 619     160.613 261.806 245.973  1.00 33.87     0.142 C 
HETATM   26  C24 LUT 7 619     162.109 261.628 245.925  1.00 33.87     0.007 C 
HETATM   27  C25 LUT 7 619     162.717 260.714 245.161  1.00 33.87    -0.077 C 
HETATM   28  C26 LUT 7 619     161.956 259.778 244.274  1.00 33.87     0.044 C 
HETATM   29  C27 LUT 7 619     162.570 259.668 242.903  1.00 33.87    -0.016 C 
HETATM   30  C28 LUT 7 619     162.865 258.461 242.453  1.00 33.87     0.003 C 
HETATM   31  C29 LUT 7 619     163.427 258.243 241.117  1.00 33.87    -0.062 C 
HETATM   32  C30 LUT 7 619     163.624 256.963 240.781  1.00 33.87     0.007 C 
HETATM   33  C31 LUT 7 619     164.173 256.503 239.515  1.00 33.87     0.001 C 
HETATM   34  C32 LUT 7 619     164.366 255.200 239.404  1.00 33.87     0.007 C 
HETATM   35  C33 LUT 7 619     164.954 254.572 238.215  1.00 33.87    -0.062 C 
HETATM   36  C34 LUT 7 619     165.230 253.259 238.303  1.00 33.87     0.007 C 
HETATM   37  C35 LUT 7 619     165.839 252.482 237.230  1.00 33.87     0.001 C 
HETATM   38  C36 LUT 7 619     160.392 261.352 243.083  1.00 33.87     0.016 C 
HETATM   39  C37 LUT 7 619     159.717 259.022 243.537  1.00 33.87     0.016 C 
HETATM   40  C38 LUT 7 619     164.206 260.603 245.226  1.00 33.87     0.044 C 
HETATM   41  C39 LUT 7 619     163.694 259.408 240.215  1.00 33.87     0.048 C 
HETATM   42  C40 LUT 7 619     165.235 255.427 237.016  1.00 33.87     0.048 C 
HETATM   43  O23 LUT 7 619     160.202 261.895 247.333  1.00 33.87    -0.392 OA
ATOM     44  H23 LUT 7 619     160.651 262.646 247.702  1.00  0.00     0.210 HD
ENDROOT
TORSDOF 12
