REMARK  0 active torsions:
REMARK  status: ('A' for Active; 'I' for Inactive)
REMARK       I    between atoms: C3_3  and  O3_21 
REMARK       I    between atoms: C6_6  and  C7_7 
REMARK       I    between atoms: C8_8  and  C9_9 
REMARK       I    between atoms: C10_10  and  C11_11 
REMARK       I    between atoms: C12_12  and  C13_13 
REMARK       I    between atoms: C14_14  and  C15_15 
REMARK       I    between atoms: C23_25  and  O23_43 
REMARK       I    between atoms: C26_28  and  C27_29 
REMARK       I    between atoms: C28_30  and  C29_31 
REMARK       I    between atoms: C30_32  and  C31_33 
REMARK       I    between atoms: C32_34  and  C33_35 
REMARK       I    between atoms: C34_36  and  C35_37 
ROOT
HETATM    1  C1  LUT Z1621     275.153 175.109 223.981  1.00 27.99    -0.018 C 
HETATM    2  C2  LUT Z1621     275.226 175.787 222.606  1.00 27.99     0.045 C 
HETATM    3  C3  LUT Z1621     274.893 177.273 222.593  1.00 27.99     0.123 C 
HETATM    4  C4  LUT Z1621     273.705 177.510 223.506  1.00 27.99     0.066 C 
HETATM    5  C5  LUT Z1621     274.198 177.208 224.891  1.00 27.99    -0.074 C 
HETATM    6  C6  LUT Z1621     274.753 176.015 225.137  1.00 27.99    -0.048 C 
HETATM    7  C7  LUT Z1621     274.792 175.431 226.497  1.00 27.99     0.009 C 
HETATM    8  C8  LUT Z1621     273.734 175.631 227.294  1.00 27.99     0.007 C 
HETATM    9  C9  LUT Z1621     273.630 174.858 228.555  1.00 27.99    -0.062 C 
HETATM   10  C10 LUT Z1621     272.389 174.629 229.036  1.00 27.99     0.007 C 
HETATM   11  C11 LUT Z1621     272.118 173.748 230.175  1.00 27.99     0.001 C 
HETATM   12  C12 LUT Z1621     270.867 173.371 230.442  1.00 27.99     0.007 C 
HETATM   13  C13 LUT Z1621     270.567 172.410 231.531  1.00 27.99    -0.062 C 
HETATM   14  C14 LUT Z1621     269.297 171.964 231.636  1.00 27.99     0.007 C 
HETATM   15  C15 LUT Z1621     268.841 170.997 232.639  1.00 27.99     0.001 C 
HETATM   16  C16 LUT Z1621     276.484 174.407 224.243  1.00 27.99     0.020 C 
HETATM   17  C17 LUT Z1621     274.022 174.080 223.929  1.00 27.99     0.020 C 
HETATM   18  C18 LUT Z1621     274.167 178.318 225.905  1.00 27.99     0.044 C 
HETATM   19  C19 LUT Z1621     274.878 174.283 229.182  1.00 27.99     0.048 C 
HETATM   20  C20 LUT Z1621     271.688 171.962 232.433  1.00 27.99     0.048 C 
HETATM   21  O3  LUT Z1621     274.589 177.702 221.259  1.00 27.99    -0.395 OA
ATOM     22  H3  LUT Z1621     275.333 177.554 220.687  1.00  0.00     0.210 HD
HETATM   23  C21 LUT Z1621     260.914 163.822 239.838  1.00 27.99    -0.035 C 
HETATM   24  C22 LUT Z1621     260.658 163.061 241.126  1.00 27.99     0.045 C 
HETATM   25  C23 LUT Z1621     259.900 163.878 242.158  1.00 27.99     0.142 C 
HETATM   26  C24 LUT Z1621     260.372 165.315 242.227  1.00 27.99     0.007 C 
HETATM   27  C25 LUT Z1621     261.168 165.880 241.304  1.00 27.99    -0.077 C 
HETATM   28  C26 LUT Z1621     261.680 165.117 240.112  1.00 27.99     0.044 C 
HETATM   29  C27 LUT Z1621     261.639 165.964 238.860  1.00 27.99    -0.016 C 
HETATM   30  C28 LUT Z1621     262.779 166.204 238.214  1.00 27.99     0.003 C 
HETATM   31  C29 LUT Z1621     262.819 167.022 236.986  1.00 27.99    -0.062 C 
HETATM   32  C30 LUT Z1621     264.036 167.241 236.449  1.00 27.99     0.007 C 
HETATM   33  C31 LUT Z1621     264.270 168.072 235.269  1.00 27.99     0.001 C 
HETATM   34  C32 LUT Z1621     265.523 168.362 234.922  1.00 27.99     0.007 C 
HETATM   35  C33 LUT Z1621     265.820 169.274 233.798  1.00 27.99    -0.062 C 
HETATM   36  C34 LUT Z1621     267.103 169.671 233.659  1.00 27.99     0.007 C 
HETATM   37  C35 LUT Z1621     267.566 170.621 232.645  1.00 27.99     0.001 C 
HETATM   38  C36 LUT Z1621     259.580 164.063 239.135  1.00 27.99     0.016 C 
HETATM   39  C37 LUT Z1621     261.796 162.952 238.950  1.00 27.99     0.016 C 
HETATM   40  C38 LUT Z1621     261.579 167.315 241.492  1.00 27.99     0.044 C 
HETATM   41  C39 LUT Z1621     261.525 167.538 236.414  1.00 27.99     0.048 C 
HETATM   42  C40 LUT Z1621     264.692 169.752 232.923  1.00 27.99     0.048 C 
HETATM   43  O23 LUT Z1621     260.144 163.253 243.418  1.00 27.99    -0.392 OA
ATOM     44  H23 LUT Z1621     259.670 163.764 244.063  1.00  0.00     0.210 HD
ENDROOT
TORSDOF 12
