REMARK  0 active torsions:
REMARK  status: ('A' for Active; 'I' for Inactive)
REMARK       I    between atoms: C3_3  and  O3_21 
REMARK       I    between atoms: C6_6  and  C7_7 
REMARK       I    between atoms: C8_8  and  C9_9 
REMARK       I    between atoms: C10_10  and  C11_11 
REMARK       I    between atoms: C12_12  and  C13_13 
REMARK       I    between atoms: C14_14  and  C15_15 
REMARK       I    between atoms: C23_25  and  O23_43 
REMARK       I    between atoms: C26_28  and  C27_29 
REMARK       I    between atoms: C28_30  and  C29_31 
REMARK       I    between atoms: C30_32  and  C31_33 
REMARK       I    between atoms: C32_34  and  C33_35 
REMARK       I    between atoms: C34_36  and  C35_37 
ROOT
HETATM    1  C1  LUT 3 618     182.161 196.228 228.894  1.00 32.96    -0.018 C 
HETATM    2  C2  LUT 3 618     182.869 196.082 227.548  1.00 32.96     0.045 C 
HETATM    3  C3  LUT 3 618     183.976 197.091 227.269  1.00 32.96     0.123 C 
HETATM    4  C4  LUT 3 618     183.743 198.363 228.057  1.00 32.96     0.066 C 
HETATM    5  C5  LUT 3 618     183.743 198.002 229.515  1.00 32.96    -0.074 C 
HETATM    6  C6  LUT 3 618     182.946 197.007 229.917  1.00 32.96    -0.048 C 
HETATM    7  C7  LUT 3 618     182.604 196.808 231.332  1.00 32.96     0.009 C 
HETATM    8  C8  LUT 3 618     182.214 197.934 231.931  1.00 32.96     0.007 C 
HETATM    9  C9  LUT 3 618     181.629 197.917 233.281  1.00 32.96    -0.062 C 
HETATM   10  C10 LUT 3 618     180.910 198.995 233.630  1.00 32.96     0.007 C 
HETATM   11  C11 LUT 3 618     180.157 199.093 234.875  1.00 32.96     0.001 C 
HETATM   12  C12 LUT 3 618     179.306 200.099 235.054  1.00 32.96     0.007 C 
HETATM   13  C13 LUT 3 618     178.466 200.176 236.265  1.00 32.96    -0.062 C 
HETATM   14  C14 LUT 3 618     177.486 201.094 236.288  1.00 32.96     0.007 C 
HETATM   15  C15 LUT 3 618     176.554 201.282 237.398  1.00 32.96     0.001 C 
HETATM   16  C16 LUT 3 618     181.837 194.854 229.465  1.00 32.96     0.020 C 
HETATM   17  C17 LUT 3 618     180.870 197.013 228.692  1.00 32.96     0.020 C 
HETATM   18  C18 LUT 3 618     184.726 198.710 230.412  1.00 32.96     0.044 C 
HETATM   19  C19 LUT 3 618     181.807 196.710 234.158  1.00 32.96     0.048 C 
HETATM   20  C20 LUT 3 618     178.721 199.210 237.380  1.00 32.96     0.048 C 
HETATM   21  O3  LUT 3 618     183.986 197.422 225.877  1.00 32.96    -0.395 OA
ATOM     22  H3  LUT 3 618     184.132 196.624 225.383  1.00  0.00     0.210 HD
HETATM   23  C21 LUT 3 618     166.975 205.607 244.377  1.00 32.96    -0.035 C 
HETATM   24  C22 LUT 3 618     166.356 205.444 245.745  1.00 32.96     0.045 C 
HETATM   25  C23 LUT 3 618     166.361 206.745 246.520  1.00 32.96     0.142 C 
HETATM   26  C24 LUT 3 618     167.694 207.440 246.411  1.00 32.96     0.007 C 
HETATM   27  C25 LUT 3 618     168.633 207.089 245.523  1.00 32.96    -0.077 C 
HETATM   28  C26 LUT 3 618     168.438 205.973 244.540  1.00 32.96     0.044 C 
HETATM   29  C27 LUT 3 618     169.016 206.305 243.187  1.00 32.96    -0.016 C 
HETATM   30  C28 LUT 3 618     169.932 205.481 242.700  1.00 32.96     0.003 C 
HETATM   31  C29 LUT 3 618     170.556 205.672 241.387  1.00 32.96    -0.062 C 
HETATM   32  C30 LUT 3 618     171.413 204.709 241.023  1.00 32.96     0.007 C 
HETATM   33  C31 LUT 3 618     172.156 204.664 239.774  1.00 32.96     0.001 C 
HETATM   34  C32 LUT 3 618     172.989 203.643 239.608  1.00 32.96     0.007 C 
HETATM   35  C33 LUT 3 618     173.826 203.497 238.407  1.00 32.96    -0.062 C 
HETATM   36  C34 LUT 3 618     174.715 202.489 238.395  1.00 32.96     0.007 C 
HETATM   37  C35 LUT 3 618     175.644 202.240 237.300  1.00 32.96     0.001 C 
HETATM   38  C36 LUT 3 618     166.216 206.652 243.574  1.00 32.96     0.016 C 
HETATM   39  C37 LUT 3 618     166.882 204.272 243.661  1.00 32.96     0.016 C 
HETATM   40  C38 LUT 3 618     169.937 207.816 245.557  1.00 32.96     0.044 C 
HETATM   41  C39 LUT 3 618     170.190 206.860 240.550  1.00 32.96     0.048 C 
HETATM   42  C40 LUT 3 618     173.644 204.481 237.295  1.00 32.96     0.048 C 
HETATM   43  O23 LUT 3 618     166.095 206.448 247.891  1.00 32.96    -0.392 OA
ATOM     44  H23 LUT 3 618     166.098 207.264 248.377  1.00  0.00     0.210 HD
ENDROOT
TORSDOF 12
