REMARK  0 active torsions:
REMARK  status: ('A' for Active; 'I' for Inactive)
REMARK       I    between atoms: C3_3  and  O3_21 
REMARK       I    between atoms: C6_6  and  C7_7 
REMARK       I    between atoms: C8_8  and  C9_9 
REMARK       I    between atoms: C10_10  and  C11_11 
REMARK       I    between atoms: C12_12  and  C13_13 
REMARK       I    between atoms: C14_14  and  C15_15 
REMARK       I    between atoms: C23_25  and  O23_43 
REMARK       I    between atoms: C26_28  and  C27_29 
REMARK       I    between atoms: C28_30  and  C29_31 
REMARK       I    between atoms: C30_32  and  C31_33 
REMARK       I    between atoms: C32_34  and  C33_35 
REMARK       I    between atoms: C34_36  and  C35_37 
ROOT
HETATM    1  C1  LUT V1620     307.973 200.757 224.297  1.00 15.23    -0.018 C 
HETATM    2  C2  LUT V1620     308.249 200.569 222.818  1.00 15.23     0.045 C 
HETATM    3  C3  LUT V1620     309.275 199.513 222.498  1.00 15.23     0.123 C 
HETATM    4  C4  LUT V1620     310.451 199.731 223.403  1.00 15.23     0.066 C 
HETATM    5  C5  LUT V1620     310.049 199.555 224.834  1.00 15.23    -0.074 C 
HETATM    6  C6  LUT V1620     308.832 199.939 225.227  1.00 15.23    -0.048 C 
HETATM    7  C7  LUT V1620     308.411 199.858 226.629  1.00 15.23     0.009 C 
HETATM    8  C8  LUT V1620     309.263 200.489 227.442  1.00 15.23     0.007 C 
HETATM    9  C9  LUT V1620     308.948 200.719 228.865  1.00 15.23    -0.062 C 
HETATM   10  C10 LUT V1620     309.688 201.632 229.509  1.00 15.23     0.007 C 
HETATM   11  C11 LUT V1620     309.419 202.070 230.872  1.00 15.23     0.001 C 
HETATM   12  C12 LUT V1620     310.032 203.147 231.338  1.00 15.23     0.007 C 
HETATM   13  C13 LUT V1620     309.720 203.693 232.666  1.00 15.23    -0.062 C 
HETATM   14  C14 LUT V1620     310.219 204.896 232.966  1.00 15.23     0.007 C 
HETATM   15  C15 LUT V1620     309.964 205.602 234.217  1.00 15.23     0.001 C 
HETATM   16  C16 LUT V1620     306.499 200.489 224.540  1.00 15.23     0.020 C 
HETATM   17  C17 LUT V1620     308.326 202.197 224.616  1.00 15.23     0.020 C 
HETATM   18  C18 LUT V1620     311.035 198.838 225.708  1.00 15.23     0.044 C 
HETATM   19  C19 LUT V1620     307.812 199.981 229.513  1.00 15.23     0.048 C 
HETATM   20  C20 LUT V1620     308.838 202.915 233.584  1.00 15.23     0.048 C 
HETATM   21  O3  LUT V1620     309.737 199.697 221.165  1.00 15.23    -0.395 OA
ATOM     22  H3  LUT V1620     308.992 199.559 220.592  1.00  0.00     0.210 HD
HETATM   23  C21 LUT V1620     309.045 214.506 242.977  1.00 15.23    -0.035 C 
HETATM   24  C22 LUT V1620     308.604 214.819 244.384  1.00 15.23     0.045 C 
HETATM   25  C23 LUT V1620     309.741 215.373 245.207  1.00 15.23     0.142 C 
HETATM   26  C24 LUT V1620     311.012 214.601 244.991  1.00 15.23     0.007 C 
HETATM   27  C25 LUT V1620     311.192 213.739 243.994  1.00 15.23    -0.077 C 
HETATM   28  C26 LUT V1620     310.136 213.442 242.982  1.00 15.23     0.044 C 
HETATM   29  C27 LUT V1620     310.759 213.312 241.617  1.00 15.23    -0.016 C 
HETATM   30  C28 LUT V1620     310.488 212.221 240.919  1.00 15.23     0.003 C 
HETATM   31  C29 LUT V1620     311.013 211.993 239.569  1.00 15.23    -0.062 C 
HETATM   32  C30 LUT V1620     310.543 210.904 238.957  1.00 15.23     0.007 C 
HETATM   33  C31 LUT V1620     310.904 210.463 237.622  1.00 15.23     0.001 C 
HETATM   34  C32 LUT V1620     310.388 209.314 237.203  1.00 15.23     0.007 C 
HETATM   35  C33 LUT V1620     310.713 208.745 235.893  1.00 15.23    -0.062 C 
HETATM   36  C34 LUT V1620     310.220 207.530 235.617  1.00 15.23     0.007 C 
HETATM   37  C35 LUT V1620     310.470 206.812 234.376  1.00 15.23     0.001 C 
HETATM   38  C36 LUT V1620     309.509 215.774 242.286  1.00 15.23     0.016 C 
HETATM   39  C37 LUT V1620     307.826 214.002 242.239  1.00 15.23     0.016 C 
HETATM   40  C38 LUT V1620     312.502 213.028 243.926  1.00 15.23     0.044 C 
HETATM   41  C39 LUT V1620     311.963 212.974 238.958  1.00 15.23     0.048 C 
HETATM   42  C40 LUT V1620     311.582 209.537 234.973  1.00 15.23     0.048 C 
HETATM   43  O23 LUT V1620     309.361 215.250 246.570  1.00 15.23    -0.392 OA
ATOM     44  H23 LUT V1620     308.557 215.738 246.707  1.00  0.00     0.210 HD
ENDROOT
TORSDOF 12
