MODEL 1
REMARK VINA RESULT:   -11.240      0.000      0.000
REMARK INTER + INTRA:         -13.847
REMARK INTER:                 -11.240
REMARK INTRA:                  -2.607
REMARK UNBOUND:                -2.607
REMARK  0 active torsions:
REMARK  status: ('A' for Active; 'I' for Inactive)
REMARK       I    between atoms: C3_3  and  O3_21 
REMARK       I    between atoms: C6_6  and  C7_7 
REMARK       I    between atoms: C8_8  and  C9_9 
REMARK       I    between atoms: C10_10  and  C11_11 
REMARK       I    between atoms: C12_12  and  C13_13 
REMARK       I    between atoms: C14_14  and  C15_15 
REMARK       I    between atoms: C23_25  and  O23_43 
REMARK       I    between atoms: C26_28  and  C27_29 
REMARK       I    between atoms: C28_30  and  C29_31 
REMARK       I    between atoms: C30_32  and  C31_33 
REMARK       I    between atoms: C32_34  and  C33_35 
REMARK       I    between atoms: C34_36  and  C35_37 
ROOT
HETATM    1  C1  8UH W1620     -33.668 129.229   7.096  1.00 24.23    -0.018 C 
HETATM    2  C2  8UH W1620     -32.865 129.921   6.016  1.00 24.23     0.045 C 
HETATM    3  C3  8UH W1620     -32.130 131.146   6.490  1.00 24.23     0.123 C 
HETATM    4  C4  8UH W1620     -31.236 130.683   7.604  1.00 24.23     0.066 C 
HETATM    5  C5  8UH W1620     -32.065 130.157   8.729  1.00 24.23    -0.074 C 
HETATM    6  C6  8UH W1620     -33.285 129.694   8.486  1.00 24.23    -0.048 C 
HETATM    7  C7  8UH W1620     -34.369 129.976   9.418  1.00 24.23     0.009 C 
HETATM    8  C8  8UH W1620     -34.841 131.193   9.123  1.00 24.23     0.007 C 
HETATM    9  C9  8UH W1620     -35.952 131.835   9.848  1.00 24.23    -0.062 C 
HETATM   10  C10 8UH W1620     -36.360 133.041   9.413  1.00 24.23     0.007 C 
HETATM   11  C11 8UH W1620     -37.469 133.769  10.011  1.00 24.23     0.001 C 
HETATM   12  C12 8UH W1620     -37.859 134.931   9.498  1.00 24.23     0.007 C 
HETATM   13  C13 8UH W1620     -39.021 135.622  10.068  1.00 24.23    -0.062 C 
HETATM   14  C14 8UH W1620     -39.470 136.696   9.411  1.00 24.23     0.007 C 
HETATM   15  C15 8UH W1620     -40.650 137.471   9.767  1.00 24.23     0.001 C 
HETATM   16  C16 8UH W1620     -33.461 127.746   6.865  1.00 24.23     0.020 C 
HETATM   17  C17 8UH W1620     -35.135 129.558   6.889  1.00 24.23     0.020 C 
HETATM   18  C18 8UH W1620     -31.722 131.033   9.889  1.00 24.23     0.044 C 
HETATM   19  C19 8UH W1620     -36.586 131.137  11.012  1.00 24.23     0.048 C 
HETATM   20  C20 8UH W1620     -39.679 135.046  11.278  1.00 24.23     0.048 C 
HETATM   21  O3  8UH W1620     -31.308 131.629   5.435  1.00 24.23    -0.395 OA
ATOM     22  H3  8UH W1620     -31.874 131.922   4.731  1.00  0.00     0.210 HD
HETATM   23  C21 8UH W1620     -50.569 144.904   8.934  1.00 79.00    -0.018 C 
HETATM   24  C22 8UH W1620     -51.586 144.792  10.070  1.00 79.55     0.045 C 
HETATM   25  C23 8UH W1620     -51.231 145.477  11.384  1.00 80.08     0.123 C 
HETATM   26  C24 8UH W1620     -50.479 146.778  11.149  1.00 79.64     0.066 C 
HETATM   27  C25 8UH W1620     -49.263 146.527  10.297  1.00 79.19    -0.074 C 
HETATM   28  C26 8UH W1620     -49.294 145.617   9.322  1.00 79.31    -0.048 C 
HETATM   29  C27 8UH W1620     -48.053 145.260   8.601  1.00 78.64     0.009 C 
HETATM   30  C28 8UH W1620     -47.305 144.248   9.037  1.00 77.62     0.007 C 
HETATM   31  C29 8UH W1620     -46.057 143.836   8.354  1.00 24.23    -0.062 C 
HETATM   32  C30 8UH W1620     -45.466 142.732   8.844  1.00 24.23     0.007 C 
HETATM   33  C31 8UH W1620     -44.249 142.110   8.324  1.00 24.23     0.001 C 
HETATM   34  C32 8UH W1620     -43.789 141.017   8.931  1.00 24.23     0.007 C 
HETATM   35  C33 8UH W1620     -42.572 140.312   8.491  1.00 24.23    -0.062 C 
HETATM   36  C34 8UH W1620     -42.178 139.258   9.224  1.00 24.23     0.007 C 
HETATM   37  C35 8UH W1620     -40.996 138.452   8.946  1.00 24.23     0.001 C 
HETATM   38  C36 8UH W1620     -51.206 145.655   7.769  1.00 78.31     0.020 C 
HETATM   39  C37 8UH W1620     -50.194 143.494   8.492  1.00 77.27     0.020 C 
HETATM   40  C38 8UH W1620     -47.961 147.116  10.755  1.00 78.52     0.044 C 
HETATM   41  C39 8UH W1620     -45.559 144.599   7.160  1.00 24.23     0.048 C 
HETATM   42  C40 8UH W1620     -41.857 140.782   7.259  1.00 24.23     0.048 C 
HETATM   43  O23 8UH W1620     -52.449 145.771  12.081  1.00 80.30    -0.395 OA
ATOM     44  H23 8UH W1620     -52.918 144.958  12.228  1.00  0.00     0.210 HD
ENDROOT
TORSDOF 12
BEGIN_RES PHE A  61
REMARK  2 active torsions:
REMARK  status: ('A' for Active; 'I' for Inactive)
REMARK    1  A    between atoms: CA   and  CB  
REMARK    2  A    between atoms: CB   and  CG  
ROOT
ATOM      1  CA  PHE A  61     -36.237 128.293  12.768  1.00 39.40     0.164 C 
ENDROOT
BRANCH   1   2
ATOM      2  CB  PHE A  61     -36.813 128.951  11.509  1.00 39.41     0.058 C 
BRANCH   2   3
ATOM      3  CG  PHE A  61     -36.765 128.084  10.274  1.00 39.01    -0.020 A 
ATOM      4  CD2 PHE A  61     -37.786 128.121   9.338  1.00 40.32    -0.004 A 
ATOM      5  CE2 PHE A  61     -37.742 127.320   8.204  1.00 40.20    -0.000 A 
ATOM      6  CZ  PHE A  61     -36.675 126.477   7.991  1.00 40.34    -0.000 A 
ATOM      7  CE1 PHE A  61     -35.651 126.430   8.910  1.00 41.51    -0.000 A 
ATOM      8  CD1 PHE A  61     -35.698 127.225  10.048  1.00 39.94    -0.004 A 
ENDBRANCH   2   3
ENDBRANCH   1   2
END_RES PHE A  61
BEGIN_RES VAL A 134
REMARK  1 active torsions:
REMARK  status: ('A' for Active; 'I' for Inactive)
REMARK    3  A    between atoms: CA   and  CB  
ROOT
ATOM      9  CA  VAL A 134     -29.766 132.051   9.815  1.00 40.75     0.159 C 
ENDROOT
BRANCH   9  10
ATOM     10  CB  VAL A 134     -30.864 132.765   9.009  1.00 40.76     0.029 C 
ATOM     11  CG1 VAL A 134     -31.922 133.344   9.937  1.00 41.76     0.002 C 
ATOM     12  CG2 VAL A 134     -30.286 133.846   8.108  1.00 40.56     0.002 C 
ENDBRANCH   9  10
END_RES VAL A 134
BEGIN_RES TYR A 338
REMARK  3 active torsions:
REMARK  status: ('A' for Active; 'I' for Inactive)
REMARK    4  A    between atoms: CA   and  CB  
REMARK    5  A    between atoms: CB   and  CG  
REMARK    6  A    between atoms: CZ   and  OH  
ROOT
ATOM     13  CA  TYR A 338     -41.631 124.950   6.058  1.00 38.23     0.164 C 
ENDROOT
BRANCH  13  14
ATOM     14  CB  TYR A 338     -41.621 126.456   6.339  1.00 39.15     0.058 C 
BRANCH  14  15
ATOM     15  CG  TYR A 338     -40.402 127.206   5.853  1.00 39.03    -0.020 A 
ATOM     16  CD2 TYR A 338     -40.230 128.543   6.169  1.00 40.65    -0.002 A 
ATOM     17  CE2 TYR A 338     -39.132 129.266   5.727  1.00 40.91     0.024 A 
ATOM     18  CZ  TYR A 338     -38.173 128.648   4.947  1.00 42.33     0.089 A 
ATOM     19  CE1 TYR A 338     -38.320 127.311   4.622  1.00 40.63     0.024 A 
ATOM     20  CD1 TYR A 338     -39.432 126.610   5.063  1.00 39.27    -0.002 A 
BRANCH  18  21
ATOM     21  OH  TYR A 338     -37.084 129.350   4.510  1.00 43.36    -0.359 OA
ATOM     22  HH  TYR A 338     -36.395 129.595   5.116  1.00  0.00     0.217 HD
ENDBRANCH  18  21
ENDBRANCH  14  15
ENDBRANCH  13  14
END_RES TYR A 338
ENDMDL
MODEL 2
REMARK VINA RESULT:   -10.554      1.356     16.200
REMARK INTER + INTRA:         -13.162
REMARK INTER:                 -10.870
REMARK INTRA:                  -2.292
REMARK UNBOUND:                -2.607
REMARK  0 active torsions:
REMARK  status: ('A' for Active; 'I' for Inactive)
REMARK       I    between atoms: C3_3  and  O3_21 
REMARK       I    between atoms: C6_6  and  C7_7 
REMARK       I    between atoms: C8_8  and  C9_9 
REMARK       I    between atoms: C10_10  and  C11_11 
REMARK       I    between atoms: C12_12  and  C13_13 
REMARK       I    between atoms: C14_14  and  C15_15 
REMARK       I    between atoms: C23_25  and  O23_43 
REMARK       I    between atoms: C26_28  and  C27_29 
REMARK       I    between atoms: C28_30  and  C29_31 
REMARK       I    between atoms: C30_32  and  C31_33 
REMARK       I    between atoms: C32_34  and  C33_35 
REMARK       I    between atoms: C34_36  and  C35_37 
ROOT
HETATM    1  C1  8UH W1620     -49.618 144.524  10.095  1.00 24.23    -0.018 C 
HETATM    2  C2  8UH W1620     -49.612 144.516  11.608  1.00 24.23     0.045 C 
HETATM    3  C3  8UH W1620     -48.356 145.081  12.217  1.00 24.23     0.123 C 
HETATM    4  C4  8UH W1620     -48.239 146.482  11.691  1.00 24.23     0.066 C 
HETATM    5  C5  8UH W1620     -48.079 146.452  10.207  1.00 24.23    -0.074 C 
HETATM    6  C6  8UH W1620     -48.536 145.413   9.518  1.00 24.23    -0.048 C 
HETATM    7  C7  8UH W1620     -47.764 144.885   8.400  1.00 24.23     0.009 C 
HETATM    8  C8  8UH W1620     -46.841 144.061   8.908  1.00 24.23     0.007 C 
HETATM    9  C9  8UH W1620     -45.862 143.327   8.086  1.00 24.23    -0.062 C 
HETATM   10  C10 8UH W1620     -45.022 142.491   8.724  1.00 24.23     0.007 C 
HETATM   11  C11 8UH W1620     -44.033 141.677   8.032  1.00 24.23     0.001 C 
HETATM   12  C12 8UH W1620     -43.272 140.829   8.714  1.00 24.23     0.007 C 
HETATM   13  C13 8UH W1620     -42.327 139.964   7.998  1.00 24.23    -0.062 C 
HETATM   14  C14 8UH W1620     -41.710 139.018   8.712  1.00 24.23     0.007 C 
HETATM   15  C15 8UH W1620     -40.800 138.015   8.177  1.00 24.23     0.001 C 
HETATM   16  C16 8UH W1620     -51.024 144.932   9.701  1.00 24.23     0.020 C 
HETATM   17  C17 8UH W1620     -49.362 143.110   9.606  1.00 24.23     0.020 C 
HETATM   18  C18 8UH W1620     -46.756 147.099   9.958  1.00 24.23     0.044 C 
HETATM   19  C19 8UH W1620     -45.841 143.518   6.601  1.00 24.23     0.048 C 
HETATM   20  C20 8UH W1620     -42.177 140.131   6.522  1.00 24.23     0.048 C 
HETATM   21  O3  8UH W1620     -48.517 145.150  13.628  1.00 24.23    -0.395 OA
ATOM     22  H3  8UH W1620     -48.591 144.264  13.960  1.00  0.00     0.210 HD
HETATM   23  C21 8UH W1620     -34.294 127.520   6.823  1.00 79.00    -0.018 C 
HETATM   24  C22 8UH W1620     -33.762 127.239   5.417  1.00 79.55     0.045 C 
HETATM   25  C23 8UH W1620     -32.526 128.016   4.978  1.00 80.08     0.123 C 
HETATM   26  C24 8UH W1620     -31.564 128.234   6.137  1.00 79.64     0.066 C 
HETATM   27  C25 8UH W1620     -32.276 128.903   7.282  1.00 79.19    -0.074 C 
HETATM   28  C26 8UH W1620     -33.551 128.617   7.550  1.00 79.31    -0.048 C 
HETATM   29  C27 8UH W1620     -34.289 129.397   8.567  1.00 78.64     0.009 C 
HETATM   30  C28 8UH W1620     -34.979 130.474   8.199  1.00 77.62     0.007 C 
HETATM   31  C29 8UH W1620     -35.746 131.291   9.168  1.00 24.23    -0.062 C 
HETATM   32  C30 8UH W1620     -36.481 132.284   8.636  1.00 24.23     0.007 C 
HETATM   33  C31 8UH W1620     -37.343 133.202   9.377  1.00 24.23     0.001 C 
HETATM   34  C32 8UH W1620     -38.003 134.139   8.696  1.00 24.23     0.007 C 
HETATM   35  C33 8UH W1620     -38.896 135.116   9.343  1.00 24.23    -0.062 C 
HETATM   36  C34 8UH W1620     -39.455 136.048   8.554  1.00 24.23     0.007 C 
HETATM   37  C35 8UH W1620     -40.352 137.098   9.021  1.00 24.23     0.001 C 
HETATM   38  C36 8UH W1620     -34.202 126.243   7.652  1.00 78.31     0.020 C 
HETATM   39  C37 8UH W1620     -35.751 127.949   6.702  1.00 77.27     0.020 C 
HETATM   40  C38 8UH W1620     -31.606 130.087   7.918  1.00 78.52     0.044 C 
HETATM   41  C39 8UH W1620     -35.719 130.954  10.632  1.00 24.23     0.048 C 
HETATM   42  C40 8UH W1620     -39.153 135.011  10.817  1.00 24.23     0.048 C 
HETATM   43  O23 8UH W1620     -31.857 127.259   3.962  1.00 80.30    -0.395 OA
ATOM     44  H23 8UH W1620     -32.457 127.124   3.239  1.00  0.00     0.210 HD
ENDROOT
TORSDOF 12
BEGIN_RES PHE A  61
REMARK  2 active torsions:
REMARK  status: ('A' for Active; 'I' for Inactive)
REMARK    1  A    between atoms: CA   and  CB  
REMARK    2  A    between atoms: CB   and  CG  
ROOT
ATOM      1  CA  PHE A  61     -36.237 128.293  12.768  1.00 39.40     0.164 C 
ENDROOT
BRANCH   1   2
ATOM      2  CB  PHE A  61     -36.813 128.951  11.509  1.00 39.41     0.058 C 
BRANCH   2   3
ATOM      3  CG  PHE A  61     -37.091 127.993  10.376  1.00 39.01    -0.020 A 
ATOM      4  CD2 PHE A  61     -36.380 126.810  10.253  1.00 40.32    -0.004 A 
ATOM      5  CE2 PHE A  61     -36.635 125.930   9.208  1.00 40.20    -0.000 A 
ATOM      6  CZ  PHE A  61     -37.605 126.222   8.277  1.00 40.34    -0.000 A 
ATOM      7  CE1 PHE A  61     -38.323 127.393   8.386  1.00 41.51    -0.000 A 
ATOM      8  CD1 PHE A  61     -38.064 128.275   9.427  1.00 39.94    -0.004 A 
ENDBRANCH   2   3
ENDBRANCH   1   2
END_RES PHE A  61
BEGIN_RES VAL A 134
REMARK  1 active torsions:
REMARK  status: ('A' for Active; 'I' for Inactive)
REMARK    3  A    between atoms: CA   and  CB  
ROOT
ATOM      9  CA  VAL A 134     -29.766 132.051   9.815  1.00 40.75     0.159 C 
ENDROOT
BRANCH   9  10
ATOM     10  CB  VAL A 134     -30.864 132.765   9.009  1.00 40.76     0.029 C 
ATOM     11  CG1 VAL A 134     -30.871 132.284   7.565  1.00 41.76     0.002 C 
ATOM     12  CG2 VAL A 134     -32.234 132.585   9.645  1.00 40.56     0.002 C 
ENDBRANCH   9  10
END_RES VAL A 134
BEGIN_RES TYR A 338
REMARK  3 active torsions:
REMARK  status: ('A' for Active; 'I' for Inactive)
REMARK    4  A    between atoms: CA   and  CB  
REMARK    5  A    between atoms: CB   and  CG  
REMARK    6  A    between atoms: CZ   and  OH  
ROOT
ATOM     13  CA  TYR A 338     -41.631 124.950   6.058  1.00 38.23     0.164 C 
ENDROOT
BRANCH  13  14
ATOM     14  CB  TYR A 338     -41.621 126.456   6.339  1.00 39.15     0.058 C 
BRANCH  14  15
ATOM     15  CG  TYR A 338     -40.416 127.211   5.827  1.00 39.03    -0.020 A 
ATOM     16  CD2 TYR A 338     -40.261 128.558   6.109  1.00 40.65    -0.002 A 
ATOM     17  CE2 TYR A 338     -39.177 129.285   5.643  1.00 40.91     0.024 A 
ATOM     18  CZ  TYR A 338     -38.213 128.662   4.871  1.00 42.33     0.089 A 
ATOM     19  CE1 TYR A 338     -38.343 127.315   4.580  1.00 40.63     0.024 A 
ATOM     20  CD1 TYR A 338     -39.442 126.609   5.045  1.00 39.27    -0.002 A 
BRANCH  18  21
ATOM     21  OH  TYR A 338     -37.138 129.368   4.410  1.00 43.36    -0.359 OA
ATOM     22  HH  TYR A 338     -36.923 129.366   3.484  1.00  0.00     0.217 HD
ENDBRANCH  18  21
ENDBRANCH  14  15
ENDBRANCH  13  14
END_RES TYR A 338
ENDMDL
