MODEL 1
REMARK VINA RESULT:   -11.908      0.000      0.000
REMARK INTER + INTRA:         -12.604
REMARK INTER:                 -11.908
REMARK INTRA:                  -0.697
REMARK UNBOUND:                -0.697
REMARK  0 active torsions:
REMARK  status: ('A' for Active; 'I' for Inactive)
REMARK       I    between atoms: C3_3  and  O3_21 
REMARK       I    between atoms: C6_6  and  C7_7 
REMARK       I    between atoms: C8_8  and  C9_9 
REMARK       I    between atoms: C10_10  and  C11_11 
REMARK       I    between atoms: C12_12  and  C13_13 
REMARK       I    between atoms: C14_14  and  C15_15 
REMARK       I    between atoms: C23_25  and  O23_43 
REMARK       I    between atoms: C26_28  and  C27_29 
REMARK       I    between atoms: C28_30  and  C29_31 
REMARK       I    between atoms: C30_32  and  C31_33 
REMARK       I    between atoms: C32_34  and  C33_35 
REMARK       I    between atoms: C34_36  and  C35_37 
ROOT
HETATM    1  C1  8UH 8 619     -50.422 145.064  10.272  1.00 35.06    -0.018 C 
HETATM    2  C2  8UH 8 619     -50.995 144.682  11.637  1.00 35.06     0.045 C 
HETATM    3  C3  8UH 8 619     -50.387 145.404  12.834  1.00 35.06     0.123 C 
HETATM    4  C4  8UH 8 619     -49.710 146.688  12.389  1.00 35.06     0.066 C 
HETATM    5  C5  8UH 8 619     -48.636 146.262  11.433  1.00 35.06    -0.074 C 
HETATM    6  C6  8UH 8 619     -49.006 145.581  10.347  1.00 35.06    -0.048 C 
HETATM    7  C7  8UH 8 619     -48.041 145.163   9.314  1.00 35.06     0.009 C 
HETATM    8  C8  8UH 8 619     -46.864 144.723   9.758  1.00 35.06     0.007 C 
HETATM    9  C9  8UH 8 619     -45.908 144.090   8.830  1.00 35.06    -0.062 C 
HETATM   10  C10 8UH 8 619     -44.986 143.279   9.368  1.00 35.06     0.007 C 
HETATM   11  C11 8UH 8 619     -44.047 142.483   8.589  1.00 35.06     0.001 C 
HETATM   12  C12 8UH 8 619     -43.291 141.599   9.225  1.00 35.06     0.007 C 
HETATM   13  C13 8UH 8 619     -42.379 140.701   8.508  1.00 35.06    -0.062 C 
HETATM   14  C14 8UH 8 619     -41.843 139.700   9.218  1.00 35.06     0.007 C 
HETATM   15  C15 8UH 8 619     -40.951 138.682   8.679  1.00 35.06     0.001 C 
HETATM   16  C16 8UH 8 619     -51.249 146.204   9.688  1.00 35.06     0.020 C 
HETATM   17  C17 8UH 8 619     -50.481 143.871   9.330  1.00 35.06     0.020 C 
HETATM   18  C18 8UH 8 619     -47.425 147.159  11.488  1.00 35.06     0.044 C 
HETATM   19  C19 8UH 8 619     -46.050 144.331   7.355  1.00 35.06     0.048 C 
HETATM   20  C20 8UH 8 619     -42.132 140.941   7.049  1.00 35.06     0.048 C 
HETATM   21  O3  8UH 8 619     -51.413 145.728  13.779  1.00 35.06    -0.395 OA
ATOM     22  H3  8UH 8 619     -51.034 146.178  14.525  1.00  0.00     0.210 HD
HETATM   23  C21 8UH 8 619     -34.157 128.418   6.970  1.00 48.79    -0.018 C 
HETATM   24  C22 8UH 8 619     -33.454 128.222   5.634  1.00 49.38     0.045 C 
HETATM   25  C23 8UH 8 619     -31.927 128.256   5.638  1.00 51.85     0.123 C 
HETATM   26  C24 8UH 8 619     -31.351 129.381   6.480  1.00 54.16     0.066 C 
HETATM   27  C25 8UH 8 619     -32.201 129.825   7.641  1.00 52.93    -0.074 C 
HETATM   28  C26 8UH 8 619     -33.498 129.512   7.794  1.00 53.44    -0.048 C 
HETATM   29  C27 8UH 8 619     -34.320 130.226   8.809  1.00 56.18     0.009 C 
HETATM   30  C28 8UH 8 619     -35.126 131.239   8.486  1.00 54.04     0.007 C 
HETATM   31  C29 8UH 8 619     -35.960 131.944   9.462  1.00 35.06    -0.062 C 
HETATM   32  C30 8UH 8 619     -36.712 132.938   8.972  1.00 35.06     0.007 C 
HETATM   33  C31 8UH 8 619     -37.605 133.781   9.752  1.00 35.06     0.001 C 
HETATM   34  C32 8UH 8 619     -38.227 134.753   9.098  1.00 35.06     0.007 C 
HETATM   35  C33 8UH 8 619     -39.130 135.703   9.761  1.00 35.06    -0.062 C 
HETATM   36  C34 8UH 8 619     -39.631 136.693   9.003  1.00 35.06     0.007 C 
HETATM   37  C35 8UH 8 619     -40.524 137.734   9.499  1.00 35.06     0.001 C 
HETATM   38  C36 8UH 8 619     -34.170 127.105   7.738  1.00 50.92     0.020 C 
HETATM   39  C37 8UH 8 619     -35.608 128.793   6.685  1.00 48.05     0.020 C 
HETATM   40  C38 8UH 8 619     -31.605 131.060   8.233  1.00 55.82     0.044 C 
HETATM   41  C39 8UH 8 619     -35.942 131.523  10.900  1.00 35.06     0.048 C 
HETATM   42  C40 8UH 8 619     -39.407 135.527  11.223  1.00 35.06     0.048 C 
HETATM   43  O23 8UH 8 619     -31.363 127.000   6.039  1.00 50.70    -0.395 OA
ATOM     44  H23 8UH 8 619     -30.414 127.021   6.042  1.00  0.00     0.210 HD
ENDROOT
TORSDOF 12
BEGIN_RES PHE A  61
REMARK  2 active torsions:
REMARK  status: ('A' for Active; 'I' for Inactive)
REMARK    1  A    between atoms: CA   and  CB  
REMARK    2  A    between atoms: CB   and  CG  
ROOT
ATOM      1  CA  PHE A  61     -36.237 128.293  12.768  1.00 39.40     0.164 C 
ENDROOT
BRANCH   1   2
ATOM      2  CB  PHE A  61     -36.813 128.951  11.509  1.00 39.41     0.058 C 
BRANCH   2   3
ATOM      3  CG  PHE A  61     -37.001 128.010  10.343  1.00 39.01    -0.020 A 
ATOM      4  CD2 PHE A  61     -36.215 126.876  10.210  1.00 40.32    -0.004 A 
ATOM      5  CE2 PHE A  61     -36.387 126.012   9.136  1.00 40.20    -0.000 A 
ATOM      6  CZ  PHE A  61     -37.348 126.271   8.185  1.00 40.34    -0.000 A 
ATOM      7  CE1 PHE A  61     -38.138 127.392   8.303  1.00 41.51    -0.000 A 
ATOM      8  CD1 PHE A  61     -37.962 128.259   9.374  1.00 39.94    -0.004 A 
ENDBRANCH   2   3
ENDBRANCH   1   2
END_RES PHE A  61
BEGIN_RES VAL A 134
REMARK  1 active torsions:
REMARK  status: ('A' for Active; 'I' for Inactive)
REMARK    3  A    between atoms: CA   and  CB  
ROOT
ATOM      9  CA  VAL A 134     -29.766 132.051   9.815  1.00 40.75     0.159 C 
ENDROOT
BRANCH   9  10
ATOM     10  CB  VAL A 134     -30.864 132.765   9.009  1.00 40.76     0.029 C 
ATOM     11  CG1 VAL A 134     -32.092 133.011   9.873  1.00 41.76     0.002 C 
ATOM     12  CG2 VAL A 134     -30.360 134.066   8.403  1.00 40.56     0.002 C 
ENDBRANCH   9  10
END_RES VAL A 134
BEGIN_RES TYR A 338
REMARK  3 active torsions:
REMARK  status: ('A' for Active; 'I' for Inactive)
REMARK    4  A    between atoms: CA   and  CB  
REMARK    5  A    between atoms: CB   and  CG  
REMARK    6  A    between atoms: CZ   and  OH  
ROOT
ATOM     13  CA  TYR A 338     -41.631 124.950   6.058  1.00 38.23     0.164 C 
ENDROOT
BRANCH  13  14
ATOM     14  CB  TYR A 338     -41.621 126.456   6.339  1.00 39.15     0.058 C 
BRANCH  14  15
ATOM     15  CG  TYR A 338     -40.419 127.212   5.822  1.00 39.03    -0.020 A 
ATOM     16  CD2 TYR A 338     -40.267 128.560   6.098  1.00 40.65    -0.002 A 
ATOM     17  CE2 TYR A 338     -39.185 129.288   5.626  1.00 40.91     0.024 A 
ATOM     18  CZ  TYR A 338     -38.222 128.665   4.855  1.00 42.33     0.089 A 
ATOM     19  CE1 TYR A 338     -38.350 127.317   4.570  1.00 40.63     0.024 A 
ATOM     20  CD1 TYR A 338     -39.446 126.610   5.039  1.00 39.27    -0.002 A 
BRANCH  18  21
ATOM     21  OH  TYR A 338     -37.149 129.372   4.389  1.00 43.36    -0.359 OA
ATOM     22  HH  TYR A 338     -36.285 128.978   4.372  1.00  0.00     0.217 HD
ENDBRANCH  18  21
ENDBRANCH  14  15
ENDBRANCH  13  14
END_RES TYR A 338
ENDMDL
MODEL 2
REMARK VINA RESULT:   -11.402      1.064     16.547
REMARK INTER + INTRA:         -12.099
REMARK INTER:                  -9.750
REMARK INTRA:                  -2.349
REMARK UNBOUND:                -0.697
REMARK  0 active torsions:
REMARK  status: ('A' for Active; 'I' for Inactive)
REMARK       I    between atoms: C3_3  and  O3_21 
REMARK       I    between atoms: C6_6  and  C7_7 
REMARK       I    between atoms: C8_8  and  C9_9 
REMARK       I    between atoms: C10_10  and  C11_11 
REMARK       I    between atoms: C12_12  and  C13_13 
REMARK       I    between atoms: C14_14  and  C15_15 
REMARK       I    between atoms: C23_25  and  O23_43 
REMARK       I    between atoms: C26_28  and  C27_29 
REMARK       I    between atoms: C28_30  and  C29_31 
REMARK       I    between atoms: C30_32  and  C31_33 
REMARK       I    between atoms: C32_34  and  C33_35 
REMARK       I    between atoms: C34_36  and  C35_37 
ROOT
HETATM    1  C1  8UH 8 619     -34.175 127.073   6.676  1.00 35.06    -0.018 C 
HETATM    2  C2  8UH 8 619     -34.027 127.065   5.154  1.00 35.06     0.045 C 
HETATM    3  C3  8UH 8 619     -32.854 127.868   4.602  1.00 35.06     0.123 C 
HETATM    4  C4  8UH 8 619     -31.809 128.087   5.680  1.00 35.06     0.066 C 
HETATM    5  C5  8UH 8 619     -32.506 128.854   6.763  1.00 35.06    -0.074 C 
HETATM    6  C6  8UH 8 619     -33.581 128.299   7.324  1.00 35.06    -0.048 C 
HETATM    7  C7  8UH 8 619     -34.308 128.939   8.435  1.00 35.06     0.009 C 
HETATM    8  C8  8UH 8 619     -34.462 130.260   8.347  1.00 35.06     0.007 C 
HETATM    9  C9  8UH 8 619     -35.346 130.970   9.291  1.00 35.06    -0.062 C 
HETATM   10  C10 8UH 8 619     -35.820 132.162   8.900  1.00 35.06     0.007 C 
HETATM   11  C11 8UH 8 619     -36.796 132.938   9.653  1.00 35.06     0.001 C 
HETATM   12  C12 8UH 8 619     -37.307 134.023   9.090  1.00 35.06     0.007 C 
HETATM   13  C13 8UH 8 619     -38.355 134.815   9.745  1.00 35.06    -0.062 C 
HETATM   14  C14 8UH 8 619     -38.960 135.745   8.994  1.00 35.06     0.007 C 
HETATM   15  C15 8UH 8 619     -40.048 136.601   9.447  1.00 35.06     0.001 C 
HETATM   16  C16 8UH 8 619     -33.413 125.886   7.255  1.00 35.06     0.020 C 
HETATM   17  C17 8UH 8 619     -35.644 126.954   7.055  1.00 35.06     0.020 C 
HETATM   18  C18 8UH 8 619     -31.583 129.808   7.480  1.00 35.06     0.044 C 
HETATM   19  C19 8UH 8 619     -35.713 130.310  10.588  1.00 35.06     0.048 C 
HETATM   20  C20 8UH 8 619     -38.693 134.520  11.175  1.00 35.06     0.048 C 
HETATM   21  O3  8UH 8 619     -32.252 127.162   3.511  1.00 35.06    -0.395 OA
ATOM     22  H3  8UH 8 619     -31.522 127.662   3.167  1.00  0.00     0.210 HD
HETATM   23  C21 8UH 8 619     -49.699 144.412   9.978  1.00 48.79    -0.018 C 
HETATM   24  C22 8UH 8 619     -50.359 144.667  11.326  1.00 49.38     0.045 C 
HETATM   25  C23 8UH 8 619     -50.227 146.072  11.912  1.00 51.85     0.123 C 
HETATM   26  C24 8UH 8 619     -48.827 146.647  11.790  1.00 54.16     0.066 C 
HETATM   27  C25 8UH 8 619     -48.019 146.150  10.622  1.00 52.93    -0.074 C 
HETATM   28  C26 8UH 8 619     -48.330 145.065   9.893  1.00 53.44    -0.048 C 
HETATM   29  C27 8UH 8 619     -47.328 144.491   8.953  1.00 56.18     0.009 C 
HETATM   30  C28 8UH 8 619     -46.578 143.435   9.272  1.00 54.04     0.007 C 
HETATM   31  C29 8UH 8 619     -45.601 142.839   8.359  1.00 35.06    -0.062 C 
HETATM   32  C30 8UH 8 619     -44.930 141.782   8.835  1.00 35.06     0.007 C 
HETATM   33  C31 8UH 8 619     -43.908 141.040   8.114  1.00 35.06     0.001 C 
HETATM   34  C32 8UH 8 619     -43.313 140.054   8.774  1.00 35.06     0.007 C 
HETATM   35  C33 8UH 8 619     -42.239 139.242   8.187  1.00 35.06    -0.062 C 
HETATM   36  C34 8UH 8 619     -41.661 138.331   8.988  1.00 35.06     0.007 C 
HETATM   37  C35 8UH 8 619     -40.568 137.456   8.580  1.00 35.06     0.001 C 
HETATM   38  C36 8UH 8 619     -50.602 144.917   8.864  1.00 50.92     0.020 C 
HETATM   39  C37 8UH 8 619     -49.560 142.903   9.803  1.00 48.05     0.020 C 
HETATM   40  C38 8UH 8 619     -46.615 146.641  10.761  1.00 55.82     0.044 C 
HETATM   41  C39 8UH 8 619     -45.421 143.408   6.984  1.00 35.06     0.048 C 
HETATM   42  C40 8UH 8 619     -41.843 139.498   6.765  1.00 35.06     0.048 C 
HETATM   43  O23 8UH 8 619     -51.186 146.978  11.351  1.00 50.70    -0.395 OA
ATOM     44  H23 8UH 8 619     -51.105 147.852  11.715  1.00  0.00     0.210 HD
ENDROOT
TORSDOF 12
BEGIN_RES PHE A  61
REMARK  2 active torsions:
REMARK  status: ('A' for Active; 'I' for Inactive)
REMARK    1  A    between atoms: CA   and  CB  
REMARK    2  A    between atoms: CB   and  CG  
ROOT
ATOM      1  CA  PHE A  61     -36.237 128.293  12.768  1.00 39.40     0.164 C 
ENDROOT
BRANCH   1   2
ATOM      2  CB  PHE A  61     -36.813 128.951  11.509  1.00 39.41     0.058 C 
BRANCH   2   3
ATOM      3  CG  PHE A  61     -37.107 127.990  10.382  1.00 39.01    -0.020 A 
ATOM      4  CD2 PHE A  61     -36.395 126.808  10.251  1.00 40.32    -0.004 A 
ATOM      5  CE2 PHE A  61     -36.664 125.927   9.211  1.00 40.20    -0.000 A 
ATOM      6  CZ  PHE A  61     -37.649 126.215   8.294  1.00 40.34    -0.000 A 
ATOM      7  CE1 PHE A  61     -38.366 127.385   8.411  1.00 41.51    -0.000 A 
ATOM      8  CD1 PHE A  61     -38.093 128.270   9.447  1.00 39.94    -0.004 A 
ENDBRANCH   2   3
ENDBRANCH   1   2
END_RES PHE A  61
BEGIN_RES VAL A 134
REMARK  1 active torsions:
REMARK  status: ('A' for Active; 'I' for Inactive)
REMARK    3  A    between atoms: CA   and  CB  
ROOT
ATOM      9  CA  VAL A 134     -29.766 132.051   9.815  1.00 40.75     0.159 C 
ENDROOT
BRANCH   9  10
ATOM     10  CB  VAL A 134     -30.864 132.765   9.009  1.00 40.76     0.029 C 
ATOM     11  CG1 VAL A 134     -30.934 132.216   7.591  1.00 41.76     0.002 C 
ATOM     12  CG2 VAL A 134     -32.218 132.665   9.694  1.00 40.56     0.002 C 
ENDBRANCH   9  10
END_RES VAL A 134
BEGIN_RES TYR A 338
REMARK  3 active torsions:
REMARK  status: ('A' for Active; 'I' for Inactive)
REMARK    4  A    between atoms: CA   and  CB  
REMARK    5  A    between atoms: CB   and  CG  
REMARK    6  A    between atoms: CZ   and  OH  
ROOT
ATOM     13  CA  TYR A 338     -41.631 124.950   6.058  1.00 38.23     0.164 C 
ENDROOT
BRANCH  13  14
ATOM     14  CB  TYR A 338     -41.621 126.456   6.339  1.00 39.15     0.058 C 
BRANCH  14  15
ATOM     15  CG  TYR A 338     -40.394 127.203   5.869  1.00 39.03    -0.020 A 
ATOM     16  CD2 TYR A 338     -40.230 128.543   6.174  1.00 40.65    -0.002 A 
ATOM     17  CE2 TYR A 338     -39.125 129.263   5.746  1.00 40.91     0.024 A 
ATOM     18  CZ  TYR A 338     -38.151 128.640   4.990  1.00 42.33     0.089 A 
ATOM     19  CE1 TYR A 338     -38.290 127.299   4.676  1.00 40.63     0.024 A 
ATOM     20  CD1 TYR A 338     -39.408 126.600   5.103  1.00 39.27    -0.002 A 
BRANCH  18  21
ATOM     21  OH  TYR A 338     -37.055 129.339   4.566  1.00 43.36    -0.359 OA
ATOM     22  HH  TYR A 338     -36.525 129.825   5.188  1.00  0.00     0.217 HD
ENDBRANCH  18  21
ENDBRANCH  14  15
ENDBRANCH  13  14
END_RES TYR A 338
ENDMDL
