MODEL 1
REMARK VINA RESULT:    -9.220      0.000      0.000
REMARK INTER + INTRA:         -11.995
REMARK INTER:                  -9.220
REMARK INTRA:                  -2.775
REMARK UNBOUND:                -2.775
REMARK  0 active torsions:
REMARK  status: ('A' for Active; 'I' for Inactive)
REMARK       I    between atoms: C3_3  and  O3_21 
REMARK       I    between atoms: C6_6  and  C7_7 
REMARK       I    between atoms: C8_8  and  C9_9 
REMARK       I    between atoms: C10_10  and  C11_11 
REMARK       I    between atoms: C12_12  and  C13_13 
REMARK       I    between atoms: C14_14  and  C15_15 
REMARK       I    between atoms: C23_25  and  O23_43 
REMARK       I    between atoms: C26_28  and  C27_29 
REMARK       I    between atoms: C28_30  and  C29_31 
REMARK       I    between atoms: C30_32  and  C31_33 
REMARK       I    between atoms: C32_34  and  C33_35 
REMARK       I    between atoms: C34_36  and  C35_37 
ROOT
HETATM    1  C1  8UH 61620     -34.455 128.043   6.548  1.00 97.95    -0.018 C 
HETATM    2  C2  8UH 61620     -33.666 127.749   5.277  1.00 97.95     0.045 C 
HETATM    3  C3  8UH 61620     -32.285 128.367   5.153  1.00 97.95     0.123 C 
HETATM    4  C4  8UH 61620     -31.570 128.405   6.485  1.00 97.95     0.066 C 
HETATM    5  C5  8UH 61620     -32.419 129.150   7.470  1.00 97.95    -0.074 C 
HETATM    6  C6  8UH 61620     -33.742 128.960   7.524  1.00 97.95    -0.048 C 
HETATM    7  C7  8UH 61620     -34.560 129.646   8.553  1.00 97.95     0.009 C 
HETATM    8  C8  8UH 61620     -35.084 130.851   8.332  1.00 97.95     0.007 C 
HETATM    9  C9  8UH 61620     -35.908 131.545   9.323  1.00 97.95    -0.062 C 
HETATM   10  C10 8UH 61620     -36.445 132.702   8.945  1.00 97.95     0.007 C 
HETATM   11  C11 8UH 61620     -37.299 133.507   9.798  1.00 97.95     0.001 C 
HETATM   12  C12 8UH 61620     -37.722 134.625   9.234  1.00 97.95     0.007 C 
HETATM   13  C13 8UH 61620     -38.619 135.579   9.896  1.00 97.95    -0.062 C 
HETATM   14  C14 8UH 61620     -39.205 136.463   9.090  1.00 97.95     0.007 C 
HETATM   15  C15 8UH 61620     -40.155 137.455   9.556  1.00 97.95     0.001 C 
HETATM   16  C16 8UH 61620     -34.784 126.697   7.185  1.00 97.95     0.020 C 
HETATM   17  C17 8UH 61620     -35.756 128.726   6.149  1.00 97.95     0.020 C 
HETATM   18  C18 8UH 61620     -31.676 130.002   8.457  1.00 97.95     0.044 C 
HETATM   19  C19 8UH 61620     -36.135 130.972  10.688  1.00 97.95     0.048 C 
HETATM   20  C20 8UH 61620     -38.874 135.550  11.372  1.00 97.95     0.048 C 
HETATM   21  O3  8UH 61620     -31.499 127.578   4.252  1.00 97.95    -0.395 OA
ATOM     22  H3  8UH 61620     -30.635 127.965   4.175  1.00  0.00     0.210 HD
HETATM   23  C21 8UH 61620     -50.045 145.126   8.944  1.00 37.79    -0.018 C 
HETATM   24  C22 8UH 61620     -50.999 145.976   9.764  1.00 37.79     0.045 C 
HETATM   25  C23 8UH 61620     -50.384 146.774  10.890  1.00 37.79     0.123 C 
HETATM   26  C24 8UH 61620     -49.197 147.540  10.368  1.00 37.79     0.066 C 
HETATM   27  C25 8UH 61620     -48.219 146.661   9.651  1.00 37.79    -0.074 C 
HETATM   28  C26 8UH 61620     -48.605 145.598   8.932  1.00 37.79    -0.048 C 
HETATM   29  C27 8UH 61620     -47.645 144.868   8.059  1.00 37.79     0.009 C 
HETATM   30  C28 8UH 61620     -46.802 143.932   8.509  1.00 37.79     0.007 C 
HETATM   31  C29 8UH 61620     -45.877 143.218   7.628  1.00 97.95    -0.062 C 
HETATM   32  C30 8UH 61620     -45.121 142.306   8.229  1.00 97.95     0.007 C 
HETATM   33  C31 8UH 61620     -44.143 141.464   7.569  1.00 97.95     0.001 C 
HETATM   34  C32 8UH 61620     -43.525 140.657   8.413  1.00 97.95     0.007 C 
HETATM   35  C33 8UH 61620     -42.503 139.701   7.997  1.00 97.95    -0.062 C 
HETATM   36  C34 8UH 61620     -41.939 138.960   8.951  1.00 97.95     0.007 C 
HETATM   37  C35 8UH 61620     -40.928 137.976   8.615  1.00 97.95     0.001 C 
HETATM   38  C36 8UH 61620     -50.653 145.039   7.552  1.00 37.79     0.020 C 
HETATM   39  C37 8UH 61620     -50.020 143.734   9.531  1.00 37.79     0.020 C 
HETATM   40  C38 8UH 61620     -46.854 147.271   9.543  1.00 37.79     0.044 C 
HETATM   41  C39 8UH 61620     -45.796 143.486   6.155  1.00 97.95     0.048 C 
HETATM   42  C40 8UH 61620     -42.115 139.570   6.558  1.00 97.95     0.048 C 
HETATM   43  O23 8UH 61620     -51.342 147.736  11.330  1.00 37.79    -0.395 OA
ATOM     44  H23 8UH 61620     -50.955 148.237  12.038  1.00  0.00     0.210 HD
ENDROOT
TORSDOF 12
BEGIN_RES PHE A  61
REMARK  2 active torsions:
REMARK  status: ('A' for Active; 'I' for Inactive)
REMARK    1  A    between atoms: CA   and  CB  
REMARK    2  A    between atoms: CB   and  CG  
ROOT
ATOM      1  CA  PHE A  61     -36.237 128.293  12.768  1.00 39.40     0.164 C 
ENDROOT
BRANCH   1   2
ATOM      2  CB  PHE A  61     -36.813 128.951  11.509  1.00 39.41     0.058 C 
BRANCH   2   3
ATOM      3  CG  PHE A  61     -37.030 128.004  10.353  1.00 39.01    -0.020 A 
ATOM      4  CD2 PHE A  61     -36.268 126.853  10.224  1.00 40.32    -0.004 A 
ATOM      5  CE2 PHE A  61     -36.466 125.984   9.158  1.00 40.20    -0.000 A 
ATOM      6  CZ  PHE A  61     -37.430 126.253   8.213  1.00 40.34    -0.000 A 
ATOM      7  CE1 PHE A  61     -38.197 127.391   8.329  1.00 41.51    -0.000 A 
ATOM      8  CD1 PHE A  61     -37.994 128.264   9.390  1.00 39.94    -0.004 A 
ENDBRANCH   2   3
ENDBRANCH   1   2
END_RES PHE A  61
BEGIN_RES VAL A 134
REMARK  1 active torsions:
REMARK  status: ('A' for Active; 'I' for Inactive)
REMARK    3  A    between atoms: CA   and  CB  
ROOT
ATOM      9  CA  VAL A 134     -29.766 132.051   9.815  1.00 40.75     0.159 C 
ENDROOT
BRANCH   9  10
ATOM     10  CB  VAL A 134     -30.864 132.765   9.009  1.00 40.76     0.029 C 
ATOM     11  CG1 VAL A 134     -30.910 132.241   7.581  1.00 41.76     0.002 C 
ATOM     12  CG2 VAL A 134     -32.225 132.635   9.676  1.00 40.56     0.002 C 
ENDBRANCH   9  10
END_RES VAL A 134
BEGIN_RES TYR A 338
REMARK  3 active torsions:
REMARK  status: ('A' for Active; 'I' for Inactive)
REMARK    4  A    between atoms: CA   and  CB  
REMARK    5  A    between atoms: CB   and  CG  
REMARK    6  A    between atoms: CZ   and  OH  
ROOT
ATOM     13  CA  TYR A 338     -41.631 124.950   6.058  1.00 38.23     0.164 C 
ENDROOT
BRANCH  13  14
ATOM     14  CB  TYR A 338     -41.621 126.456   6.339  1.00 39.15     0.058 C 
BRANCH  14  15
ATOM     15  CG  TYR A 338     -40.436 127.218   5.791  1.00 39.03    -0.020 A 
ATOM     16  CD2 TYR A 338     -40.295 128.571   6.045  1.00 40.65    -0.002 A 
ATOM     17  CE2 TYR A 338     -39.230 129.304   5.546  1.00 40.91     0.024 A 
ATOM     18  CZ  TYR A 338     -38.272 128.681   4.769  1.00 42.33     0.089 A 
ATOM     19  CE1 TYR A 338     -38.388 127.327   4.506  1.00 40.63     0.024 A 
ATOM     20  CD1 TYR A 338     -39.468 126.615   5.003  1.00 39.27    -0.002 A 
BRANCH  18  21
ATOM     21  OH  TYR A 338     -37.214 129.393   4.275  1.00 43.36    -0.359 OA
ATOM     22  HH  TYR A 338     -37.321 129.940   3.506  1.00  0.00     0.217 HD
ENDBRANCH  18  21
ENDBRANCH  14  15
ENDBRANCH  13  14
END_RES TYR A 338
ENDMDL
MODEL 2
REMARK VINA RESULT:    -8.452      1.664     16.484
REMARK INTER + INTRA:         -11.227
REMARK INTER:                 -11.014
REMARK INTRA:                  -0.213
REMARK UNBOUND:                -2.775
REMARK  0 active torsions:
REMARK  status: ('A' for Active; 'I' for Inactive)
REMARK       I    between atoms: C3_3  and  O3_21 
REMARK       I    between atoms: C6_6  and  C7_7 
REMARK       I    between atoms: C8_8  and  C9_9 
REMARK       I    between atoms: C10_10  and  C11_11 
REMARK       I    between atoms: C12_12  and  C13_13 
REMARK       I    between atoms: C14_14  and  C15_15 
REMARK       I    between atoms: C23_25  and  O23_43 
REMARK       I    between atoms: C26_28  and  C27_29 
REMARK       I    between atoms: C28_30  and  C29_31 
REMARK       I    between atoms: C30_32  and  C31_33 
REMARK       I    between atoms: C32_34  and  C33_35 
REMARK       I    between atoms: C34_36  and  C35_37 
ROOT
HETATM    1  C1  8UH 61620     -50.050 143.984  12.883  1.00 97.95    -0.018 C 
HETATM    2  C2  8UH 61620     -50.360 144.440  14.305  1.00 97.95     0.045 C 
HETATM    3  C3  8UH 61620     -49.650 145.683  14.810  1.00 97.95     0.123 C 
HETATM    4  C4  8UH 61620     -49.480 146.712  13.716  1.00 97.95     0.066 C 
HETATM    5  C5  8UH 61620     -48.743 146.085  12.571  1.00 97.95    -0.074 C 
HETATM    6  C6  8UH 61620     -49.027 144.843  12.164  1.00 97.95    -0.048 C 
HETATM    7  C7  8UH 61620     -48.344 144.262  10.983  1.00 97.95     0.009 C 
HETATM    8  C8  8UH 61620     -47.196 143.597  11.104  1.00 97.95     0.007 C 
HETATM    9  C9  8UH 61620     -46.508 143.000   9.958  1.00 97.95    -0.062 C 
HETATM   10  C10 8UH 61620     -45.418 142.285  10.225  1.00 97.95     0.007 C 
HETATM   11  C11 8UH 61620     -44.630 141.614   9.208  1.00 97.95     0.001 C 
HETATM   12  C12 8UH 61620     -43.582 140.964   9.683  1.00 97.95     0.007 C 
HETATM   13  C13 8UH 61620     -42.659 140.189   8.846  1.00 97.95    -0.062 C 
HETATM   14  C14 8UH 61620     -41.870 139.340   9.501  1.00 97.95     0.007 C 
HETATM   15  C15 8UH 61620     -40.925 138.460   8.841  1.00 97.95     0.001 C 
HETATM   16  C16 8UH 61620     -51.377 143.950  12.131  1.00 97.95     0.020 C 
HETATM   17  C17 8UH 61620     -49.490 142.570  12.951  1.00 97.95     0.020 C 
HETATM   18  C18 8UH 61620     -47.782 146.981  11.847  1.00 97.95     0.044 C 
HETATM   19  C19 8UH 61620     -47.014 143.185   8.560  1.00 97.95     0.048 C 
HETATM   20  C20 8UH 61620     -42.619 140.329   7.355  1.00 97.95     0.048 C 
HETATM   21  O3  8UH 61620     -50.431 146.274  15.855  1.00 97.95    -0.395 OA
ATOM     22  H3  8UH 61620     -49.986 147.052  16.171  1.00  0.00     0.210 HD
HETATM   23  C21 8UH 61620     -34.057 128.121   7.121  1.00 37.79    -0.018 C 
HETATM   24  C22 8UH 61620     -33.233 127.341   6.112  1.00 37.79     0.045 C 
HETATM   25  C23 8UH 61620     -32.327 128.155   5.218  1.00 37.79     0.123 C 
HETATM   26  C24 8UH 61620     -31.508 129.095   6.062  1.00 37.79     0.066 C 
HETATM   27  C25 8UH 61620     -32.352 129.927   6.978  1.00 37.79    -0.074 C 
HETATM   28  C26 8UH 61620     -33.482 129.463   7.529  1.00 37.79    -0.048 C 
HETATM   29  C27 8UH 61620     -34.189 130.223   8.595  1.00 37.79     0.009 C 
HETATM   30  C28 8UH 61620     -35.032 131.232   8.348  1.00 37.79     0.007 C 
HETATM   31  C29 8UH 61620     -35.726 131.956   9.414  1.00 97.95    -0.062 C 
HETATM   32  C30 8UH 61620     -36.543 132.918   8.998  1.00 97.95     0.007 C 
HETATM   33  C31 8UH 61620     -37.347 133.761   9.860  1.00 97.95     0.001 C 
HETATM   34  C32 8UH 61620     -38.055 134.644   9.177  1.00 97.95     0.007 C 
HETATM   35  C33 8UH 61620     -38.956 135.603   9.811  1.00 97.95    -0.062 C 
HETATM   36  C34 8UH 61620     -39.595 136.457   9.011  1.00 97.95     0.007 C 
HETATM   37  C35 8UH 61620     -40.520 137.428   9.564  1.00 97.95     0.001 C 
HETATM   38  C36 8UH 61620     -34.272 127.184   8.300  1.00 37.79     0.020 C 
HETATM   39  C37 8UH 61620     -35.407 128.418   6.510  1.00 37.79     0.020 C 
HETATM   40  C38 8UH 61620     -31.650 131.159   7.463  1.00 37.79     0.044 C 
HETATM   41  C39 8UH 61620     -35.540 131.629  10.865  1.00 97.95     0.048 C 
HETATM   42  C40 8UH 61620     -39.143 135.615  11.295  1.00 97.95     0.048 C 
HETATM   43  O23 8UH 61620     -31.415 127.264   4.579  1.00 37.79    -0.395 OA
ATOM     44  H23 8UH 61620     -30.845 127.775   4.016  1.00  0.00     0.210 HD
ENDROOT
TORSDOF 12
BEGIN_RES PHE A  61
REMARK  2 active torsions:
REMARK  status: ('A' for Active; 'I' for Inactive)
REMARK    1  A    between atoms: CA   and  CB  
REMARK    2  A    between atoms: CB   and  CG  
ROOT
ATOM      1  CA  PHE A  61     -36.237 128.293  12.768  1.00 39.40     0.164 C 
ENDROOT
BRANCH   1   2
ATOM      2  CB  PHE A  61     -36.813 128.951  11.509  1.00 39.41     0.058 C 
BRANCH   2   3
ATOM      3  CG  PHE A  61     -37.037 128.002  10.356  1.00 39.01    -0.020 A 
ATOM      4  CD2 PHE A  61     -36.320 126.820  10.257  1.00 40.32    -0.004 A 
ATOM      5  CE2 PHE A  61     -36.525 125.950   9.194  1.00 40.20    -0.000 A 
ATOM      6  CZ  PHE A  61     -37.450 126.249   8.220  1.00 40.34    -0.000 A 
ATOM      7  CE1 PHE A  61     -38.172 127.419   8.305  1.00 41.51    -0.000 A 
ATOM      8  CD1 PHE A  61     -37.963 128.293   9.364  1.00 39.94    -0.004 A 
ENDBRANCH   2   3
ENDBRANCH   1   2
END_RES PHE A  61
BEGIN_RES VAL A 134
REMARK  1 active torsions:
REMARK  status: ('A' for Active; 'I' for Inactive)
REMARK    3  A    between atoms: CA   and  CB  
ROOT
ATOM      9  CA  VAL A 134     -29.766 132.051   9.815  1.00 40.75     0.159 C 
ENDROOT
BRANCH   9  10
ATOM     10  CB  VAL A 134     -30.864 132.765   9.009  1.00 40.76     0.029 C 
ATOM     11  CG1 VAL A 134     -32.107 132.974   9.861  1.00 41.76     0.002 C 
ATOM     12  CG2 VAL A 134     -30.372 134.086   8.438  1.00 40.56     0.002 C 
ENDBRANCH   9  10
END_RES VAL A 134
BEGIN_RES TYR A 338
REMARK  3 active torsions:
REMARK  status: ('A' for Active; 'I' for Inactive)
REMARK    4  A    between atoms: CA   and  CB  
REMARK    5  A    between atoms: CB   and  CG  
REMARK    6  A    between atoms: CZ   and  OH  
ROOT
ATOM     13  CA  TYR A 338     -41.631 124.950   6.058  1.00 38.23     0.164 C 
ENDROOT
BRANCH  13  14
ATOM     14  CB  TYR A 338     -41.621 126.456   6.339  1.00 39.15     0.058 C 
BRANCH  14  15
ATOM     15  CG  TYR A 338     -40.419 127.212   5.822  1.00 39.03    -0.020 A 
ATOM     16  CD2 TYR A 338     -40.265 128.559   6.101  1.00 40.65    -0.002 A 
ATOM     17  CE2 TYR A 338     -39.183 129.287   5.630  1.00 40.91     0.024 A 
ATOM     18  CZ  TYR A 338     -38.222 128.665   4.857  1.00 42.33     0.089 A 
ATOM     19  CE1 TYR A 338     -38.351 127.318   4.568  1.00 40.63     0.024 A 
ATOM     20  CD1 TYR A 338     -39.447 126.610   5.037  1.00 39.27    -0.002 A 
BRANCH  18  21
ATOM     21  OH  TYR A 338     -37.148 129.372   4.391  1.00 43.36    -0.359 OA
ATOM     22  HH  TYR A 338     -36.446 129.622   4.979  1.00  0.00     0.217 HD
ENDBRANCH  18  21
ENDBRANCH  14  15
ENDBRANCH  13  14
END_RES TYR A 338
ENDMDL
MODEL 3
REMARK VINA RESULT:    -7.046      0.814      1.309
REMARK INTER + INTRA:          -9.821
REMARK INTER:                  -9.920
REMARK INTRA:                   0.099
REMARK UNBOUND:                -2.775
REMARK  0 active torsions:
REMARK  status: ('A' for Active; 'I' for Inactive)
REMARK       I    between atoms: C3_3  and  O3_21 
REMARK       I    between atoms: C6_6  and  C7_7 
REMARK       I    between atoms: C8_8  and  C9_9 
REMARK       I    between atoms: C10_10  and  C11_11 
REMARK       I    between atoms: C12_12  and  C13_13 
REMARK       I    between atoms: C14_14  and  C15_15 
REMARK       I    between atoms: C23_25  and  O23_43 
REMARK       I    between atoms: C26_28  and  C27_29 
REMARK       I    between atoms: C28_30  and  C29_31 
REMARK       I    between atoms: C30_32  and  C31_33 
REMARK       I    between atoms: C32_34  and  C33_35 
REMARK       I    between atoms: C34_36  and  C35_37 
ROOT
HETATM    1  C1  8UH 61620     -34.545 128.829   6.969  1.00 97.95    -0.018 C 
HETATM    2  C2  8UH 61620     -33.596 128.636   5.791  1.00 97.95     0.045 C 
HETATM    3  C3  8UH 61620     -32.229 129.292   5.880  1.00 97.95     0.123 C 
HETATM    4  C4  8UH 61620     -31.686 129.259   7.291  1.00 97.95     0.066 C 
HETATM    5  C5  8UH 61620     -32.673 129.919   8.206  1.00 97.95    -0.074 C 
HETATM    6  C6  8UH 61620     -33.987 129.696   8.082  1.00 97.95    -0.048 C 
HETATM    7  C7  8UH 61620     -34.946 130.295   9.041  1.00 97.95     0.009 C 
HETATM    8  C8  8UH 61620     -35.475 131.500   8.831  1.00 97.95     0.007 C 
HETATM    9  C9  8UH 61620     -36.436 132.108   9.752  1.00 97.95    -0.062 C 
HETATM   10  C10 8UH 61620     -36.956 133.275   9.382  1.00 97.95     0.007 C 
HETATM   11  C11 8UH 61620     -37.934 134.004  10.170  1.00 97.95     0.001 C 
HETATM   12  C12 8UH 61620     -38.318 135.146   9.628  1.00 97.95     0.007 C 
HETATM   13  C13 8UH 61620     -39.318 136.035  10.230  1.00 97.95    -0.062 C 
HETATM   14  C14 8UH 61620     -39.827 136.956   9.414  1.00 97.95     0.007 C 
HETATM   15  C15 8UH 61620     -40.856 137.894   9.817  1.00 97.95     0.001 C 
HETATM   16  C16 8UH 61620     -34.909 127.437   7.475  1.00 97.95     0.020 C 
HETATM   17  C17 8UH 61620     -35.807 129.508   6.453  1.00 97.95     0.020 C 
HETATM   18  C18 8UH 61620     -32.084 130.720   9.329  1.00 97.95     0.044 C 
HETATM   19  C19 8UH 61620     -36.812 131.442  11.040  1.00 97.95     0.048 C 
HETATM   20  C20 8UH 61620     -39.752 135.903  11.657  1.00 97.95     0.048 C 
HETATM   21  O3  8UH 61620     -31.315 128.581   5.038  1.00 97.95    -0.395 OA
ATOM     22  H3  8UH 61620     -30.460 128.992   5.094  1.00  0.00     0.210 HD
HETATM   23  C21 8UH 61620     -50.822 145.367   8.447  1.00 37.79    -0.018 C 
HETATM   24  C22 8UH 61620     -51.896 146.140   9.192  1.00 37.79     0.045 C 
HETATM   25  C23 8UH 61620     -51.449 146.875  10.434  1.00 37.79     0.123 C 
HETATM   26  C24 8UH 61620     -50.231 147.700  10.114  1.00 37.79     0.066 C 
HETATM   27  C25 8UH 61620     -49.145 146.893   9.472  1.00 37.79    -0.074 C 
HETATM   28  C26 8UH 61620     -49.406 145.870   8.646  1.00 37.79    -0.048 C 
HETATM   29  C27 8UH 61620     -48.325 145.221   7.857  1.00 37.79     0.009 C 
HETATM   30  C28 8UH 61620     -47.515 144.276   8.349  1.00 37.79     0.007 C 
HETATM   31  C29 8UH 61620     -46.467 143.643   7.548  1.00 97.95    -0.062 C 
HETATM   32  C30 8UH 61620     -45.764 142.710   8.182  1.00 97.95     0.007 C 
HETATM   33  C31 8UH 61620     -44.687 141.935   7.598  1.00 97.95     0.001 C 
HETATM   34  C32 8UH 61620     -44.154 141.089   8.462  1.00 97.95     0.007 C 
HETATM   35  C33 8UH 61620     -43.060 140.184   8.119  1.00 97.95    -0.062 C 
HETATM   36  C34 8UH 61620     -42.597 139.395   9.088  1.00 97.95     0.007 C 
HETATM   37  C35 8UH 61620     -41.522 138.458   8.821  1.00 97.95     0.001 C 
HETATM   38  C36 8UH 61620     -51.250 145.357   6.987  1.00 37.79     0.020 C 
HETATM   39  C37 8UH 61620     -50.827 143.940   8.945  1.00 37.79     0.020 C 
HETATM   40  C38 8UH 61620     -47.797 147.539   9.574  1.00 37.79     0.044 C 
HETATM   41  C39 8UH 61620     -46.212 144.008   6.117  1.00 97.95     0.048 C 
HETATM   42  C40 8UH 61620     -42.493 140.157   6.735  1.00 97.95     0.048 C 
HETATM   43  O23 8UH 61620     -52.483 147.785  10.809  1.00 37.79    -0.395 OA
ATOM     44  H23 8UH 61620     -52.202 148.247  11.590  1.00  0.00     0.210 HD
ENDROOT
TORSDOF 12
BEGIN_RES PHE A  61
REMARK  2 active torsions:
REMARK  status: ('A' for Active; 'I' for Inactive)
REMARK    1  A    between atoms: CA   and  CB  
REMARK    2  A    between atoms: CB   and  CG  
ROOT
ATOM      1  CA  PHE A  61     -36.237 128.293  12.768  1.00 39.40     0.164 C 
ENDROOT
BRANCH   1   2
ATOM      2  CB  PHE A  61     -36.813 128.951  11.509  1.00 39.41     0.058 C 
BRANCH   2   3
ATOM      3  CG  PHE A  61     -37.001 128.010  10.343  1.00 39.01    -0.020 A 
ATOM      4  CD2 PHE A  61     -37.997 128.229   9.405  1.00 40.32    -0.004 A 
ATOM      5  CE2 PHE A  61     -38.171 127.361   8.335  1.00 40.20    -0.000 A 
ATOM      6  CZ  PHE A  61     -37.349 126.266   8.189  1.00 40.34    -0.000 A 
ATOM      7  CE1 PHE A  61     -36.353 126.035   9.111  1.00 41.51    -0.000 A 
ATOM      8  CD1 PHE A  61     -36.183 126.900  10.185  1.00 39.94    -0.004 A 
ENDBRANCH   2   3
ENDBRANCH   1   2
END_RES PHE A  61
BEGIN_RES VAL A 134
REMARK  1 active torsions:
REMARK  status: ('A' for Active; 'I' for Inactive)
REMARK    3  A    between atoms: CA   and  CB  
ROOT
ATOM      9  CA  VAL A 134     -29.766 132.051   9.815  1.00 40.75     0.159 C 
ENDROOT
BRANCH   9  10
ATOM     10  CB  VAL A 134     -30.864 132.765   9.009  1.00 40.76     0.029 C 
ATOM     11  CG1 VAL A 134     -31.943 133.309   9.934  1.00 41.76     0.002 C 
ATOM     12  CG2 VAL A 134     -30.291 133.872   8.138  1.00 40.56     0.002 C 
ENDBRANCH   9  10
END_RES VAL A 134
BEGIN_RES TYR A 338
REMARK  3 active torsions:
REMARK  status: ('A' for Active; 'I' for Inactive)
REMARK    4  A    between atoms: CA   and  CB  
REMARK    5  A    between atoms: CB   and  CG  
REMARK    6  A    between atoms: CZ   and  OH  
ROOT
ATOM     13  CA  TYR A 338     -41.631 124.950   6.058  1.00 38.23     0.164 C 
ENDROOT
BRANCH  13  14
ATOM     14  CB  TYR A 338     -41.621 126.456   6.339  1.00 39.15     0.058 C 
BRANCH  14  15
ATOM     15  CG  TYR A 338     -40.437 127.218   5.790  1.00 39.03    -0.020 A 
ATOM     16  CD2 TYR A 338     -39.449 126.560   5.077  1.00 40.65    -0.002 A 
ATOM     17  CE2 TYR A 338     -38.342 127.224   4.573  1.00 40.91     0.024 A 
ATOM     18  CZ  TYR A 338     -38.203 128.583   4.782  1.00 42.33     0.089 A 
ATOM     19  CE1 TYR A 338     -39.179 129.264   5.487  1.00 40.63     0.024 A 
ATOM     20  CD1 TYR A 338     -40.273 128.579   5.995  1.00 39.27    -0.002 A 
BRANCH  18  21
ATOM     21  OH  TYR A 338     -37.117 129.249   4.285  1.00 43.36    -0.359 OA
ATOM     22  HH  TYR A 338     -36.969 130.160   4.510  1.00  0.00     0.217 HD
ENDBRANCH  18  21
ENDBRANCH  14  15
ENDBRANCH  13  14
END_RES TYR A 338
ENDMDL
