MODEL 1
REMARK VINA RESULT:   -12.118      0.000      0.000
REMARK INTER + INTRA:         -12.166
REMARK INTER:                 -12.118
REMARK INTRA:                  -0.048
REMARK UNBOUND:                -0.048
REMARK  0 active torsions:
REMARK  status: ('A' for Active; 'I' for Inactive)
REMARK       I    between atoms: C3_3  and  O3_21 
REMARK       I    between atoms: C6_6  and  C7_7 
REMARK       I    between atoms: C8_8  and  C9_9 
REMARK       I    between atoms: C10_10  and  C11_11 
REMARK       I    between atoms: C12_12  and  C13_13 
REMARK       I    between atoms: C14_14  and  C15_15 
REMARK       I    between atoms: C23_25  and  O23_43 
REMARK       I    between atoms: C26_28  and  C27_29 
REMARK       I    between atoms: C28_30  and  C29_31 
REMARK       I    between atoms: C30_32  and  C31_33 
REMARK       I    between atoms: C32_34  and  C33_35 
REMARK       I    between atoms: C34_36  and  C35_37 
ROOT
HETATM    1  C1  8UH U1621     -34.197 128.128   7.062  1.00 20.50    -0.018 C 
HETATM    2  C2  8UH U1621     -33.609 127.941   5.670  1.00 20.50     0.045 C 
HETATM    3  C3  8UH U1621     -32.363 128.735   5.339  1.00 20.50     0.123 C 
HETATM    4  C4  8UH U1621     -31.627 129.087   6.609  1.00 20.50     0.066 C 
HETATM    5  C5  8UH U1621     -32.581 129.892   7.427  1.00 20.50    -0.074 C 
HETATM    6  C6  8UH U1621     -33.725 129.348   7.798  1.00 20.50    -0.048 C 
HETATM    7  C7  8UH U1621     -34.653 129.983   8.743  1.00 20.50     0.009 C 
HETATM    8  C8  8UH U1621     -34.762 131.309   8.746  1.00 20.50     0.007 C 
HETATM    9  C9  8UH U1621     -35.859 131.922   9.511  1.00 20.50    -0.062 C 
HETATM   10  C10 8UH U1621     -36.277 133.137   9.137  1.00 20.50     0.007 C 
HETATM   11  C11 8UH U1621     -37.448 133.798   9.702  1.00 20.50     0.001 C 
HETATM   12  C12 8UH U1621     -37.918 134.897   9.125  1.00 20.50     0.007 C 
HETATM   13  C13 8UH U1621     -39.143 135.558   9.609  1.00 20.50    -0.062 C 
HETATM   14  C14 8UH U1621     -39.642 136.566   8.882  1.00 20.50     0.007 C 
HETATM   15  C15 8UH U1621     -40.860 137.295   9.223  1.00 20.50     0.001 C 
HETATM   16  C16 8UH U1621     -33.790 126.961   7.944  1.00 20.50     0.020 C 
HETATM   17  C17 8UH U1621     -35.700 128.125   6.932  1.00 20.50     0.020 C 
HETATM   18  C18 8UH U1621     -31.771 130.720   8.360  1.00 20.50     0.044 C 
HETATM   19  C19 8UH U1621     -36.529 131.143  10.600  1.00 20.50     0.048 C 
HETATM   20  C20 8UH U1621     -39.784 135.058  10.866  1.00 20.50     0.048 C 
HETATM   21  O3  8UH U1621     -31.552 127.902   4.523  1.00 20.50    -0.395 OA
ATOM     22  H3  8UH U1621     -30.770 128.399   4.315  1.00  0.00     0.210 HD
HETATM   23  C21 8UH U1621     -50.578 145.723   9.200  1.00 21.49    -0.018 C 
HETATM   24  C22 8UH U1621     -51.800 146.234   9.980  1.00 20.69     0.045 C 
HETATM   25  C23 8UH U1621     -51.639 146.848  11.371  1.00 22.34     0.123 C 
HETATM   26  C24 8UH U1621     -50.187 147.088  11.827  1.00 20.89     0.066 C 
HETATM   27  C25 8UH U1621     -49.025 146.550  11.044  1.00 22.34    -0.074 C 
HETATM   28  C26 8UH U1621     -49.152 145.919   9.826  1.00 21.76    -0.048 C 
HETATM   29  C27 8UH U1621     -48.019 145.379   9.019  1.00 21.22     0.009 C 
HETATM   30  C28 8UH U1621     -47.392 144.180   9.212  1.00 19.00     0.007 C 
HETATM   31  C29 8UH U1621     -46.285 143.661   8.452  1.00 20.50    -0.062 C 
HETATM   32  C30 8UH U1621     -45.822 142.445   8.780  1.00 20.50     0.007 C 
HETATM   33  C31 8UH U1621     -44.684 141.797   8.141  1.00 20.50     0.001 C 
HETATM   34  C32 8UH U1621     -44.207 140.671   8.656  1.00 20.50     0.007 C 
HETATM   35  C33 8UH U1621     -43.008 140.021   8.105  1.00 20.50    -0.062 C 
HETATM   36  C34 8UH U1621     -42.500 138.989   8.794  1.00 20.50     0.007 C 
HETATM   37  C35 8UH U1621     -41.287 138.260   8.429  1.00 20.50     0.001 C 
HETATM   38  C36 8UH U1621     -50.689 146.484   7.858  1.00 20.30     0.020 C 
HETATM   39  C37 8UH U1621     -50.833 144.234   8.915  1.00 19.22     0.020 C 
HETATM   40  C38 8UH U1621     -47.763 146.840  11.768  1.00 22.01     0.044 C 
HETATM   41  C39 8UH U1621     -45.748 144.494   7.332  1.00 20.50     0.048 C 
HETATM   42  C40 8UH U1621     -42.393 140.578   6.860  1.00 20.50     0.048 C 
HETATM   43  O23 8UH U1621     -52.405 148.044  11.481  1.00 21.61    -0.395 OA
ATOM     44  H23 8UH U1621     -52.305 148.426  12.345  1.00  0.00     0.210 HD
ENDROOT
TORSDOF 12
BEGIN_RES PHE A  61
REMARK  2 active torsions:
REMARK  status: ('A' for Active; 'I' for Inactive)
REMARK    1  A    between atoms: CA   and  CB  
REMARK    2  A    between atoms: CB   and  CG  
ROOT
ATOM      1  CA  PHE A  61     -36.237 128.293  12.768  1.00 39.40     0.164 C 
ENDROOT
BRANCH   1   2
ATOM      2  CB  PHE A  61     -36.813 128.951  11.509  1.00 39.41     0.058 C 
BRANCH   2   3
ATOM      3  CG  PHE A  61     -37.062 127.998  10.365  1.00 39.01    -0.020 A 
ATOM      4  CD2 PHE A  61     -36.289 126.858  10.207  1.00 40.32    -0.004 A 
ATOM      5  CE2 PHE A  61     -36.517 125.984   9.152  1.00 40.20    -0.000 A 
ATOM      6  CZ  PHE A  61     -37.522 126.236   8.246  1.00 40.34    -0.000 A 
ATOM      7  CE1 PHE A  61     -38.301 127.363   8.391  1.00 41.51    -0.000 A 
ATOM      8  CD1 PHE A  61     -38.069 128.241   9.441  1.00 39.94    -0.004 A 
ENDBRANCH   2   3
ENDBRANCH   1   2
END_RES PHE A  61
BEGIN_RES VAL A 134
REMARK  1 active torsions:
REMARK  status: ('A' for Active; 'I' for Inactive)
REMARK    3  A    between atoms: CA   and  CB  
ROOT
ATOM      9  CA  VAL A 134     -29.766 132.051   9.815  1.00 40.75     0.159 C 
ENDROOT
BRANCH   9  10
ATOM     10  CB  VAL A 134     -30.864 132.765   9.009  1.00 40.76     0.029 C 
ATOM     11  CG1 VAL A 134     -32.059 133.086   9.895  1.00 41.76     0.002 C 
ATOM     12  CG2 VAL A 134     -30.338 134.023   8.335  1.00 40.56     0.002 C 
ENDBRANCH   9  10
END_RES VAL A 134
BEGIN_RES TYR A 338
REMARK  3 active torsions:
REMARK  status: ('A' for Active; 'I' for Inactive)
REMARK    4  A    between atoms: CA   and  CB  
REMARK    5  A    between atoms: CB   and  CG  
REMARK    6  A    between atoms: CZ   and  OH  
ROOT
ATOM     13  CA  TYR A 338     -41.631 124.950   6.058  1.00 38.23     0.164 C 
ENDROOT
BRANCH  13  14
ATOM     14  CB  TYR A 338     -41.621 126.456   6.339  1.00 39.15     0.058 C 
BRANCH  14  15
ATOM     15  CG  TYR A 338     -40.410 127.209   5.839  1.00 39.03    -0.020 A 
ATOM     16  CD2 TYR A 338     -40.258 128.557   6.117  1.00 40.65    -0.002 A 
ATOM     17  CE2 TYR A 338     -39.168 129.282   5.661  1.00 40.91     0.024 A 
ATOM     18  CZ  TYR A 338     -38.196 128.656   4.904  1.00 42.33     0.089 A 
ATOM     19  CE1 TYR A 338     -38.322 127.308   4.617  1.00 40.63     0.024 A 
ATOM     20  CD1 TYR A 338     -39.427 126.604   5.071  1.00 39.27    -0.002 A 
BRANCH  18  21
ATOM     21  OH  TYR A 338     -37.114 129.360   4.452  1.00 43.36    -0.359 OA
ATOM     22  HH  TYR A 338     -36.516 128.971   3.825  1.00  0.00     0.217 HD
ENDBRANCH  18  21
ENDBRANCH  14  15
ENDBRANCH  13  14
END_RES TYR A 338
ENDMDL
MODEL 2
REMARK VINA RESULT:   -12.031      1.526      2.060
REMARK INTER + INTRA:         -12.079
REMARK INTER:                  -9.492
REMARK INTRA:                  -2.587
REMARK UNBOUND:                -0.048
REMARK  0 active torsions:
REMARK  status: ('A' for Active; 'I' for Inactive)
REMARK       I    between atoms: C3_3  and  O3_21 
REMARK       I    between atoms: C6_6  and  C7_7 
REMARK       I    between atoms: C8_8  and  C9_9 
REMARK       I    between atoms: C10_10  and  C11_11 
REMARK       I    between atoms: C12_12  and  C13_13 
REMARK       I    between atoms: C14_14  and  C15_15 
REMARK       I    between atoms: C23_25  and  O23_43 
REMARK       I    between atoms: C26_28  and  C27_29 
REMARK       I    between atoms: C28_30  and  C29_31 
REMARK       I    between atoms: C30_32  and  C31_33 
REMARK       I    between atoms: C32_34  and  C33_35 
REMARK       I    between atoms: C34_36  and  C35_37 
ROOT
HETATM    1  C1  8UH U1621     -34.409 127.004   6.443  1.00 20.50    -0.018 C 
HETATM    2  C2  8UH U1621     -34.250 126.725   4.954  1.00 20.50     0.045 C 
HETATM    3  C3  8UH U1621     -33.110 127.424   4.243  1.00 20.50     0.123 C 
HETATM    4  C4  8UH U1621     -32.028 127.779   5.234  1.00 20.50     0.066 C 
HETATM    5  C5  8UH U1621     -32.670 128.675   6.240  1.00 20.50    -0.074 C 
HETATM    6  C6  8UH U1621     -33.688 128.221   6.947  1.00 20.50    -0.048 C 
HETATM    7  C7  8UH U1621     -34.277 128.950   8.077  1.00 20.50     0.009 C 
HETATM    8  C8  8UH U1621     -34.315 130.279   8.036  1.00 20.50     0.007 C 
HETATM    9  C9  8UH U1621     -35.118 130.991   9.043  1.00 20.50    -0.062 C 
HETATM   10  C10 8UH U1621     -35.565 132.214   8.733  1.00 20.50     0.007 C 
HETATM   11  C11 8UH U1621     -36.493 132.970   9.566  1.00 20.50     0.001 C 
HETATM   12  C12 8UH U1621     -37.052 134.073   9.082  1.00 20.50     0.007 C 
HETATM   13  C13 8UH U1621     -38.055 134.829   9.854  1.00 20.50    -0.062 C 
HETATM   14  C14 8UH U1621     -38.689 135.837   9.240  1.00 20.50     0.007 C 
HETATM   15  C15 8UH U1621     -39.722 136.655   9.868  1.00 20.50     0.001 C 
HETATM   16  C16 8UH U1621     -33.827 125.850   7.239  1.00 20.50     0.020 C 
HETATM   17  C17 8UH U1621     -35.886 127.092   6.740  1.00 20.50     0.020 C 
HETATM   18  C18 8UH U1621     -31.589 129.486   6.861  1.00 20.50     0.044 C 
HETATM   19  C19 8UH U1621     -35.491 130.300  10.317  1.00 20.50     0.048 C 
HETATM   20  C20 8UH U1621     -38.338 134.422  11.266  1.00 20.50     0.048 C 
HETATM   21  O3  8UH U1621     -32.607 126.509   3.281  1.00 20.50    -0.395 OA
ATOM     22  H3  8UH U1621     -31.892 126.947   2.834  1.00  0.00     0.210 HD
HETATM   23  C21 8UH U1621     -48.618 145.676  12.097  1.00 21.49    -0.018 C 
HETATM   24  C22 8UH U1621     -49.542 146.295  13.159  1.00 20.69     0.045 C 
HETATM   25  C23 8UH U1621     -48.963 146.952  14.412  1.00 22.34     0.123 C 
HETATM   26  C24 8UH U1621     -47.431 147.117  14.429  1.00 20.89     0.066 C 
HETATM   27  C25 8UH U1621     -46.567 146.476  13.382  1.00 22.34    -0.074 C 
HETATM   28  C26 8UH U1621     -47.064 145.806  12.286  1.00 21.76    -0.048 C 
HETATM   29  C27 8UH U1621     -46.236 145.163  11.225  1.00 21.22     0.009 C 
HETATM   30  C28 8UH U1621     -45.640 143.935  11.302  1.00 19.00     0.007 C 
HETATM   31  C29 8UH U1621     -44.821 143.317  10.293  1.00 20.50    -0.062 C 
HETATM   32  C30 8UH U1621     -44.344 142.088  10.545  1.00 20.50     0.007 C 
HETATM   33  C31 8UH U1621     -43.468 141.344   9.650  1.00 20.50     0.001 C 
HETATM   34  C32 8UH U1621     -42.921 140.211  10.073  1.00 20.50     0.007 C 
HETATM   35  C33 8UH U1621     -41.962 139.465   9.245  1.00 20.50    -0.062 C 
HETATM   36  C34 8UH U1621     -41.331 138.431   9.821  1.00 20.50     0.007 C 
HETATM   37  C35 8UH U1621     -40.308 137.613   9.172  1.00 20.50     0.001 C 
HETATM   38  C36 8UH U1621     -49.066 146.388  10.800  1.00 20.30     0.020 C 
HETATM   39  C37 8UH U1621     -49.017 144.196  11.980  1.00 19.22     0.020 C 
HETATM   40  C38 8UH U1621     -45.139 146.713  13.706  1.00 22.01     0.044 C 
HETATM   41  C39 8UH U1621     -44.582 144.069   9.022  1.00 20.50     0.048 C 
HETATM   42  C40 8UH U1621     -41.697 139.931   7.849  1.00 20.50     0.048 C 
HETATM   43  O23 8UH U1621     -49.606 148.198  14.665  1.00 21.61    -0.395 OA
ATOM     44  H23 8UH U1621     -49.246 148.606  15.444  1.00  0.00     0.210 HD
ENDROOT
TORSDOF 12
BEGIN_RES PHE A  61
REMARK  2 active torsions:
REMARK  status: ('A' for Active; 'I' for Inactive)
REMARK    1  A    between atoms: CA   and  CB  
REMARK    2  A    between atoms: CB   and  CG  
ROOT
ATOM      1  CA  PHE A  61     -36.237 128.293  12.768  1.00 39.40     0.164 C 
ENDROOT
BRANCH   1   2
ATOM      2  CB  PHE A  61     -36.813 128.951  11.509  1.00 39.41     0.058 C 
BRANCH   2   3
ATOM      3  CG  PHE A  61     -37.094 127.992  10.377  1.00 39.01    -0.020 A 
ATOM      4  CD2 PHE A  61     -36.371 126.817  10.244  1.00 40.32    -0.004 A 
ATOM      5  CE2 PHE A  61     -36.629 125.937   9.199  1.00 40.20    -0.000 A 
ATOM      6  CZ  PHE A  61     -37.613 126.221   8.280  1.00 40.34    -0.000 A 
ATOM      7  CE1 PHE A  61     -38.341 127.384   8.399  1.00 41.51    -0.000 A 
ATOM      8  CD1 PHE A  61     -38.079 128.267   9.439  1.00 39.94    -0.004 A 
ENDBRANCH   2   3
ENDBRANCH   1   2
END_RES PHE A  61
BEGIN_RES VAL A 134
REMARK  1 active torsions:
REMARK  status: ('A' for Active; 'I' for Inactive)
REMARK    3  A    between atoms: CA   and  CB  
ROOT
ATOM      9  CA  VAL A 134     -29.766 132.051   9.815  1.00 40.75     0.159 C 
ENDROOT
BRANCH   9  10
ATOM     10  CB  VAL A 134     -30.864 132.765   9.009  1.00 40.76     0.029 C 
ATOM     11  CG1 VAL A 134     -31.096 132.065   7.678  1.00 41.76     0.002 C 
ATOM     12  CG2 VAL A 134     -32.160 132.870   9.797  1.00 40.56     0.002 C 
ENDBRANCH   9  10
END_RES VAL A 134
BEGIN_RES TYR A 338
REMARK  3 active torsions:
REMARK  status: ('A' for Active; 'I' for Inactive)
REMARK    4  A    between atoms: CA   and  CB  
REMARK    5  A    between atoms: CB   and  CG  
REMARK    6  A    between atoms: CZ   and  OH  
ROOT
ATOM     13  CA  TYR A 338     -41.631 124.950   6.058  1.00 38.23     0.164 C 
ENDROOT
BRANCH  13  14
ATOM     14  CB  TYR A 338     -41.621 126.456   6.339  1.00 39.15     0.058 C 
BRANCH  14  15
ATOM     15  CG  TYR A 338     -40.409 127.209   5.839  1.00 39.03    -0.020 A 
ATOM     16  CD2 TYR A 338     -40.233 128.544   6.159  1.00 40.65    -0.002 A 
ATOM     17  CE2 TYR A 338     -39.142 129.269   5.705  1.00 40.91     0.024 A 
ATOM     18  CZ  TYR A 338     -38.194 128.656   4.908  1.00 42.33     0.089 A 
ATOM     19  CE1 TYR A 338     -38.346 127.321   4.579  1.00 40.63     0.024 A 
ATOM     20  CD1 TYR A 338     -39.451 126.616   5.032  1.00 39.27    -0.002 A 
BRANCH  18  21
ATOM     21  OH  TYR A 338     -37.112 129.360   4.459  1.00 43.36    -0.359 OA
ATOM     22  HH  TYR A 338     -36.274 129.287   4.900  1.00  0.00     0.217 HD
ENDBRANCH  18  21
ENDBRANCH  14  15
ENDBRANCH  13  14
END_RES TYR A 338
ENDMDL
MODEL 3
REMARK VINA RESULT:   -10.774      0.733     16.855
REMARK INTER + INTRA:         -10.822
REMARK INTER:                 -10.484
REMARK INTRA:                  -0.338
REMARK UNBOUND:                -0.048
REMARK  0 active torsions:
REMARK  status: ('A' for Active; 'I' for Inactive)
REMARK       I    between atoms: C3_3  and  O3_21 
REMARK       I    between atoms: C6_6  and  C7_7 
REMARK       I    between atoms: C8_8  and  C9_9 
REMARK       I    between atoms: C10_10  and  C11_11 
REMARK       I    between atoms: C12_12  and  C13_13 
REMARK       I    between atoms: C14_14  and  C15_15 
REMARK       I    between atoms: C23_25  and  O23_43 
REMARK       I    between atoms: C26_28  and  C27_29 
REMARK       I    between atoms: C28_30  and  C29_31 
REMARK       I    between atoms: C30_32  and  C31_33 
REMARK       I    between atoms: C32_34  and  C33_35 
REMARK       I    between atoms: C34_36  and  C35_37 
ROOT
HETATM    1  C1  8UH U1621     -50.795 145.581   9.490  1.00 20.50    -0.018 C 
HETATM    2  C2  8UH U1621     -51.642 145.526  10.754  1.00 20.50     0.045 C 
HETATM    3  C3  8UH U1621     -51.133 146.296  11.955  1.00 20.50     0.123 C 
HETATM    4  C4  8UH U1621     -50.228 147.416  11.500  1.00 20.50     0.066 C 
HETATM    5  C5  8UH U1621     -49.108 146.764  10.759  1.00 20.50    -0.074 C 
HETATM    6  C6  8UH U1621     -49.381 146.047   9.686  1.00 20.50    -0.048 C 
HETATM    7  C7  8UH U1621     -48.350 145.511   8.788  1.00 20.50     0.009 C 
HETATM    8  C8  8UH U1621     -47.185 145.126   9.302  1.00 20.50     0.007 C 
HETATM    9  C9  8UH U1621     -46.255 144.370   8.449  1.00 20.50    -0.062 C 
HETATM   10  C10 8UH U1621     -45.363 143.575   9.051  1.00 20.50     0.007 C 
HETATM   11  C11 8UH U1621     -44.486 142.656   8.335  1.00 20.50     0.001 C 
HETATM   12  C12 8UH U1621     -43.792 141.753   9.017  1.00 20.50     0.007 C 
HETATM   13  C13 8UH U1621     -42.953 140.751   8.335  1.00 20.50    -0.062 C 
HETATM   14  C14 8UH U1621     -42.410 139.778   9.077  1.00 20.50     0.007 C 
HETATM   15  C15 8UH U1621     -41.581 138.705   8.537  1.00 20.50     0.001 C 
HETATM   16  C16 8UH U1621     -51.401 146.576   8.517  1.00 20.50     0.020 C 
HETATM   17  C17 8UH U1621     -50.828 144.213   8.855  1.00 20.50     0.020 C 
HETATM   18  C18 8UH U1621     -47.951 147.698  10.801  1.00 20.50     0.044 C 
HETATM   19  C19 8UH U1621     -46.400 144.430   6.960  1.00 20.50     0.048 C 
HETATM   20  C20 8UH U1621     -42.771 140.850   6.853  1.00 20.50     0.048 C 
HETATM   21  O3  8UH U1621     -52.274 146.829  12.612  1.00 20.50    -0.395 OA
ATOM     22  H3  8UH U1621     -51.954 147.312  13.366  1.00  0.00     0.210 HD
HETATM   23  C21 8UH U1621     -34.000 128.370   7.436  1.00 21.49    -0.018 C 
HETATM   24  C22 8UH U1621     -33.150 127.532   6.467  1.00 20.69     0.045 C 
HETATM   25  C23 8UH U1621     -31.946 128.145   5.753  1.00 22.34     0.123 C 
HETATM   26  C24 8UH U1621     -31.547 129.560   6.217  1.00 20.89     0.066 C 
HETATM   27  C25 8UH U1621     -32.420 130.349   7.149  1.00 22.34    -0.074 C 
HETATM   28  C26 8UH U1621     -33.557 129.845   7.741  1.00 21.76    -0.048 C 
HETATM   29  C27 8UH U1621     -34.444 130.599   8.674  1.00 21.22     0.009 C 
HETATM   30  C28 8UH U1621     -35.415 131.493   8.318  1.00 19.00     0.007 C 
HETATM   31  C29 8UH U1621     -36.259 132.241   9.212  1.00 20.50    -0.062 C 
HETATM   32  C30 8UH U1621     -37.176 133.054   8.667  1.00 20.50     0.007 C 
HETATM   33  C31 8UH U1621     -38.076 133.910   9.429  1.00 20.50     0.001 C 
HETATM   34  C32 8UH U1621     -38.825 134.797   8.786  1.00 20.50     0.007 C 
HETATM   35  C33 8UH U1621     -39.686 135.745   9.510  1.00 20.50    -0.062 C 
HETATM   36  C34 8UH U1621     -40.268 136.715   8.791  1.00 20.50     0.007 C 
HETATM   37  C35 8UH U1621     -41.109 137.774   9.347  1.00 20.50     0.001 C 
HETATM   38  C36 8UH U1621     -33.978 127.521   8.729  1.00 20.30     0.020 C 
HETATM   39  C37 8UH U1621     -35.436 128.349   6.888  1.00 19.22     0.020 C 
HETATM   40  C38 8UH U1621     -31.845 131.703   7.339  1.00 22.01     0.044 C 
HETATM   41  C39 8UH U1621     -36.080 132.038  10.684  1.00 20.50     0.048 C 
HETATM   42  C40 8UH U1621     -39.811 135.617  10.996  1.00 20.50     0.048 C 
HETATM   43  O23 8UH U1621     -30.829 127.264   5.810  1.00 21.61    -0.395 OA
ATOM     44  H23 8UH U1621     -30.080 127.645   5.366  1.00  0.00     0.210 HD
ENDROOT
TORSDOF 12
BEGIN_RES PHE A  61
REMARK  2 active torsions:
REMARK  status: ('A' for Active; 'I' for Inactive)
REMARK    1  A    between atoms: CA   and  CB  
REMARK    2  A    between atoms: CB   and  CG  
ROOT
ATOM      1  CA  PHE A  61     -36.237 128.293  12.768  1.00 39.40     0.164 C 
ENDROOT
BRANCH   1   2
ATOM      2  CB  PHE A  61     -36.813 128.951  11.509  1.00 39.41     0.058 C 
BRANCH   2   3
ATOM      3  CG  PHE A  61     -37.039 128.002  10.357  1.00 39.01    -0.020 A 
ATOM      4  CD2 PHE A  61     -36.312 126.826  10.250  1.00 40.32    -0.004 A 
ATOM      5  CE2 PHE A  61     -36.519 125.956   9.187  1.00 40.20    -0.000 A 
ATOM      6  CZ  PHE A  61     -37.456 126.248   8.223  1.00 40.34    -0.000 A 
ATOM      7  CE1 PHE A  61     -38.188 127.411   8.315  1.00 41.51    -0.000 A 
ATOM      8  CD1 PHE A  61     -37.977 128.285   9.374  1.00 39.94    -0.004 A 
ENDBRANCH   2   3
ENDBRANCH   1   2
END_RES PHE A  61
BEGIN_RES VAL A 134
REMARK  1 active torsions:
REMARK  status: ('A' for Active; 'I' for Inactive)
REMARK    3  A    between atoms: CA   and  CB  
ROOT
ATOM      9  CA  VAL A 134     -29.766 132.051   9.815  1.00 40.75     0.159 C 
ENDROOT
BRANCH   9  10
ATOM     10  CB  VAL A 134     -30.864 132.765   9.009  1.00 40.76     0.029 C 
ATOM     11  CG1 VAL A 134     -32.114 132.957   9.855  1.00 41.76     0.002 C 
ATOM     12  CG2 VAL A 134     -30.378 134.095   8.454  1.00 40.56     0.002 C 
ENDBRANCH   9  10
END_RES VAL A 134
BEGIN_RES TYR A 338
REMARK  3 active torsions:
REMARK  status: ('A' for Active; 'I' for Inactive)
REMARK    4  A    between atoms: CA   and  CB  
REMARK    5  A    between atoms: CB   and  CG  
REMARK    6  A    between atoms: CZ   and  OH  
ROOT
ATOM     13  CA  TYR A 338     -41.631 124.950   6.058  1.00 38.23     0.164 C 
ENDROOT
BRANCH  13  14
ATOM     14  CB  TYR A 338     -41.621 126.456   6.339  1.00 39.15     0.058 C 
BRANCH  14  15
ATOM     15  CG  TYR A 338     -40.409 127.209   5.839  1.00 39.03    -0.020 A 
ATOM     16  CD2 TYR A 338     -40.256 128.555   6.121  1.00 40.65    -0.002 A 
ATOM     17  CE2 TYR A 338     -39.165 129.280   5.665  1.00 40.91     0.024 A 
ATOM     18  CZ  TYR A 338     -38.195 128.656   4.905  1.00 42.33     0.089 A 
ATOM     19  CE1 TYR A 338     -38.324 127.309   4.614  1.00 40.63     0.024 A 
ATOM     20  CD1 TYR A 338     -39.429 126.605   5.068  1.00 39.27    -0.002 A 
BRANCH  18  21
ATOM     21  OH  TYR A 338     -37.113 129.360   4.454  1.00 43.36    -0.359 OA
ATOM     22  HH  TYR A 338     -36.650 129.952   5.034  1.00  0.00     0.217 HD
ENDBRANCH  18  21
ENDBRANCH  14  15
ENDBRANCH  13  14
END_RES TYR A 338
ENDMDL
