MODEL 1
REMARK VINA RESULT:    -9.128      0.000      0.000
REMARK INTER + INTRA:         -11.936
REMARK INTER:                  -9.128
REMARK INTRA:                  -2.808
REMARK UNBOUND:                -2.808
REMARK  0 active torsions:
REMARK  status: ('A' for Active; 'I' for Inactive)
REMARK       I    between atoms: C3_3  and  O3_21 
REMARK       I    between atoms: C6_6  and  C7_7 
REMARK       I    between atoms: C8_8  and  C9_9 
REMARK       I    between atoms: C10_10  and  C11_11 
REMARK       I    between atoms: C12_12  and  C13_13 
REMARK       I    between atoms: C14_14  and  C15_15 
REMARK       I    between atoms: C23_25  and  O23_43 
REMARK       I    between atoms: C26_28  and  C27_29 
REMARK       I    between atoms: C28_30  and  C29_31 
REMARK       I    between atoms: C30_32  and  C31_33 
REMARK       I    between atoms: C32_34  and  C33_35 
REMARK       I    between atoms: C34_36  and  C35_37 
ROOT
HETATM    1  C1  8UH 8 314     -34.387 126.794   6.329  1.00 73.63    -0.018 C 
HETATM    2  C2  8UH 8 314     -33.872 125.995   5.136  1.00 75.58     0.045 C 
HETATM    3  C3  8UH 8 314     -33.001 126.777   4.167  1.00 77.85     0.123 C 
HETATM    4  C4  8UH 8 314     -31.874 127.458   4.926  1.00 76.46     0.066 C 
HETATM    5  C5  8UH 8 314     -32.427 128.327   6.029  1.00 74.82    -0.074 C 
HETATM    6  C6  8UH 8 314     -33.541 128.000   6.696  1.00 72.89    -0.048 C 
HETATM    7  C7  8UH 8 314     -33.996 128.825   7.842  1.00 69.76     0.009 C 
HETATM    8  C8  8UH 8 314     -34.652 129.969   7.640  1.00 67.74     0.007 C 
HETATM    9  C9  8UH 8 314     -35.146 130.817   8.745  1.00 67.19    -0.062 C 
HETATM   10  C10 8UH 8 314     -35.885 131.886   8.422  1.00 64.55     0.007 C 
HETATM   11  C11 8UH 8 314     -36.472 132.817   9.384  1.00 61.91     0.001 C 
HETATM   12  C12 8UH 8 314     -37.334 133.688   8.866  1.00 60.53     0.007 C 
HETATM   13  C13 8UH 8 314     -38.069 134.705   9.640  1.00 59.33    -0.062 C 
HETATM   14  C14 8UH 8 314     -39.012 135.410   8.991  1.00 60.00     0.007 C 
HETATM   15  C15 8UH 8 314     -39.837 136.429   9.634  1.00 60.35     0.001 C 
HETATM   16  C16 8UH 8 314     -34.467 125.850   7.524  1.00 75.09     0.020 C 
HETATM   17  C17 8UH 8 314     -35.786 127.300   6.002  1.00 73.62     0.020 C 
HETATM   18  C18 8UH 8 314     -31.559 129.462   6.486  1.00 74.16     0.044 C 
HETATM   19  C19 8UH 8 314     -34.843 130.484  10.177  1.00 68.15     0.048 C 
HETATM   20  C20 8UH 8 314     -37.784 134.929  11.096  1.00 57.80     0.048 C 
HETATM   21  O3  8UH 8 314     -32.445 125.868   3.209  1.00 79.25    -0.395 OA
ATOM     22  H3  8UH 8 314     -31.901 126.357   2.603  1.00  0.00     0.210 HD
HETATM   23  C21 8UH 8 314     -49.374 144.510  11.865  1.00 73.56    -0.018 C 
HETATM   24  C22 8UH 8 314     -49.903 145.241  13.102  1.00 73.56     0.045 C 
HETATM   25  C23 8UH 8 314     -49.081 146.397  13.668  1.00 73.56     0.123 C 
HETATM   26  C24 8UH 8 314     -48.307 147.119  12.575  1.00 73.56     0.066 C 
HETATM   27  C25 8UH 8 314     -47.453 146.096  11.877  1.00 73.56    -0.074 C 
HETATM   28  C26 8UH 8 314     -48.005 144.977  11.392  1.00 73.56    -0.048 C 
HETATM   29  C27 8UH 8 314     -47.300 144.190  10.352  1.00 73.56     0.009 C 
HETATM   30  C28 8UH 8 314     -46.368 143.278  10.643  1.00 73.56     0.007 C 
HETATM   31  C29 8UH 8 314     -45.682 142.507   9.584  1.00 75.56    -0.062 C 
HETATM   32  C30 8UH 8 314     -44.951 141.443   9.950  1.00 73.06     0.007 C 
HETATM   33  C31 8UH 8 314     -44.221 140.590   9.013  1.00 70.20     0.001 C 
HETATM   34  C32 8UH 8 314     -43.392 139.709   9.567  1.00 68.68     0.007 C 
HETATM   35  C33 8UH 8 314     -42.556 138.738   8.834  1.00 66.05    -0.062 C 
HETATM   36  C34 8UH 8 314     -41.655 138.027   9.533  1.00 63.06     0.007 C 
HETATM   37  C35 8UH 8 314     -40.791 137.025   8.918  1.00 60.73     0.001 C 
HETATM   38  C36 8UH 8 314     -50.416 144.668  10.759  1.00 73.56     0.020 C 
HETATM   39  C37 8UH 8 314     -49.243 143.030  12.205  1.00 73.56     0.020 C 
HETATM   40  C38 8UH 8 314     -46.352 146.809  11.145  1.00 73.56     0.044 C 
HETATM   41  C39 8UH 8 314     -45.790 142.908   8.142  1.00 73.18     0.048 C 
HETATM   42  C40 8UH 8 314     -42.713 138.545   7.355  1.00 66.25     0.048 C 
HETATM   43  O23 8UH 8 314     -49.962 147.325  14.311  1.00 73.56    -0.395 OA
ATOM     44  H23 8UH 8 314     -49.451 148.044  14.664  1.00  0.00     0.210 HD
ENDROOT
TORSDOF 12
BEGIN_RES PHE A  61
REMARK  2 active torsions:
REMARK  status: ('A' for Active; 'I' for Inactive)
REMARK    1  A    between atoms: CA   and  CB  
REMARK    2  A    between atoms: CB   and  CG  
ROOT
ATOM      1  CA  PHE A  61     -36.237 128.293  12.768  1.00 39.40     0.164 C 
ENDROOT
BRANCH   1   2
ATOM      2  CB  PHE A  61     -36.813 128.951  11.509  1.00 39.41     0.058 C 
BRANCH   2   3
ATOM      3  CG  PHE A  61     -37.057 127.998  10.363  1.00 39.01    -0.020 A 
ATOM      4  CD2 PHE A  61     -36.349 126.812  10.261  1.00 40.32    -0.004 A 
ATOM      5  CE2 PHE A  61     -36.572 125.938   9.204  1.00 40.20    -0.000 A 
ATOM      6  CZ  PHE A  61     -37.509 126.238   8.242  1.00 40.34    -0.000 A 
ATOM      7  CE1 PHE A  61     -38.223 127.412   8.330  1.00 41.51    -0.000 A 
ATOM      8  CD1 PHE A  61     -37.995 128.290   9.383  1.00 39.94    -0.004 A 
ENDBRANCH   2   3
ENDBRANCH   1   2
END_RES PHE A  61
BEGIN_RES VAL A 134
REMARK  1 active torsions:
REMARK  status: ('A' for Active; 'I' for Inactive)
REMARK    3  A    between atoms: CA   and  CB  
ROOT
ATOM      9  CA  VAL A 134     -29.766 132.051   9.815  1.00 40.75     0.159 C 
ENDROOT
BRANCH   9  10
ATOM     10  CB  VAL A 134     -30.864 132.765   9.009  1.00 40.76     0.029 C 
ATOM     11  CG1 VAL A 134     -31.175 132.002   7.730  1.00 41.76     0.002 C 
ATOM     12  CG2 VAL A 134     -32.124 132.970   9.836  1.00 40.56     0.002 C 
ENDBRANCH   9  10
END_RES VAL A 134
BEGIN_RES TYR A 338
REMARK  3 active torsions:
REMARK  status: ('A' for Active; 'I' for Inactive)
REMARK    4  A    between atoms: CA   and  CB  
REMARK    5  A    between atoms: CB   and  CG  
REMARK    6  A    between atoms: CZ   and  OH  
ROOT
ATOM     13  CA  TYR A 338     -41.631 124.950   6.058  1.00 38.23     0.164 C 
ENDROOT
BRANCH  13  14
ATOM     14  CB  TYR A 338     -41.621 126.456   6.339  1.00 39.15     0.058 C 
BRANCH  14  15
ATOM     15  CG  TYR A 338     -40.423 127.214   5.814  1.00 39.03    -0.020 A 
ATOM     16  CD2 TYR A 338     -40.250 128.552   6.122  1.00 40.65    -0.002 A 
ATOM     17  CE2 TYR A 338     -39.172 129.282   5.645  1.00 40.91     0.024 A 
ATOM     18  CZ  TYR A 338     -38.234 128.670   4.835  1.00 42.33     0.089 A 
ATOM     19  CE1 TYR A 338     -38.383 127.331   4.516  1.00 40.63     0.024 A 
ATOM     20  CD1 TYR A 338     -39.475 126.623   4.993  1.00 39.27    -0.002 A 
BRANCH  18  21
ATOM     21  OH  TYR A 338     -37.165 129.378   4.362  1.00 43.36    -0.359 OA
ATOM     22  HH  TYR A 338     -36.396 129.507   4.905  1.00  0.00     0.217 HD
ENDBRANCH  18  21
ENDBRANCH  14  15
ENDBRANCH  13  14
END_RES TYR A 338
ENDMDL
MODEL 2
REMARK VINA RESULT:    -8.572      1.059     16.839
REMARK INTER + INTRA:         -11.380
REMARK INTER:                  -8.745
REMARK INTRA:                  -2.635
REMARK UNBOUND:                -2.808
REMARK  0 active torsions:
REMARK  status: ('A' for Active; 'I' for Inactive)
REMARK       I    between atoms: C3_3  and  O3_21 
REMARK       I    between atoms: C6_6  and  C7_7 
REMARK       I    between atoms: C8_8  and  C9_9 
REMARK       I    between atoms: C10_10  and  C11_11 
REMARK       I    between atoms: C12_12  and  C13_13 
REMARK       I    between atoms: C14_14  and  C15_15 
REMARK       I    between atoms: C23_25  and  O23_43 
REMARK       I    between atoms: C26_28  and  C27_29 
REMARK       I    between atoms: C28_30  and  C29_31 
REMARK       I    between atoms: C30_32  and  C31_33 
REMARK       I    between atoms: C32_34  and  C33_35 
REMARK       I    between atoms: C34_36  and  C35_37 
ROOT
HETATM    1  C1  8UH 8 314     -49.045 145.293  12.664  1.00 73.63    -0.018 C 
HETATM    2  C2  8UH 8 314     -49.778 145.866  13.872  1.00 75.58     0.045 C 
HETATM    3  C3  8UH 8 314     -48.883 146.491  14.929  1.00 77.85     0.123 C 
HETATM    4  C4  8UH 8 314     -47.963 147.514  14.283  1.00 76.46     0.066 C 
HETATM    5  C5  8UH 8 314     -47.172 146.882  13.164  1.00 74.82    -0.074 C 
HETATM    6  C6  8UH 8 314     -47.681 145.907  12.400  1.00 72.89    -0.048 C 
HETATM    7  C7  8UH 8 314     -46.913 145.384  11.244  1.00 69.76     0.009 C 
HETATM    8  C8  8UH 8 314     -45.929 144.500  11.425  1.00 67.74     0.007 C 
HETATM    9  C9  8UH 8 314     -45.148 143.931  10.307  1.00 67.19    -0.062 C 
HETATM   10  C10 8UH 8 314     -44.259 142.972  10.599  1.00 64.55     0.007 C 
HETATM   11  C11 8UH 8 314     -43.421 142.285   9.618  1.00 61.91     0.001 C 
HETATM   12  C12 8UH 8 314     -42.758 141.231  10.090  1.00 60.53     0.007 C 
HETATM   13  C13 8UH 8 314     -41.872 140.368   9.287  1.00 59.33    -0.062 C 
HETATM   14  C14 8UH 8 314     -41.394 139.259   9.877  1.00 60.00     0.007 C 
HETATM   15  C15 8UH 8 314     -40.529 138.297   9.198  1.00 60.35     0.001 C 
HETATM   16  C16 8UH 8 314     -49.934 145.490  11.441  1.00 75.09     0.020 C 
HETATM   17  C17 8UH 8 314     -48.837 143.801  12.891  1.00 73.62     0.020 C 
HETATM   18  C18 8UH 8 314     -45.870 147.538  12.810  1.00 74.16     0.044 C 
HETATM   19  C19 8UH 8 314     -45.353 144.398   8.896  1.00 68.15     0.048 C 
HETATM   20  C20 8UH 8 314     -41.534 140.709   7.866  1.00 57.80     0.048 C 
HETATM   21  O3  8UH 8 314     -49.707 147.144  15.904  1.00 79.25    -0.395 OA
ATOM     22  H3  8UH 8 314     -49.147 147.535  16.565  1.00  0.00     0.210 HD
HETATM   23  C21 8UH 8 314     -34.383 127.537   6.429  1.00 73.56    -0.018 C 
HETATM   24  C22 8UH 8 314     -33.717 126.966   5.175  1.00 73.56     0.045 C 
HETATM   25  C23 8UH 8 314     -32.399 127.582   4.709  1.00 73.56     0.123 C 
HETATM   26  C24 8UH 8 314     -31.588 128.114   5.881  1.00 73.56     0.066 C 
HETATM   27  C25 8UH 8 314     -32.453 129.101   6.616  1.00 73.56    -0.074 C 
HETATM   28  C26 8UH 8 314     -33.677 128.747   7.024  1.00 73.56    -0.048 C 
HETATM   29  C27 8UH 8 314     -34.355 129.516   8.096  1.00 73.56     0.009 C 
HETATM   30  C28 8UH 8 314     -35.054 130.629   7.855  1.00 73.56     0.007 C 
HETATM   31  C29 8UH 8 314     -35.721 131.375   8.944  1.00 75.56    -0.062 C 
HETATM   32  C30 8UH 8 314     -36.604 132.327   8.610  1.00 73.06     0.007 C 
HETATM   33  C31 8UH 8 314     -37.337 133.141   9.578  1.00 70.20     0.001 C 
HETATM   34  C32 8UH 8 314     -38.015 134.167   9.069  1.00 68.68     0.007 C 
HETATM   35  C33 8UH 8 314     -38.834 135.122   9.840  1.00 66.05    -0.062 C 
HETATM   36  C34 8UH 8 314     -39.324 136.196   9.196  1.00 63.06     0.007 C 
HETATM   37  C35 8UH 8 314     -40.163 137.194   9.851  1.00 60.73     0.001 C 
HETATM   38  C36 8UH 8 314     -34.480 126.406   7.452  1.00 73.56     0.020 C 
HETATM   39  C37 8UH 8 314     -35.792 127.984   6.060  1.00 73.56     0.020 C 
HETATM   40  C38 8UH 8 314     -31.570 129.981   7.454  1.00 73.56     0.044 C 
HETATM   41  C39 8UH 8 314     -35.412 131.083  10.384  1.00 73.18     0.048 C 
HETATM   42  C40 8UH 8 314     -39.117 134.899  11.296  1.00 66.25     0.048 C 
HETATM   43  O23 8UH 8 314     -31.635 126.583   4.023  1.00 73.56    -0.395 OA
ATOM     44  H23 8UH 8 314     -30.815 126.966   3.732  1.00  0.00     0.210 HD
ENDROOT
TORSDOF 12
BEGIN_RES PHE A  61
REMARK  2 active torsions:
REMARK  status: ('A' for Active; 'I' for Inactive)
REMARK    1  A    between atoms: CA   and  CB  
REMARK    2  A    between atoms: CB   and  CG  
ROOT
ATOM      1  CA  PHE A  61     -36.237 128.293  12.768  1.00 39.40     0.164 C 
ENDROOT
BRANCH   1   2
ATOM      2  CB  PHE A  61     -36.813 128.951  11.509  1.00 39.41     0.058 C 
BRANCH   2   3
ATOM      3  CG  PHE A  61     -37.030 128.004  10.353  1.00 39.01    -0.020 A 
ATOM      4  CD2 PHE A  61     -36.293 126.835  10.243  1.00 40.32    -0.004 A 
ATOM      5  CE2 PHE A  61     -36.491 125.966   9.178  1.00 40.20    -0.000 A 
ATOM      6  CZ  PHE A  61     -37.430 126.253   8.213  1.00 40.34    -0.000 A 
ATOM      7  CE1 PHE A  61     -38.172 127.409   8.309  1.00 41.51    -0.000 A 
ATOM      8  CD1 PHE A  61     -37.969 128.282   9.371  1.00 39.94    -0.004 A 
ENDBRANCH   2   3
ENDBRANCH   1   2
END_RES PHE A  61
BEGIN_RES VAL A 134
REMARK  1 active torsions:
REMARK  status: ('A' for Active; 'I' for Inactive)
REMARK    3  A    between atoms: CA   and  CB  
ROOT
ATOM      9  CA  VAL A 134     -29.766 132.051   9.815  1.00 40.75     0.159 C 
ENDROOT
BRANCH   9  10
ATOM     10  CB  VAL A 134     -30.864 132.765   9.009  1.00 40.76     0.029 C 
ATOM     11  CG1 VAL A 134     -30.850 132.308   7.558  1.00 41.76     0.002 C 
ATOM     12  CG2 VAL A 134     -32.238 132.558   9.627  1.00 40.56     0.002 C 
ENDBRANCH   9  10
END_RES VAL A 134
BEGIN_RES TYR A 338
REMARK  3 active torsions:
REMARK  status: ('A' for Active; 'I' for Inactive)
REMARK    4  A    between atoms: CA   and  CB  
REMARK    5  A    between atoms: CB   and  CG  
REMARK    6  A    between atoms: CZ   and  OH  
ROOT
ATOM     13  CA  TYR A 338     -41.631 124.950   6.058  1.00 38.23     0.164 C 
ENDROOT
BRANCH  13  14
ATOM     14  CB  TYR A 338     -41.621 126.456   6.339  1.00 39.15     0.058 C 
BRANCH  14  15
ATOM     15  CG  TYR A 338     -40.434 127.217   5.795  1.00 39.03    -0.020 A 
ATOM     16  CD2 TYR A 338     -40.260 128.556   6.100  1.00 40.65    -0.002 A 
ATOM     17  CE2 TYR A 338     -39.192 129.289   5.607  1.00 40.91     0.024 A 
ATOM     18  CZ  TYR A 338     -38.264 128.679   4.783  1.00 42.33     0.089 A 
ATOM     19  CE1 TYR A 338     -38.413 127.341   4.468  1.00 40.63     0.024 A 
ATOM     20  CD1 TYR A 338     -39.496 126.629   4.961  1.00 39.27    -0.002 A 
BRANCH  18  21
ATOM     21  OH  TYR A 338     -37.204 129.391   4.294  1.00 43.36    -0.359 OA
ATOM     22  HH  TYR A 338     -37.231 130.341   4.274  1.00  0.00     0.217 HD
ENDBRANCH  18  21
ENDBRANCH  14  15
ENDBRANCH  13  14
END_RES TYR A 338
ENDMDL
