MODEL 1
REMARK VINA RESULT:   -10.097      0.000      0.000
REMARK INTER + INTRA:         -12.368
REMARK INTER:                 -10.097
REMARK INTRA:                  -2.271
REMARK UNBOUND:                -2.271
REMARK  0 active torsions:
REMARK  status: ('A' for Active; 'I' for Inactive)
REMARK       I    between atoms: C3_3  and  O3_21 
REMARK       I    between atoms: C6_6  and  C7_7 
REMARK       I    between atoms: C8_8  and  C9_9 
REMARK       I    between atoms: C10_10  and  C11_11 
REMARK       I    between atoms: C12_12  and  C13_13 
REMARK       I    between atoms: C14_14  and  C15_15 
REMARK       I    between atoms: C23_25  and  O23_43 
REMARK       I    between atoms: C26_28  and  C27_29 
REMARK       I    between atoms: C28_30  and  C29_31 
REMARK       I    between atoms: C30_32  and  C31_33 
REMARK       I    between atoms: C32_34  and  C33_35 
REMARK       I    between atoms: C34_36  and  C35_37 
ROOT
HETATM    1  C1  8UH n1620     -49.487 143.959  12.454  1.00 57.79    -0.018 C 
HETATM    2  C2  8UH n1620     -50.245 144.707  13.536  1.00 59.26     0.045 C 
HETATM    3  C3  8UH n1620     -49.343 145.438  14.506  1.00 62.25     0.123 C 
HETATM    4  C4  8UH n1620     -48.523 146.450  13.747  1.00 57.83     0.066 C 
HETATM    5  C5  8UH n1620     -47.798 145.815  12.593  1.00 54.66    -0.074 C 
HETATM    6  C6  8UH n1620     -48.229 144.686  11.989  1.00 55.29    -0.048 C 
HETATM    7  C7  8UH n1620     -47.506 144.150  10.805  1.00 55.61     0.009 C 
HETATM    8  C8  8UH n1620     -46.445 143.348  10.907  1.00 56.19     0.007 C 
HETATM    9  C9  8UH n1620     -45.734 142.815   9.747  1.00 61.49    -0.062 C 
HETATM   10  C10 8UH n1620     -44.748 141.970  10.028  1.00 57.47     0.007 C 
HETATM   11  C11 8UH n1620     -43.920 141.312   9.041  1.00 53.29     0.001 C 
HETATM   12  C12 8UH n1620     -43.088 140.431   9.565  1.00 52.45     0.007 C 
HETATM   13  C13 8UH n1620     -42.189 139.630   8.739  1.00 52.04    -0.062 C 
HETATM   14  C14 8UH n1620     -41.587 138.606   9.341  1.00 54.29     0.007 C 
HETATM   15  C15 8UH n1620     -40.698 137.698   8.645  1.00 53.12     0.001 C 
HETATM   16  C16 8UH n1620     -50.502 143.707  11.344  1.00 58.39     0.020 C 
HETATM   17  C17 8UH n1620     -49.051 142.612  13.008  1.00 64.45     0.020 C 
HETATM   18  C18 8UH n1620     -46.579 146.582  12.169  1.00 58.11     0.044 C 
HETATM   19  C19 8UH n1620     -46.092 143.222   8.347  1.00 70.55     0.048 C 
HETATM   20  C20 8UH n1620     -41.987 139.948   7.292  1.00 53.04     0.048 C 
HETATM   21  O3  8UH n1620     -50.132 146.134  15.471  1.00 65.91    -0.395 OA
ATOM     22  H3  8UH n1620     -49.566 146.593  16.080  1.00  0.00     0.210 HD
HETATM   23  C21 8UH n1620     -34.275 127.006   6.699  1.00 13.75    -0.018 C 
HETATM   24  C22 8UH n1620     -33.644 126.079   5.670  1.00 13.75     0.045 C 
HETATM   25  C23 8UH n1620     -32.985 126.809   4.524  1.00 13.75     0.123 C 
HETATM   26  C24 8UH n1620     -31.949 127.745   5.089  1.00 13.75     0.066 C 
HETATM   27  C25 8UH n1620     -32.613 128.731   6.005  1.00 13.75    -0.074 C 
HETATM   28  C26 8UH n1620     -33.640 128.385   6.799  1.00 13.75    -0.048 C 
HETATM   29  C27 8UH n1620     -34.187 129.289   7.850  1.00 13.75     0.009 C 
HETATM   30  C28 8UH n1620     -35.024 130.311   7.628  1.00 13.75     0.007 C 
HETATM   31  C29 8UH n1620     -35.549 131.139   8.721  1.00 71.47    -0.062 C 
HETATM   32  C30 8UH n1620     -36.516 131.985   8.378  1.00 69.97     0.007 C 
HETATM   33  C31 8UH n1620     -37.203 132.881   9.288  1.00 65.68     0.001 C 
HETATM   34  C32 8UH n1620     -38.004 133.739   8.686  1.00 62.75     0.007 C 
HETATM   35  C33 8UH n1620     -38.818 134.710   9.421  1.00 61.08    -0.062 C 
HETATM   36  C34 8UH n1620     -39.432 135.658   8.709  1.00 59.90     0.007 C 
HETATM   37  C35 8UH n1620     -40.295 136.642   9.333  1.00 55.64     0.001 C 
HETATM   38  C36 8UH n1620     -34.207 126.273   8.031  1.00 13.75     0.020 C 
HETATM   39  C37 8UH n1620     -35.729 127.215   6.311  1.00 13.75     0.020 C 
HETATM   40  C38 8UH n1620     -31.843 130.000   6.163  1.00 13.75     0.044 C 
HETATM   41  C39 8UH n1620     -35.035 131.030  10.123  1.00 74.91     0.048 C 
HETATM   42  C40 8UH n1620     -38.967 134.609  10.907  1.00 55.73     0.048 C 
HETATM   43  O23 8UH n1620     -32.344 125.872   3.658  1.00 13.75    -0.395 OA
ATOM     44  H23 8UH n1620     -32.998 125.281   3.301  1.00  0.00     0.210 HD
ENDROOT
TORSDOF 12
BEGIN_RES PHE A  61
REMARK  2 active torsions:
REMARK  status: ('A' for Active; 'I' for Inactive)
REMARK    1  A    between atoms: CA   and  CB  
REMARK    2  A    between atoms: CB   and  CG  
ROOT
ATOM      1  CA  PHE A  61     -36.237 128.293  12.768  1.00 39.40     0.164 C 
ENDROOT
BRANCH   1   2
ATOM      2  CB  PHE A  61     -36.813 128.951  11.509  1.00 39.41     0.058 C 
BRANCH   2   3
ATOM      3  CG  PHE A  61     -37.086 127.994  10.374  1.00 39.01    -0.020 A 
ATOM      4  CD2 PHE A  61     -37.970 128.326   9.359  1.00 40.32    -0.004 A 
ATOM      5  CE2 PHE A  61     -38.223 127.443   8.317  1.00 40.20    -0.000 A 
ATOM      6  CZ  PHE A  61     -37.593 126.220   8.276  1.00 40.34    -0.000 A 
ATOM      7  CE1 PHE A  61     -36.710 125.875   9.275  1.00 41.51    -0.000 A 
ATOM      8  CD1 PHE A  61     -36.462 126.755  10.320  1.00 39.94    -0.004 A 
ENDBRANCH   2   3
ENDBRANCH   1   2
END_RES PHE A  61
BEGIN_RES VAL A 134
REMARK  1 active torsions:
REMARK  status: ('A' for Active; 'I' for Inactive)
REMARK    3  A    between atoms: CA   and  CB  
ROOT
ATOM      9  CA  VAL A 134     -29.766 132.051   9.815  1.00 40.75     0.159 C 
ENDROOT
BRANCH   9  10
ATOM     10  CB  VAL A 134     -30.864 132.765   9.009  1.00 40.76     0.029 C 
ATOM     11  CG1 VAL A 134     -31.178 131.999   7.732  1.00 41.76     0.002 C 
ATOM     12  CG2 VAL A 134     -32.122 132.974   9.837  1.00 40.56     0.002 C 
ENDBRANCH   9  10
END_RES VAL A 134
BEGIN_RES TYR A 338
REMARK  3 active torsions:
REMARK  status: ('A' for Active; 'I' for Inactive)
REMARK    4  A    between atoms: CA   and  CB  
REMARK    5  A    between atoms: CB   and  CG  
REMARK    6  A    between atoms: CZ   and  OH  
ROOT
ATOM     13  CA  TYR A 338     -41.631 124.950   6.058  1.00 38.23     0.164 C 
ENDROOT
BRANCH  13  14
ATOM     14  CB  TYR A 338     -41.621 126.456   6.339  1.00 39.15     0.058 C 
BRANCH  14  15
ATOM     15  CG  TYR A 338     -40.419 127.212   5.822  1.00 39.03    -0.020 A 
ATOM     16  CD2 TYR A 338     -40.255 128.555   6.117  1.00 40.65    -0.002 A 
ATOM     17  CE2 TYR A 338     -39.173 129.283   5.646  1.00 40.91     0.024 A 
ATOM     18  CZ  TYR A 338     -38.222 128.665   4.857  1.00 42.33     0.089 A 
ATOM     19  CE1 TYR A 338     -38.361 127.322   4.552  1.00 40.63     0.024 A 
ATOM     20  CD1 TYR A 338     -39.457 126.615   5.022  1.00 39.27    -0.002 A 
BRANCH  18  21
ATOM     21  OH  TYR A 338     -37.148 129.372   4.391  1.00 43.36    -0.359 OA
ATOM     22  HH  TYR A 338     -37.031 130.283   4.634  1.00  0.00     0.217 HD
ENDBRANCH  18  21
ENDBRANCH  14  15
ENDBRANCH  13  14
END_RES TYR A 338
ENDMDL
MODEL 2
REMARK VINA RESULT:    -8.403      0.815     16.614
REMARK INTER + INTRA:         -10.674
REMARK INTER:                  -7.918
REMARK INTRA:                  -2.756
REMARK UNBOUND:                -2.271
REMARK  0 active torsions:
REMARK  status: ('A' for Active; 'I' for Inactive)
REMARK       I    between atoms: C3_3  and  O3_21 
REMARK       I    between atoms: C6_6  and  C7_7 
REMARK       I    between atoms: C8_8  and  C9_9 
REMARK       I    between atoms: C10_10  and  C11_11 
REMARK       I    between atoms: C12_12  and  C13_13 
REMARK       I    between atoms: C14_14  and  C15_15 
REMARK       I    between atoms: C23_25  and  O23_43 
REMARK       I    between atoms: C26_28  and  C27_29 
REMARK       I    between atoms: C28_30  and  C29_31 
REMARK       I    between atoms: C30_32  and  C31_33 
REMARK       I    between atoms: C32_34  and  C33_35 
REMARK       I    between atoms: C34_36  and  C35_37 
ROOT
HETATM    1  C1  8UH n1620     -34.510 126.808   6.153  1.00 57.79    -0.018 C 
HETATM    2  C2  8UH n1620     -33.810 125.950   5.114  1.00 59.26     0.045 C 
HETATM    3  C3  8UH n1620     -32.946 126.746   4.161  1.00 62.25     0.123 C 
HETATM    4  C4  8UH n1620     -31.878 127.462   4.948  1.00 57.83     0.066 C 
HETATM    5  C5  8UH n1620     -32.472 128.277   6.064  1.00 54.66    -0.074 C 
HETATM    6  C6  8UH n1620     -33.665 127.986   6.629  1.00 55.29    -0.048 C 
HETATM    7  C7  8UH n1620     -34.162 128.788   7.778  1.00 55.61     0.009 C 
HETATM    8  C8  8UH n1620     -34.836 129.930   7.627  1.00 56.19     0.007 C 
HETATM    9  C9  8UH n1620     -35.331 130.718   8.753  1.00 61.49    -0.062 C 
HETATM   10  C10 8UH n1620     -36.048 131.787   8.422  1.00 57.47     0.007 C 
HETATM   11  C11 8UH n1620     -36.647 132.703   9.368  1.00 53.29     0.001 C 
HETATM   12  C12 8UH n1620     -37.408 133.617   8.797  1.00 52.45     0.007 C 
HETATM   13  C13 8UH n1620     -38.134 134.616   9.575  1.00 52.04    -0.062 C 
HETATM   14  C14 8UH n1620     -39.061 135.316   8.922  1.00 54.29     0.007 C 
HETATM   15  C15 8UH n1620     -39.889 136.315   9.567  1.00 53.12     0.001 C 
HETATM   16  C16 8UH n1620     -34.917 125.850   7.267  1.00 58.39     0.020 C 
HETATM   17  C17 8UH n1620     -35.777 127.381   5.538  1.00 64.45     0.020 C 
HETATM   18  C18 8UH n1620     -31.591 129.411   6.501  1.00 58.11     0.044 C 
HETATM   19  C19 8UH n1620     -35.021 130.345  10.173  1.00 70.55     0.048 C 
HETATM   20  C20 8UH n1620     -37.852 134.810  11.030  1.00 53.04     0.048 C 
HETATM   21  O3  8UH n1620     -32.305 125.864   3.238  1.00 65.91    -0.395 OA
ATOM     22  H3  8UH n1620     -31.763 126.364   2.639  1.00  0.00     0.210 HD
HETATM   23  C21 8UH n1620     -49.861 143.927  10.974  1.00 13.75    -0.018 C 
HETATM   24  C22 8UH n1620     -50.751 144.677  11.955  1.00 13.75     0.045 C 
HETATM   25  C23 8UH n1620     -49.996 145.274  13.119  1.00 13.75     0.123 C 
HETATM   26  C24 8UH n1620     -48.929 146.188  12.577  1.00 13.75     0.066 C 
HETATM   27  C25 8UH n1620     -47.989 145.400  11.713  1.00 13.75    -0.074 C 
HETATM   28  C26 8UH n1620     -48.416 144.401  10.921  1.00 13.75    -0.048 C 
HETATM   29  C27 8UH n1620     -47.539 143.737   9.917  1.00 13.75     0.009 C 
HETATM   30  C28 8UH n1620     -46.627 142.795  10.193  1.00 13.75     0.007 C 
HETATM   31  C29 8UH n1620     -45.821 142.160   9.143  1.00 71.47    -0.062 C 
HETATM   32  C30 8UH n1620     -45.103 141.111   9.536  1.00 69.97     0.007 C 
HETATM   33  C31 8UH n1620     -44.255 140.311   8.674  1.00 65.68     0.001 C 
HETATM   34  C32 8UH n1620     -43.516 139.431   9.322  1.00 62.75     0.007 C 
HETATM   35  C33 8UH n1620     -42.615 138.500   8.641  1.00 61.08    -0.062 C 
HETATM   36  C34 8UH n1620     -41.771 137.798   9.400  1.00 59.90     0.007 C 
HETATM   37  C35 8UH n1620     -40.866 136.819   8.830  1.00 55.64     0.001 C 
HETATM   38  C36 8UH n1620     -50.529 144.049   9.613  1.00 13.75     0.020 C 
HETATM   39  C37 8UH n1620     -49.831 142.466  11.393  1.00 13.75     0.020 C 
HETATM   40  C38 8UH n1620     -46.636 146.020  11.595  1.00 13.75     0.044 C 
HETATM   41  C39 8UH n1620     -45.817 142.655   7.731  1.00 74.91     0.048 C 
HETATM   42  C40 8UH n1620     -42.674 138.334   7.154  1.00 55.73     0.048 C 
HETATM   43  O23 8UH n1620     -50.889 146.032  13.937  1.00 13.75    -0.395 OA
ATOM     44  H23 8UH n1620     -51.563 145.456  14.279  1.00  0.00     0.210 HD
ENDROOT
TORSDOF 12
BEGIN_RES PHE A  61
REMARK  2 active torsions:
REMARK  status: ('A' for Active; 'I' for Inactive)
REMARK    1  A    between atoms: CA   and  CB  
REMARK    2  A    between atoms: CB   and  CG  
ROOT
ATOM      1  CA  PHE A  61     -36.237 128.293  12.768  1.00 39.40     0.164 C 
ENDROOT
BRANCH   1   2
ATOM      2  CB  PHE A  61     -36.813 128.951  11.509  1.00 39.41     0.058 C 
BRANCH   2   3
ATOM      3  CG  PHE A  61     -37.046 128.000  10.359  1.00 39.01    -0.020 A 
ATOM      4  CD2 PHE A  61     -36.324 126.822  10.252  1.00 40.32    -0.004 A 
ATOM      5  CE2 PHE A  61     -36.538 125.950   9.192  1.00 40.20    -0.000 A 
ATOM      6  CZ  PHE A  61     -37.478 126.244   8.230  1.00 40.34    -0.000 A 
ATOM      7  CE1 PHE A  61     -38.205 127.409   8.324  1.00 41.51    -0.000 A 
ATOM      8  CD1 PHE A  61     -37.987 128.285   9.380  1.00 39.94    -0.004 A 
ENDBRANCH   2   3
ENDBRANCH   1   2
END_RES PHE A  61
BEGIN_RES VAL A 134
REMARK  1 active torsions:
REMARK  status: ('A' for Active; 'I' for Inactive)
REMARK    3  A    between atoms: CA   and  CB  
ROOT
ATOM      9  CA  VAL A 134     -29.766 132.051   9.815  1.00 40.75     0.159 C 
ENDROOT
BRANCH   9  10
ATOM     10  CB  VAL A 134     -30.864 132.765   9.009  1.00 40.76     0.029 C 
ATOM     11  CG1 VAL A 134     -30.928 132.223   7.589  1.00 41.76     0.002 C 
ATOM     12  CG2 VAL A 134     -32.220 132.657   9.690  1.00 40.56     0.002 C 
ENDBRANCH   9  10
END_RES VAL A 134
BEGIN_RES TYR A 338
REMARK  3 active torsions:
REMARK  status: ('A' for Active; 'I' for Inactive)
REMARK    4  A    between atoms: CA   and  CB  
REMARK    5  A    between atoms: CB   and  CG  
REMARK    6  A    between atoms: CZ   and  OH  
ROOT
ATOM     13  CA  TYR A 338     -41.631 124.950   6.058  1.00 38.23     0.164 C 
ENDROOT
BRANCH  13  14
ATOM     14  CB  TYR A 338     -41.621 126.456   6.339  1.00 39.15     0.058 C 
BRANCH  14  15
ATOM     15  CG  TYR A 338     -40.424 127.214   5.812  1.00 39.03    -0.020 A 
ATOM     16  CD2 TYR A 338     -40.245 128.549   6.130  1.00 40.65    -0.002 A 
ATOM     17  CE2 TYR A 338     -39.168 129.279   5.651  1.00 40.91     0.024 A 
ATOM     18  CZ  TYR A 338     -38.237 128.671   4.830  1.00 42.33     0.089 A 
ATOM     19  CE1 TYR A 338     -38.393 127.336   4.501  1.00 40.63     0.024 A 
ATOM     20  CD1 TYR A 338     -39.484 126.627   4.980  1.00 39.27    -0.002 A 
BRANCH  18  21
ATOM     21  OH  TYR A 338     -37.169 129.380   4.355  1.00 43.36    -0.359 OA
ATOM     22  HH  TYR A 338     -37.023 130.275   4.637  1.00  0.00     0.217 HD
ENDBRANCH  18  21
ENDBRANCH  14  15
ENDBRANCH  13  14
END_RES TYR A 338
ENDMDL
