MODEL 1
REMARK VINA RESULT:   -10.629      0.000      0.000
REMARK INTER + INTRA:         -13.305
REMARK INTER:                 -10.629
REMARK INTRA:                  -2.676
REMARK UNBOUND:                -2.676
REMARK  0 active torsions:
REMARK  status: ('A' for Active; 'I' for Inactive)
REMARK       I    between atoms: C3_3  and  O3_21 
REMARK       I    between atoms: C6_6  and  C7_7 
REMARK       I    between atoms: C8_8  and  C9_9 
REMARK       I    between atoms: C10_10  and  C11_11 
REMARK       I    between atoms: C12_12  and  C13_13 
REMARK       I    between atoms: C14_14  and  C15_15 
REMARK       I    between atoms: C23_25  and  O23_43 
REMARK       I    between atoms: C26_28  and  C27_29 
REMARK       I    between atoms: C28_30  and  C29_31 
REMARK       I    between atoms: C30_32  and  C31_33 
REMARK       I    between atoms: C32_34  and  C33_35 
REMARK       I    between atoms: C34_36  and  C35_37 
ROOT
HETATM    1  C1  8UH I8620     -49.294 144.620  12.778  1.00 16.69    -0.018 C 
HETATM    2  C2  8UH I8620     -49.810 145.391  14.003  1.00 15.88     0.045 C 
HETATM    3  C3  8UH I8620     -48.927 146.476  14.602  1.00 15.19     0.123 C 
HETATM    4  C4  8UH I8620     -48.031 147.199  13.593  1.00 16.30     0.066 C 
HETATM    5  C5  8UH I8620     -47.484 146.413  12.445  1.00 15.97    -0.074 C 
HETATM    6  C6  8UH I8620     -48.047 145.221  12.054  1.00 16.56    -0.048 C 
HETATM    7  C7  8UH I8620     -47.485 144.459  10.937  1.00 18.44     0.009 C 
HETATM    8  C8  8UH I8620     -46.388 143.684  10.976  1.00 18.42     0.007 C 
HETATM    9  C9  8UH I8620     -45.759 143.028   9.842  1.00 20.59    -0.062 C 
HETATM   10  C10 8UH I8620     -44.721 142.202  10.091  1.00 20.51     0.007 C 
HETATM   11  C11 8UH I8620     -43.978 141.456   9.124  1.00 21.63     0.001 C 
HETATM   12  C12 8UH I8620     -43.097 140.533   9.523  1.00 21.98     0.007 C 
HETATM   13  C13 8UH I8620     -42.276 139.649   8.698  1.00 23.28    -0.062 C 
HETATM   14  C14 8UH I8620     -41.547 138.713   9.345  1.00 23.72     0.007 C 
HETATM   15  C15 8UH I8620     -40.728 137.679   8.776  1.00 25.53     0.001 C 
HETATM   16  C16 8UH I8620     -50.502 144.596  11.824  1.00 15.77     0.020 C 
HETATM   17  C17 8UH I8620     -49.029 143.169  13.226  1.00 17.40     0.020 C 
HETATM   18  C18 8UH I8620     -46.308 147.142  11.897  1.00 16.04     0.044 C 
HETATM   19  C19 8UH I8620     -46.345 143.275   8.475  1.00 19.43     0.048 C 
HETATM   20  C20 8UH I8620     -42.357 139.795   7.202  1.00 18.80     0.048 C 
HETATM   21  O3  8UH I8620     -49.721 147.413  15.302  1.00 16.64    -0.395 OA
ATOM     22  H3  8UH I8620     -49.169 148.089  15.677  1.00  0.00     0.210 HD
HETATM   23  C21 8UH I8620     -34.414 126.853   6.399  1.00 19.63    -0.018 C 
HETATM   24  C22 8UH I8620     -33.994 126.112   5.133  1.00 19.63     0.045 C 
HETATM   25  C23 8UH I8620     -33.037 126.827   4.192  1.00 19.63     0.123 C 
HETATM   26  C24 8UH I8620     -32.018 127.619   4.981  1.00 19.63     0.066 C 
HETATM   27  C25 8UH I8620     -32.790 128.623   5.780  1.00 19.63    -0.074 C 
HETATM   28  C26 8UH I8620     -33.767 128.214   6.594  1.00 19.63    -0.048 C 
HETATM   29  C27 8UH I8620     -34.232 129.043   7.735  1.00 19.63     0.009 C 
HETATM   30  C28 8UH I8620     -35.071 130.069   7.580  1.00 19.63     0.007 C 
HETATM   31  C29 8UH I8620     -35.574 130.904   8.718  1.00 33.65    -0.062 C 
HETATM   32  C30 8UH I8620     -36.422 131.911   8.418  1.00 30.63     0.007 C 
HETATM   33  C31 8UH I8620     -37.076 132.802   9.340  1.00 28.70     0.001 C 
HETATM   34  C32 8UH I8620     -37.873 133.804   8.912  1.00 25.67     0.007 C 
HETATM   35  C33 8UH I8620     -38.610 134.800   9.692  1.00 24.63    -0.062 C 
HETATM   36  C34 8UH I8620     -39.311 135.734   9.017  1.00 23.98     0.007 C 
HETATM   37  C35 8UH I8620     -40.094 136.805   9.566  1.00 25.49     0.001 C 
HETATM   38  C36 8UH I8620     -34.124 125.935   7.581  1.00 19.63     0.020 C 
HETATM   39  C37 8UH I8620     -35.912 127.084   6.324  1.00 19.63     0.020 C 
HETATM   40  C38 8UH I8620     -31.794 129.668   6.173  1.00 19.63     0.044 C 
HETATM   41  C39 8UH I8620     -35.109 130.584  10.116  1.00 33.66     0.048 C 
HETATM   42  C40 8UH I8620     -38.519 134.731  11.182  1.00 25.13     0.048 C 
HETATM   43  O23 8UH I8620     -32.360 125.850   3.398  1.00 19.63    -0.395 OA
ATOM     44  H23 8UH I8620     -31.761 126.297   2.810  1.00  0.00     0.210 HD
ENDROOT
TORSDOF 12
BEGIN_RES PHE A  61
REMARK  2 active torsions:
REMARK  status: ('A' for Active; 'I' for Inactive)
REMARK    1  A    between atoms: CA   and  CB  
REMARK    2  A    between atoms: CB   and  CG  
ROOT
ATOM      1  CA  PHE A  61     -36.237 128.293  12.768  1.00 39.40     0.164 C 
ENDROOT
BRANCH   1   2
ATOM      2  CB  PHE A  61     -36.813 128.951  11.509  1.00 39.41     0.058 C 
BRANCH   2   3
ATOM      3  CG  PHE A  61     -37.080 127.995  10.371  1.00 39.01    -0.020 A 
ATOM      4  CD2 PHE A  61     -38.053 128.269   9.424  1.00 40.32    -0.004 A 
ATOM      5  CE2 PHE A  61     -38.300 127.387   8.380  1.00 40.20    -0.000 A 
ATOM      6  CZ  PHE A  61     -37.574 126.223   8.269  1.00 40.34    -0.000 A 
ATOM      7  CE1 PHE A  61     -36.602 125.936   9.201  1.00 41.51    -0.000 A 
ATOM      8  CD1 PHE A  61     -36.359 126.815  10.249  1.00 39.94    -0.004 A 
ENDBRANCH   2   3
ENDBRANCH   1   2
END_RES PHE A  61
BEGIN_RES VAL A 134
REMARK  1 active torsions:
REMARK  status: ('A' for Active; 'I' for Inactive)
REMARK    3  A    between atoms: CA   and  CB  
ROOT
ATOM      9  CA  VAL A 134     -29.766 132.051   9.815  1.00 40.75     0.159 C 
ENDROOT
BRANCH   9  10
ATOM     10  CB  VAL A 134     -30.864 132.765   9.009  1.00 40.76     0.029 C 
ATOM     11  CG1 VAL A 134     -31.162 132.012   7.721  1.00 41.76     0.002 C 
ATOM     12  CG2 VAL A 134     -32.130 132.953   9.830  1.00 40.56     0.002 C 
ENDBRANCH   9  10
END_RES VAL A 134
BEGIN_RES TYR A 338
REMARK  3 active torsions:
REMARK  status: ('A' for Active; 'I' for Inactive)
REMARK    4  A    between atoms: CA   and  CB  
REMARK    5  A    between atoms: CB   and  CG  
REMARK    6  A    between atoms: CZ   and  OH  
ROOT
ATOM     13  CA  TYR A 338     -41.631 124.950   6.058  1.00 38.23     0.164 C 
ENDROOT
BRANCH  13  14
ATOM     14  CB  TYR A 338     -41.621 126.456   6.339  1.00 39.15     0.058 C 
BRANCH  14  15
ATOM     15  CG  TYR A 338     -40.415 127.211   5.828  1.00 39.03    -0.020 A 
ATOM     16  CD2 TYR A 338     -40.236 128.545   6.150  1.00 40.65    -0.002 A 
ATOM     17  CE2 TYR A 338     -39.151 129.272   5.686  1.00 40.91     0.024 A 
ATOM     18  CZ  TYR A 338     -38.211 128.662   4.877  1.00 42.33     0.089 A 
ATOM     19  CE1 TYR A 338     -38.365 127.327   4.546  1.00 40.63     0.024 A 
ATOM     20  CD1 TYR A 338     -39.465 126.621   5.009  1.00 39.27    -0.002 A 
BRANCH  18  21
ATOM     21  OH  TYR A 338     -37.134 129.368   4.418  1.00 43.36    -0.359 OA
ATOM     22  HH  TYR A 338     -36.285 128.949   4.335  1.00  0.00     0.217 HD
ENDBRANCH  18  21
ENDBRANCH  14  15
ENDBRANCH  13  14
END_RES TYR A 338
ENDMDL
MODEL 2
REMARK VINA RESULT:    -7.926      0.364     16.956
REMARK INTER + INTRA:         -10.602
REMARK INTER:                  -8.066
REMARK INTRA:                  -2.537
REMARK UNBOUND:                -2.676
REMARK  0 active torsions:
REMARK  status: ('A' for Active; 'I' for Inactive)
REMARK       I    between atoms: C3_3  and  O3_21 
REMARK       I    between atoms: C6_6  and  C7_7 
REMARK       I    between atoms: C8_8  and  C9_9 
REMARK       I    between atoms: C10_10  and  C11_11 
REMARK       I    between atoms: C12_12  and  C13_13 
REMARK       I    between atoms: C14_14  and  C15_15 
REMARK       I    between atoms: C23_25  and  O23_43 
REMARK       I    between atoms: C26_28  and  C27_29 
REMARK       I    between atoms: C28_30  and  C29_31 
REMARK       I    between atoms: C30_32  and  C31_33 
REMARK       I    between atoms: C32_34  and  C33_35 
REMARK       I    between atoms: C34_36  and  C35_37 
ROOT
HETATM    1  C1  8UH I8620     -34.570 126.938   6.222  1.00 16.69    -0.018 C 
HETATM    2  C2  8UH I8620     -34.021 126.194   4.993  1.00 15.88     0.045 C 
HETATM    3  C3  8UH I8620     -32.911 126.850   4.184  1.00 15.19     0.123 C 
HETATM    4  C4  8UH I8620     -31.965 127.736   5.000  1.00 16.30     0.066 C 
HETATM    5  C5  8UH I8620     -32.534 128.503   6.150  1.00 15.97    -0.074 C 
HETATM    6  C6  8UH I8620     -33.733 128.156   6.727  1.00 16.56    -0.048 C 
HETATM    7  C7  8UH I8620     -34.279 128.932   7.842  1.00 18.44     0.009 C 
HETATM    8  C8  8UH I8620     -34.907 130.117   7.754  1.00 18.42     0.007 C 
HETATM    9  C9  8UH I8620     -35.338 130.945   8.867  1.00 20.59    -0.062 C 
HETATM   10  C10 8UH I8620     -36.048 132.058   8.584  1.00 20.51     0.007 C 
HETATM   11  C11 8UH I8620     -36.573 132.994   9.527  1.00 21.63     0.001 C 
HETATM   12  C12 8UH I8620     -37.417 133.949   9.125  1.00 21.98     0.007 C 
HETATM   13  C13 8UH I8620     -38.085 134.967   9.933  1.00 23.28    -0.062 C 
HETATM   14  C14 8UH I8620     -38.990 135.750   9.305  1.00 23.72     0.007 C 
HETATM   15  C15 8UH I8620     -39.836 136.759   9.876  1.00 25.53     0.001 C 
HETATM   16  C16 8UH I8620     -34.634 125.850   7.309  1.00 15.77     0.020 C 
HETATM   17  C17 8UH I8620     -36.017 127.355   5.898  1.00 17.40     0.020 C 
HETATM   18  C18 8UH I8620     -31.600 129.615   6.477  1.00 16.04     0.044 C 
HETATM   19  C19 8UH I8620     -35.007 130.475  10.261  1.00 19.43     0.048 C 
HETATM   20  C20 8UH I8620     -37.774 135.022  11.406  1.00 18.80     0.048 C 
HETATM   21  O3  8UH I8620     -32.173 125.865   3.491  1.00 16.64    -0.395 OA
ATOM     22  H3  8UH I8620     -31.481 126.275   2.985  1.00  0.00     0.210 HD
HETATM   23  C21 8UH I8620     -49.409 144.740  12.596  1.00 19.63    -0.018 C 
HETATM   24  C22 8UH I8620     -49.935 145.389  13.873  1.00 19.63     0.045 C 
HETATM   25  C23 8UH I8620     -48.997 146.328  14.615  1.00 19.63     0.123 C 
HETATM   26  C24 8UH I8620     -48.180 147.139  13.634  1.00 19.63     0.066 C 
HETATM   27  C25 8UH I8620     -47.385 146.155  12.832  1.00 19.63    -0.074 C 
HETATM   28  C26 8UH I8620     -48.009 145.166  12.186  1.00 19.63    -0.048 C 
HETATM   29  C27 8UH I8620     -47.387 144.475  11.028  1.00 19.63     0.009 C 
HETATM   30  C28 8UH I8620     -46.466 143.520  11.175  1.00 19.63     0.007 C 
HETATM   31  C29 8UH I8620     -45.842 142.790  10.024  1.00 33.65    -0.062 C 
HETATM   32  C30 8UH I8620     -44.923 141.845  10.316  1.00 30.63     0.007 C 
HETATM   33  C31 8UH I8620     -44.239 140.980   9.391  1.00 28.70     0.001 C 
HETATM   34  C32 8UH I8620     -43.303 140.100   9.805  1.00 25.67     0.007 C 
HETATM   35  C33 8UH I8620     -42.509 139.154   9.019  1.00 24.63    -0.062 C 
HETATM   36  C34 8UH I8620     -41.599 138.402   9.672  1.00 23.98     0.007 C 
HETATM   37  C35 8UH I8620     -40.710 137.425   9.112  1.00 25.49     0.001 C 
HETATM   38  C36 8UH I8620     -50.416 145.032  11.489  1.00 19.63     0.020 C 
HETATM   39  C37 8UH I8620     -49.364 143.240  12.824  1.00 19.63     0.020 C 
HETATM   40  C38 8UH I8620     -46.276 146.949  12.218  1.00 19.63     0.044 C 
HETATM   41  C39 8UH I8620     -46.264 143.148   8.622  1.00 33.66     0.048 C 
HETATM   42  C40 8UH I8620     -42.742 139.099   7.544  1.00 25.13     0.048 C 
HETATM   43  O23 8UH I8620     -49.778 147.214  15.420  1.00 19.63    -0.395 OA
ATOM     44  H23 8UH I8620     -49.192 147.801  15.884  1.00  0.00     0.210 HD
ENDROOT
TORSDOF 12
BEGIN_RES PHE A  61
REMARK  2 active torsions:
REMARK  status: ('A' for Active; 'I' for Inactive)
REMARK    1  A    between atoms: CA   and  CB  
REMARK    2  A    between atoms: CB   and  CG  
ROOT
ATOM      1  CA  PHE A  61     -36.237 128.293  12.768  1.00 39.40     0.164 C 
ENDROOT
BRANCH   1   2
ATOM      2  CB  PHE A  61     -36.813 128.951  11.509  1.00 39.41     0.058 C 
BRANCH   2   3
ATOM      3  CG  PHE A  61     -37.057 127.998  10.363  1.00 39.01    -0.020 A 
ATOM      4  CD2 PHE A  61     -36.335 126.821  10.250  1.00 40.32    -0.004 A 
ATOM      5  CE2 PHE A  61     -36.559 125.947   9.194  1.00 40.20    -0.000 A 
ATOM      6  CZ  PHE A  61     -37.509 126.238   8.241  1.00 40.34    -0.000 A 
ATOM      7  CE1 PHE A  61     -38.237 127.403   8.341  1.00 41.51    -0.000 A 
ATOM      8  CD1 PHE A  61     -38.009 128.280   9.393  1.00 39.94    -0.004 A 
ENDBRANCH   2   3
ENDBRANCH   1   2
END_RES PHE A  61
BEGIN_RES VAL A 134
REMARK  1 active torsions:
REMARK  status: ('A' for Active; 'I' for Inactive)
REMARK    3  A    between atoms: CA   and  CB  
ROOT
ATOM      9  CA  VAL A 134     -29.766 132.051   9.815  1.00 40.75     0.159 C 
ENDROOT
BRANCH   9  10
ATOM     10  CB  VAL A 134     -30.864 132.765   9.009  1.00 40.76     0.029 C 
ATOM     11  CG1 VAL A 134     -31.003 132.148   7.625  1.00 41.76     0.002 C 
ATOM     12  CG2 VAL A 134     -32.196 132.753   9.742  1.00 40.56     0.002 C 
ENDBRANCH   9  10
END_RES VAL A 134
BEGIN_RES TYR A 338
REMARK  3 active torsions:
REMARK  status: ('A' for Active; 'I' for Inactive)
REMARK    4  A    between atoms: CA   and  CB  
REMARK    5  A    between atoms: CB   and  CG  
REMARK    6  A    between atoms: CZ   and  OH  
ROOT
ATOM     13  CA  TYR A 338     -41.631 124.950   6.058  1.00 38.23     0.164 C 
ENDROOT
BRANCH  13  14
ATOM     14  CB  TYR A 338     -41.621 126.456   6.339  1.00 39.15     0.058 C 
BRANCH  14  15
ATOM     15  CG  TYR A 338     -40.433 127.217   5.797  1.00 39.03    -0.020 A 
ATOM     16  CD2 TYR A 338     -40.244 128.549   6.125  1.00 40.65    -0.002 A 
ATOM     17  CE2 TYR A 338     -39.175 129.281   5.634  1.00 40.91     0.024 A 
ATOM     18  CZ  TYR A 338     -38.261 128.679   4.790  1.00 42.33     0.089 A 
ATOM     19  CE1 TYR A 338     -38.425 127.347   4.451  1.00 40.63     0.024 A 
ATOM     20  CD1 TYR A 338     -39.509 126.636   4.942  1.00 39.27    -0.002 A 
BRANCH  18  21
ATOM     21  OH  TYR A 338     -37.200 129.390   4.303  1.00 43.36    -0.359 OA
ATOM     22  HH  TYR A 338     -36.550 128.968   3.753  1.00  0.00     0.217 HD
ENDBRANCH  18  21
ENDBRANCH  14  15
ENDBRANCH  13  14
END_RES TYR A 338
ENDMDL
