MODEL 1
REMARK VINA RESULT:   -10.454      0.000      0.000
REMARK INTER + INTRA:         -12.691
REMARK INTER:                 -10.454
REMARK INTRA:                  -2.237
REMARK UNBOUND:                -2.237
REMARK  0 active torsions:
REMARK  status: ('A' for Active; 'I' for Inactive)
REMARK       I    between atoms: C3_3  and  O3_21 
REMARK       I    between atoms: C6_6  and  C7_7 
REMARK       I    between atoms: C8_8  and  C9_9 
REMARK       I    between atoms: C10_10  and  C11_11 
REMARK       I    between atoms: C12_12  and  C13_13 
REMARK       I    between atoms: C14_14  and  C15_15 
REMARK       I    between atoms: C23_25  and  O23_43 
REMARK       I    between atoms: C26_28  and  C27_29 
REMARK       I    between atoms: C28_30  and  C29_31 
REMARK       I    between atoms: C30_32  and  C31_33 
REMARK       I    between atoms: C32_34  and  C33_35 
REMARK       I    between atoms: C34_36  and  C35_37 
ROOT
HETATM    1  C1  8UH 3 316     -34.294 127.424   6.742  1.00 78.71    -0.018 C 
HETATM    2  C2  8UH 3 316     -33.656 126.959   5.431  1.00 77.73     0.045 C 
HETATM    3  C3  8UH 3 316     -32.469 127.777   4.938  1.00 76.79     0.123 C 
HETATM    4  C4  8UH 3 316     -31.549 128.101   6.099  1.00 76.86     0.066 C 
HETATM    5  C5  8UH 3 316     -32.327 128.925   7.087  1.00 77.66    -0.074 C 
HETATM    6  C6  8UH 3 316     -33.573 128.578   7.417  1.00 78.84    -0.048 C 
HETATM    7  C7  8UH 3 316     -34.296 129.345   8.457  1.00 78.35     0.009 C 
HETATM    8  C8  8UH 3 316     -34.860 130.510   8.144  1.00 77.95     0.007 C 
HETATM    9  C9  8UH 3 316     -35.603 131.316   9.129  1.00 78.35    -0.062 C 
HETATM   10  C10 8UH 3 316     -36.228 132.419   8.691  1.00 77.38     0.007 C 
HETATM   11  C11 8UH 3 316     -37.015 133.296   9.550  1.00 77.06     0.001 C 
HETATM   12  C12 8UH 3 316     -37.785 134.176   8.918  1.00 77.59     0.007 C 
HETATM   13  C13 8UH 3 316     -38.677 135.135   9.598  1.00 77.36    -0.062 C 
HETATM   14  C14 8UH 3 316     -39.454 135.909   8.826  1.00 75.86     0.007 C 
HETATM   15  C15 8UH 3 316     -40.397 136.879   9.368  1.00 74.54     0.001 C 
HETATM   16  C16 8UH 3 316     -34.330 126.248   7.711  1.00 78.56     0.020 C 
HETATM   17  C17 8UH 3 316     -35.723 127.872   6.448  1.00 78.60     0.020 C 
HETATM   18  C18 8UH 3 316     -31.584 129.988   7.844  1.00 77.80     0.044 C 
HETATM   19  C19 8UH 3 316     -35.664 130.906  10.571  1.00 79.41     0.048 C 
HETATM   20  C20 8UH 3 316     -38.721 135.231  11.095  1.00 77.68     0.048 C 
HETATM   21  O3  8UH 3 316     -31.739 127.034   3.955  1.00 76.23    -0.395 OA
ATOM     22  H3  8UH 3 316     -31.000 127.545   3.648  1.00  0.00     0.210 HD
HETATM   23  C21 8UH 3 316     -49.989 145.007   9.841  1.00 34.54    -0.018 C 
HETATM   24  C22 8UH 3 316     -50.658 145.625  11.069  1.00 34.54     0.045 C 
HETATM   25  C23 8UH 3 316     -50.062 146.900  11.667  1.00 34.54     0.123 C 
HETATM   26  C24 8UH 3 316     -49.182 147.671  10.695  1.00 34.54     0.066 C 
HETATM   27  C25 8UH 3 316     -48.193 146.716  10.092  1.00 34.54    -0.074 C 
HETATM   28  C26 8UH 3 316     -48.606 145.564   9.553  1.00 34.54    -0.048 C 
HETATM   29  C27 8UH 3 316     -47.695 144.833   8.640  1.00 34.54     0.009 C 
HETATM   30  C28 8UH 3 316     -46.831 143.948   9.131  1.00 34.54     0.007 C 
HETATM   31  C29 8UH 3 316     -45.886 143.194   8.305  1.00 87.05    -0.062 C 
HETATM   32  C30 8UH 3 316     -45.171 142.217   8.875  1.00 83.33     0.007 C 
HETATM   33  C31 8UH 3 316     -44.216 141.402   8.132  1.00 80.71     0.001 C 
HETATM   34  C32 8UH 3 316     -43.552 140.486   8.828  1.00 78.86     0.007 C 
HETATM   35  C33 8UH 3 316     -42.559 139.573   8.235  1.00 77.40    -0.062 C 
HETATM   36  C34 8UH 3 316     -42.016 138.634   9.024  1.00 76.14     0.007 C 
HETATM   37  C35 8UH 3 316     -41.042 137.674   8.520  1.00 74.61     0.001 C 
HETATM   38  C36 8UH 3 316     -50.936 145.194   8.658  1.00 34.54     0.020 C 
HETATM   39  C37 8UH 3 316     -49.842 143.508  10.073  1.00 34.54     0.020 C 
HETATM   40  C38 8UH 3 316     -47.023 147.475   9.534  1.00 34.54     0.044 C 
HETATM   41  C39 8UH 3 316     -45.735 143.510   6.846  1.00 86.53     0.048 C 
HETATM   42  C40 8UH 3 316     -42.166 139.693   6.793  1.00 77.09     0.048 C 
HETATM   43  O23 8UH 3 316     -51.132 147.749  12.093  1.00 34.54    -0.395 OA
ATOM     44  H23 8UH 3 316     -51.682 147.267  12.699  1.00  0.00     0.210 HD
ENDROOT
TORSDOF 12
BEGIN_RES PHE A  61
REMARK  2 active torsions:
REMARK  status: ('A' for Active; 'I' for Inactive)
REMARK    1  A    between atoms: CA   and  CB  
REMARK    2  A    between atoms: CB   and  CG  
ROOT
ATOM      1  CA  PHE A  61     -36.237 128.293  12.768  1.00 39.40     0.164 C 
ENDROOT
BRANCH   1   2
ATOM      2  CB  PHE A  61     -36.813 128.951  11.509  1.00 39.41     0.058 C 
BRANCH   2   3
ATOM      3  CG  PHE A  61     -37.084 127.994  10.373  1.00 39.01    -0.020 A 
ATOM      4  CD2 PHE A  61     -36.390 126.799  10.269  1.00 40.32    -0.004 A 
ATOM      5  CE2 PHE A  61     -36.638 125.921   9.221  1.00 40.20    -0.000 A 
ATOM      6  CZ  PHE A  61     -37.584 126.225   8.269  1.00 40.34    -0.000 A 
ATOM      7  CE1 PHE A  61     -38.284 127.408   8.360  1.00 41.51    -0.000 A 
ATOM      8  CD1 PHE A  61     -38.031 128.289   9.403  1.00 39.94    -0.004 A 
ENDBRANCH   2   3
ENDBRANCH   1   2
END_RES PHE A  61
BEGIN_RES VAL A 134
REMARK  1 active torsions:
REMARK  status: ('A' for Active; 'I' for Inactive)
REMARK    3  A    between atoms: CA   and  CB  
ROOT
ATOM      9  CA  VAL A 134     -29.766 132.051   9.815  1.00 40.75     0.159 C 
ENDROOT
BRANCH   9  10
ATOM     10  CB  VAL A 134     -30.864 132.765   9.009  1.00 40.76     0.029 C 
ATOM     11  CG1 VAL A 134     -30.880 132.273   7.569  1.00 41.76     0.002 C 
ATOM     12  CG2 VAL A 134     -32.232 132.597   9.653  1.00 40.56     0.002 C 
ENDBRANCH   9  10
END_RES VAL A 134
BEGIN_RES TYR A 338
REMARK  3 active torsions:
REMARK  status: ('A' for Active; 'I' for Inactive)
REMARK    4  A    between atoms: CA   and  CB  
REMARK    5  A    between atoms: CB   and  CG  
REMARK    6  A    between atoms: CZ   and  OH  
ROOT
ATOM     13  CA  TYR A 338     -41.631 124.950   6.058  1.00 38.23     0.164 C 
ENDROOT
BRANCH  13  14
ATOM     14  CB  TYR A 338     -41.621 126.456   6.339  1.00 39.15     0.058 C 
BRANCH  14  15
ATOM     15  CG  TYR A 338     -40.423 127.213   5.814  1.00 39.03    -0.020 A 
ATOM     16  CD2 TYR A 338     -40.256 128.555   6.114  1.00 40.65    -0.002 A 
ATOM     17  CE2 TYR A 338     -39.177 129.284   5.637  1.00 40.91     0.024 A 
ATOM     18  CZ  TYR A 338     -38.233 128.669   4.836  1.00 42.33     0.089 A 
ATOM     19  CE1 TYR A 338     -38.376 127.328   4.527  1.00 40.63     0.024 A 
ATOM     20  CD1 TYR A 338     -39.468 126.619   5.003  1.00 39.27    -0.002 A 
BRANCH  18  21
ATOM     21  OH  TYR A 338     -37.164 129.377   4.364  1.00 43.36    -0.359 OA
ATOM     22  HH  TYR A 338     -36.616 129.875   4.960  1.00  0.00     0.217 HD
ENDBRANCH  18  21
ENDBRANCH  14  15
ENDBRANCH  13  14
END_RES TYR A 338
ENDMDL
MODEL 2
REMARK VINA RESULT:    -8.053      1.529     16.773
REMARK INTER + INTRA:         -10.290
REMARK INTER:                  -7.548
REMARK INTRA:                  -2.741
REMARK UNBOUND:                -2.237
REMARK  0 active torsions:
REMARK  status: ('A' for Active; 'I' for Inactive)
REMARK       I    between atoms: C3_3  and  O3_21 
REMARK       I    between atoms: C6_6  and  C7_7 
REMARK       I    between atoms: C8_8  and  C9_9 
REMARK       I    between atoms: C10_10  and  C11_11 
REMARK       I    between atoms: C12_12  and  C13_13 
REMARK       I    between atoms: C14_14  and  C15_15 
REMARK       I    between atoms: C23_25  and  O23_43 
REMARK       I    between atoms: C26_28  and  C27_29 
REMARK       I    between atoms: C28_30  and  C29_31 
REMARK       I    between atoms: C30_32  and  C31_33 
REMARK       I    between atoms: C32_34  and  C33_35 
REMARK       I    between atoms: C34_36  and  C35_37 
ROOT
HETATM    1  C1  8UH 3 316     -49.253 145.392  12.782  1.00 78.71    -0.018 C 
HETATM    2  C2  8UH 3 316     -49.805 145.696  14.177  1.00 77.73     0.045 C 
HETATM    3  C3  8UH 3 316     -48.881 146.473  15.107  1.00 76.79     0.123 C 
HETATM    4  C4  8UH 3 316     -48.216 147.603  14.345  1.00 76.86     0.066 C 
HETATM    5  C5  8UH 3 316     -47.392 146.994  13.244  1.00 77.66    -0.074 C 
HETATM    6  C6  8UH 3 316     -47.896 146.010  12.495  1.00 78.84    -0.048 C 
HETATM    7  C7  8UH 3 316     -47.110 145.480  11.357  1.00 78.35     0.009 C 
HETATM    8  C8  8UH 3 316     -46.129 144.609  11.584  1.00 77.95     0.007 C 
HETATM    9  C9  8UH 3 316     -45.317 144.034  10.496  1.00 78.35    -0.062 C 
HETATM   10  C10 8UH 3 316     -44.429 143.083  10.813  1.00 77.38     0.007 C 
HETATM   11  C11 8UH 3 316     -43.577 142.414   9.837  1.00 77.06     0.001 C 
HETATM   12  C12 8UH 3 316     -42.961 141.318  10.267  1.00 77.59     0.007 C 
HETATM   13  C13 8UH 3 316     -42.077 140.482   9.433  1.00 77.36    -0.062 C 
HETATM   14  C14 8UH 3 316     -41.588 139.361   9.983  1.00 75.86     0.007 C 
HETATM   15  C15 8UH 3 316     -40.725 138.434   9.263  1.00 74.54     0.001 C 
HETATM   16  C16 8UH 3 316     -50.244 145.905  11.743  1.00 78.56     0.020 C 
HETATM   17  C17 8UH 3 316     -49.119 143.879  12.639  1.00 78.60     0.020 C 
HETATM   18  C18 8UH 3 316     -46.106 147.677  12.878  1.00 77.80     0.044 C 
HETATM   19  C19 8UH 3 316     -45.492 144.497   9.079  1.00 79.41     0.048 C 
HETATM   20  C20 8UH 3 316     -41.748 140.866   8.020  1.00 77.68     0.048 C 
HETATM   21  O3  8UH 3 316     -49.633 147.022  16.195  1.00 76.23    -0.395 OA
ATOM     22  H3  8UH 3 316     -49.057 147.506  16.774  1.00  0.00     0.210 HD
HETATM   23  C21 8UH 3 316     -34.451 127.882   6.505  1.00 34.54    -0.018 C 
HETATM   24  C22 8UH 3 316     -33.769 127.491   5.194  1.00 34.54     0.045 C 
HETATM   25  C23 8UH 3 316     -32.329 127.944   4.951  1.00 34.54     0.123 C 
HETATM   26  C24 8UH 3 316     -31.583 128.304   6.226  1.00 34.54     0.066 C 
HETATM   27  C25 8UH 3 316     -32.434 129.252   7.021  1.00 34.54    -0.074 C 
HETATM   28  C26 8UH 3 316     -33.713 128.960   7.280  1.00 34.54    -0.048 C 
HETATM   29  C27 8UH 3 316     -34.410 129.695   8.362  1.00 34.54     0.009 C 
HETATM   30  C28 8UH 3 316     -35.036 130.837   8.094  1.00 34.54     0.007 C 
HETATM   31  C29 8UH 3 316     -35.736 131.634   9.104  1.00 87.05    -0.062 C 
HETATM   32  C30 8UH 3 316     -36.466 132.683   8.703  1.00 83.33     0.007 C 
HETATM   33  C31 8UH 3 316     -37.209 133.527   9.631  1.00 80.71     0.001 C 
HETATM   34  C32 8UH 3 316     -37.868 134.552   9.102  1.00 78.86     0.007 C 
HETATM   35  C33 8UH 3 316     -38.676 135.498   9.892  1.00 77.40    -0.062 C 
HETATM   36  C34 8UH 3 316     -39.363 136.443   9.234  1.00 76.14     0.007 C 
HETATM   37  C35 8UH 3 316     -40.205 137.408   9.929  1.00 74.61     0.001 C 
HETATM   38  C36 8UH 3 316     -34.629 126.609   7.329  1.00 34.54     0.020 C 
HETATM   39  C37 8UH 3 316     -35.842 128.416   6.187  1.00 34.54     0.020 C 
HETATM   40  C38 8UH 3 316     -31.581 130.007   8.000  1.00 34.54     0.044 C 
HETATM   41  C39 8UH 3 316     -35.640 131.272  10.556  1.00 86.53     0.048 C 
HETATM   42  C40 8UH 3 316     -38.724 135.407  11.388  1.00 77.09     0.048 C 
HETATM   43  O23 8UH 3 316     -31.625 126.890   4.286  1.00 34.54    -0.395 OA
ATOM     44  H23 8UH 3 316     -32.091 126.665   3.489  1.00  0.00     0.210 HD
ENDROOT
TORSDOF 12
BEGIN_RES PHE A  61
REMARK  2 active torsions:
REMARK  status: ('A' for Active; 'I' for Inactive)
REMARK    1  A    between atoms: CA   and  CB  
REMARK    2  A    between atoms: CB   and  CG  
ROOT
ATOM      1  CA  PHE A  61     -36.237 128.293  12.768  1.00 39.40     0.164 C 
ENDROOT
BRANCH   1   2
ATOM      2  CB  PHE A  61     -36.813 128.951  11.509  1.00 39.41     0.058 C 
BRANCH   2   3
ATOM      3  CG  PHE A  61     -37.026 128.004  10.352  1.00 39.01    -0.020 A 
ATOM      4  CD2 PHE A  61     -36.278 126.844  10.235  1.00 40.32    -0.004 A 
ATOM      5  CE2 PHE A  61     -36.473 125.975   9.168  1.00 40.20    -0.000 A 
ATOM      6  CZ  PHE A  61     -37.420 126.255   8.210  1.00 40.34    -0.000 A 
ATOM      7  CE1 PHE A  61     -38.173 127.404   8.313  1.00 41.51    -0.000 A 
ATOM      8  CD1 PHE A  61     -37.974 128.275   9.376  1.00 39.94    -0.004 A 
ENDBRANCH   2   3
ENDBRANCH   1   2
END_RES PHE A  61
BEGIN_RES VAL A 134
REMARK  1 active torsions:
REMARK  status: ('A' for Active; 'I' for Inactive)
REMARK    3  A    between atoms: CA   and  CB  
ROOT
ATOM      9  CA  VAL A 134     -29.766 132.051   9.815  1.00 40.75     0.159 C 
ENDROOT
BRANCH   9  10
ATOM     10  CB  VAL A 134     -30.864 132.765   9.009  1.00 40.76     0.029 C 
ATOM     11  CG1 VAL A 134     -30.873 132.282   7.566  1.00 41.76     0.002 C 
ATOM     12  CG2 VAL A 134     -32.233 132.588   9.647  1.00 40.56     0.002 C 
ENDBRANCH   9  10
END_RES VAL A 134
BEGIN_RES TYR A 338
REMARK  3 active torsions:
REMARK  status: ('A' for Active; 'I' for Inactive)
REMARK    4  A    between atoms: CA   and  CB  
REMARK    5  A    between atoms: CB   and  CG  
REMARK    6  A    between atoms: CZ   and  OH  
ROOT
ATOM     13  CA  TYR A 338     -41.631 124.950   6.058  1.00 38.23     0.164 C 
ENDROOT
BRANCH  13  14
ATOM     14  CB  TYR A 338     -41.621 126.456   6.339  1.00 39.15     0.058 C 
BRANCH  14  15
ATOM     15  CG  TYR A 338     -40.435 127.217   5.794  1.00 39.03    -0.020 A 
ATOM     16  CD2 TYR A 338     -40.285 128.567   6.062  1.00 40.65    -0.002 A 
ATOM     17  CE2 TYR A 338     -39.218 129.300   5.565  1.00 40.91     0.024 A 
ATOM     18  CZ  TYR A 338     -38.268 128.680   4.776  1.00 42.33     0.089 A 
ATOM     19  CE1 TYR A 338     -38.393 127.330   4.498  1.00 40.63     0.024 A 
ATOM     20  CD1 TYR A 338     -39.475 126.618   4.993  1.00 39.27    -0.002 A 
BRANCH  18  21
ATOM     21  OH  TYR A 338     -37.209 129.391   4.285  1.00 43.36    -0.359 OA
ATOM     22  HH  TYR A 338     -36.562 128.970   3.732  1.00  0.00     0.217 HD
ENDBRANCH  18  21
ENDBRANCH  14  15
ENDBRANCH  13  14
END_RES TYR A 338
ENDMDL
