MODEL 1
REMARK VINA RESULT:    -9.878      0.000      0.000
REMARK INTER + INTRA:         -13.541
REMARK INTER:                  -9.878
REMARK INTRA:                  -3.664
REMARK UNBOUND:                -3.664
REMARK  0 active torsions:
REMARK  status: ('A' for Active; 'I' for Inactive)
REMARK       I    between atoms: C3_3  and  O3_21 
REMARK       I    between atoms: C6_6  and  C7_7 
REMARK       I    between atoms: C8_8  and  C9_9 
REMARK       I    between atoms: C10_10  and  C11_11 
REMARK       I    between atoms: C12_12  and  C13_13 
REMARK       I    between atoms: C14_14  and  C15_15 
REMARK       I    between atoms: C23_25  and  O23_43 
REMARK       I    between atoms: C26_28  and  C27_29 
REMARK       I    between atoms: C28_30  and  C29_31 
REMARK       I    between atoms: C30_32  and  C31_33 
REMARK       I    between atoms: C32_34  and  C33_35 
REMARK       I    between atoms: C34_36  and  C35_37 
ROOT
HETATM    1  C1  8UH H7620     -48.627 144.871  12.456  1.00 19.07    -0.018 C 
HETATM    2  C2  8UH H7620     -49.321 145.687  13.563  1.00 18.69     0.045 C 
HETATM    3  C3  8UH H7620     -48.450 146.630  14.388  1.00 19.88     0.123 C 
HETATM    4  C4  8UH H7620     -47.330 147.306  13.579  1.00 19.59     0.066 C 
HETATM    5  C5  8UH H7620     -46.694 146.522  12.474  1.00 18.61    -0.074 C 
HETATM    6  C6  8UH H7620     -47.262 145.390  11.927  1.00 18.29    -0.048 C 
HETATM    7  C7  8UH H7620     -46.601 144.647  10.833  1.00 19.20     0.009 C 
HETATM    8  C8  8UH H7620     -45.555 143.786  10.919  1.00 18.47     0.007 C 
HETATM    9  C9  8UH H7620     -44.792 143.179   9.821  1.00 18.73    -0.062 C 
HETATM   10  C10 8UH H7620     -43.848 142.266  10.139  1.00 19.74     0.007 C 
HETATM   11  C11 8UH H7620     -42.987 141.537   9.224  1.00 21.97     0.001 C 
HETATM   12  C12 8UH H7620     -42.207 140.523   9.672  1.00 21.62     0.007 C 
HETATM   13  C13 8UH H7620     -41.301 139.638   8.917  1.00 22.34    -0.062 C 
HETATM   14  C14 8UH H7620     -40.712 138.627   9.594  1.00 21.69     0.007 C 
HETATM   15  C15 8UH H7620     -39.860 137.592   9.079  1.00 22.95     0.001 C 
HETATM   16  C16 8UH H7620     -49.679 144.905  11.332  1.00 17.04     0.020 C 
HETATM   17  C17 8UH H7620     -48.484 143.419  12.952  1.00 20.18     0.020 C 
HETATM   18  C18 8UH H7620     -45.420 147.201  12.129  1.00 19.93     0.044 C 
HETATM   19  C19 8UH H7620     -45.147 143.584   8.414  1.00 16.18     0.048 C 
HETATM   20  C20 8UH H7620     -41.148 139.879   7.444  1.00 18.83     0.048 C 
HETATM   21  O3  8UH H7620     -49.251 147.604  15.039  1.00 19.51    -0.395 OA
ATOM     22  H3  8UH H7620     -48.709 148.191  15.553  1.00  0.00     0.210 HD
HETATM   23  C21 8UH H7620     -33.462 126.436   6.910  1.00 35.06    -0.018 C 
HETATM   24  C22 8UH H7620     -33.997 125.893   5.584  1.00 35.06     0.045 C 
HETATM   25  C23 8UH H7620     -33.688 126.737   4.352  1.00 35.06     0.123 C 
HETATM   26  C24 8UH H7620     -32.510 127.654   4.623  1.00 35.06     0.066 C 
HETATM   27  C25 8UH H7620     -32.937 128.528   5.763  1.00 35.06    -0.074 C 
HETATM   28  C26 8UH H7620     -33.280 127.934   6.907  1.00 35.06    -0.048 C 
HETATM   29  C27 8UH H7620     -33.661 128.699   8.108  1.00 35.06     0.009 C 
HETATM   30  C28 8UH H7620     -34.420 129.774   7.899  1.00 35.06     0.007 C 
HETATM   31  C29 8UH H7620     -35.061 130.537   9.032  1.00 34.32    -0.062 C 
HETATM   32  C30 8UH H7620     -35.805 131.612   8.695  1.00 32.68     0.007 C 
HETATM   33  C31 8UH H7620     -36.537 132.467   9.594  1.00 31.36     0.001 C 
HETATM   34  C32 8UH H7620     -37.220 133.556   9.180  1.00 27.71     0.007 C 
HETATM   35  C33 8UH H7620     -37.999 134.513   9.983  1.00 25.49    -0.062 C 
HETATM   36  C34 8UH H7620     -38.569 135.553   9.335  1.00 25.45     0.007 C 
HETATM   37  C35 8UH H7620     -39.377 136.625   9.877  1.00 24.93     0.001 C 
HETATM   38  C36 8UH H7620     -32.078 125.850   7.164  1.00 35.06     0.020 C 
HETATM   39  C37 8UH H7620     -34.390 126.036   8.047  1.00 35.06     0.020 C 
HETATM   40  C38 8UH H7620     -32.344 129.914   5.682  1.00 35.06     0.044 C 
HETATM   41  C39 8UH H7620     -34.838 130.081  10.446  1.00 34.07     0.048 C 
HETATM   42  C40 8UH H7620     -38.090 134.269  11.460  1.00 21.83     0.048 C 
HETATM   43  O23 8UH H7620     -33.367 125.885   3.248  1.00 35.06    -0.395 OA
ATOM     44  H23 8UH H7620     -34.105 125.311   3.079  1.00  0.00     0.210 HD
ENDROOT
TORSDOF 12
BEGIN_RES PHE A  61
REMARK  2 active torsions:
REMARK  status: ('A' for Active; 'I' for Inactive)
REMARK    1  A    between atoms: CA   and  CB  
REMARK    2  A    between atoms: CB   and  CG  
ROOT
ATOM      1  CA  PHE A  61     -36.237 128.293  12.768  1.00 39.40     0.164 C 
ENDROOT
BRANCH   1   2
ATOM      2  CB  PHE A  61     -36.813 128.951  11.509  1.00 39.41     0.058 C 
BRANCH   2   3
ATOM      3  CG  PHE A  61     -37.000 128.010  10.343  1.00 39.01    -0.020 A 
ATOM      4  CD2 PHE A  61     -36.267 126.837  10.250  1.00 40.32    -0.004 A 
ATOM      5  CE2 PHE A  61     -36.437 125.974   9.175  1.00 40.20    -0.000 A 
ATOM      6  CZ  PHE A  61     -37.344 126.271   8.184  1.00 40.34    -0.000 A 
ATOM      7  CE1 PHE A  61     -38.082 127.432   8.262  1.00 41.51    -0.000 A 
ATOM      8  CD1 PHE A  61     -37.907 128.298   9.333  1.00 39.94    -0.004 A 
ENDBRANCH   2   3
ENDBRANCH   1   2
END_RES PHE A  61
BEGIN_RES VAL A 134
REMARK  1 active torsions:
REMARK  status: ('A' for Active; 'I' for Inactive)
REMARK    3  A    between atoms: CA   and  CB  
ROOT
ATOM      9  CA  VAL A 134     -29.766 132.051   9.815  1.00 40.75     0.159 C 
ENDROOT
BRANCH   9  10
ATOM     10  CB  VAL A 134     -30.864 132.765   9.009  1.00 40.76     0.029 C 
ATOM     11  CG1 VAL A 134     -31.146 132.024   7.710  1.00 41.76     0.002 C 
ATOM     12  CG2 VAL A 134     -32.138 132.933   9.823  1.00 40.56     0.002 C 
ENDBRANCH   9  10
END_RES VAL A 134
BEGIN_RES TYR A 338
REMARK  3 active torsions:
REMARK  status: ('A' for Active; 'I' for Inactive)
REMARK    4  A    between atoms: CA   and  CB  
REMARK    5  A    between atoms: CB   and  CG  
REMARK    6  A    between atoms: CZ   and  OH  
ROOT
ATOM     13  CA  TYR A 338     -41.631 124.950   6.058  1.00 38.23     0.164 C 
ENDROOT
BRANCH  13  14
ATOM     14  CB  TYR A 338     -41.621 126.456   6.339  1.00 39.15     0.058 C 
BRANCH  14  15
ATOM     15  CG  TYR A 338     -40.392 127.202   5.873  1.00 39.03    -0.020 A 
ATOM     16  CD2 TYR A 338     -40.225 128.541   6.184  1.00 40.65    -0.002 A 
ATOM     17  CE2 TYR A 338     -39.119 129.260   5.760  1.00 40.91     0.024 A 
ATOM     18  CZ  TYR A 338     -38.144 128.638   5.002  1.00 42.33     0.089 A 
ATOM     19  CE1 TYR A 338     -38.286 127.299   4.683  1.00 40.63     0.024 A 
ATOM     20  CD1 TYR A 338     -39.407 126.601   5.105  1.00 39.27    -0.002 A 
BRANCH  18  21
ATOM     21  OH  TYR A 338     -37.047 129.336   4.583  1.00 43.36    -0.359 OA
ATOM     22  HH  TYR A 338     -36.779 129.309   3.671  1.00  0.00     0.217 HD
ENDBRANCH  18  21
ENDBRANCH  14  15
ENDBRANCH  13  14
END_RES TYR A 338
ENDMDL
MODEL 2
REMARK VINA RESULT:    -7.616      2.301      3.429
REMARK INTER + INTRA:         -11.280
REMARK INTER:                  -8.488
REMARK INTRA:                  -2.791
REMARK UNBOUND:                -3.664
REMARK  0 active torsions:
REMARK  status: ('A' for Active; 'I' for Inactive)
REMARK       I    between atoms: C3_3  and  O3_21 
REMARK       I    between atoms: C6_6  and  C7_7 
REMARK       I    between atoms: C8_8  and  C9_9 
REMARK       I    between atoms: C10_10  and  C11_11 
REMARK       I    between atoms: C12_12  and  C13_13 
REMARK       I    between atoms: C14_14  and  C15_15 
REMARK       I    between atoms: C23_25  and  O23_43 
REMARK       I    between atoms: C26_28  and  C27_29 
REMARK       I    between atoms: C28_30  and  C29_31 
REMARK       I    between atoms: C30_32  and  C31_33 
REMARK       I    between atoms: C32_34  and  C33_35 
REMARK       I    between atoms: C34_36  and  C35_37 
ROOT
HETATM    1  C1  8UH H7620     -48.847 148.321   8.862  1.00 19.07    -0.018 C 
HETATM    2  C2  8UH H7620     -50.308 148.813   8.850  1.00 18.69     0.045 C 
HETATM    3  C3  8UH H7620     -51.180 148.444  10.047  1.00 19.88     0.123 C 
HETATM    4  C4  8UH H7620     -50.425 148.440  11.387  1.00 19.59     0.066 C 
HETATM    5  C5  8UH H7620     -48.992 148.007  11.381  1.00 18.61    -0.074 C 
HETATM    6  C6  8UH H7620     -48.228 147.939  10.235  1.00 18.29    -0.048 C 
HETATM    7  C7  8UH H7620     -46.814 147.508  10.274  1.00 19.20     0.009 C 
HETATM    8  C8  8UH H7620     -46.326 146.247  10.384  1.00 18.47     0.007 C 
HETATM    9  C9  8UH H7620     -44.933 145.832  10.591  1.00 18.73    -0.062 C 
HETATM   10  C10 8UH H7620     -44.660 144.508  10.571  1.00 19.74     0.007 C 
HETATM   11  C11 8UH H7620     -43.363 143.877  10.742  1.00 21.97     0.001 C 
HETATM   12  C12 8UH H7620     -43.210 142.547  10.522  1.00 21.62     0.007 C 
HETATM   13  C13 8UH H7620     -41.990 141.722  10.599  1.00 22.34    -0.062 C 
HETATM   14  C14 8UH H7620     -42.091 140.427  10.225  1.00 21.69     0.007 C 
HETATM   15  C15 8UH H7620     -41.046 139.446  10.135  1.00 22.95     0.001 C 
HETATM   16  C16 8UH H7620     -48.104 149.528   8.262  1.00 17.04     0.020 C 
HETATM   17  C17 8UH H7620     -48.734 147.137   7.883  1.00 20.18     0.020 C 
HETATM   18  C18 8UH H7620     -48.618 147.705  12.785  1.00 19.93     0.044 C 
HETATM   19  C19 8UH H7620     -43.899 146.914  10.768  1.00 16.18     0.048 C 
HETATM   20  C20 8UH H7620     -40.715 142.390  11.020  1.00 18.83     0.048 C 
HETATM   21  O3  8UH H7620     -52.313 149.296  10.117  1.00 19.51    -0.395 OA
ATOM     22  H3  8UH H7620     -52.857 149.067  10.861  1.00  0.00     0.210 HD
HETATM   23  C21 8UH H7620     -33.505 129.315   6.884  1.00 35.06    -0.018 C 
HETATM   24  C22 8UH H7620     -32.245 129.911   6.255  1.00 35.06     0.045 C 
HETATM   25  C23 8UH H7620     -31.366 130.735   7.190  1.00 35.06     0.123 C 
HETATM   26  C24 8UH H7620     -31.655 130.379   8.636  1.00 35.06     0.066 C 
HETATM   27  C25 8UH H7620     -33.102 130.711   8.848  1.00 35.06    -0.074 C 
HETATM   28  C26 8UH H7620     -33.999 130.098   8.076  1.00 35.06    -0.048 C 
HETATM   29  C27 8UH H7620     -35.450 130.307   8.237  1.00 35.06     0.009 C 
HETATM   30  C28 8UH H7620     -35.835 131.556   8.491  1.00 35.06     0.007 C 
HETATM   31  C29 8UH H7620     -37.287 131.968   8.475  1.00 34.32    -0.062 C 
HETATM   32  C30 8UH H7620     -37.552 133.263   8.753  1.00 32.68     0.007 C 
HETATM   33  C31 8UH H7620     -38.849 133.891   8.762  1.00 31.36     0.001 C 
HETATM   34  C32 8UH H7620     -39.036 135.185   9.099  1.00 27.71     0.007 C 
HETATM   35  C33 8UH H7620     -40.294 135.948   9.158  1.00 25.49    -0.062 C 
HETATM   36  C34 8UH H7620     -40.226 137.236   9.562  1.00 25.45     0.007 C 
HETATM   37  C35 8UH H7620     -41.297 138.197   9.707  1.00 24.93     0.001 C 
HETATM   38  C36 8UH H7620     -33.186 127.919   7.408  1.00 35.06     0.020 C 
HETATM   39  C37 8UH H7620     -34.609 129.216   5.843  1.00 35.06     0.020 C 
HETATM   40  C38 8UH H7620     -33.387 131.182  10.253  1.00 35.06     0.044 C 
HETATM   41  C39 8UH H7620     -38.340 130.943   8.169  1.00 34.07     0.048 C 
HETATM   42  C40 8UH H7620     -41.557 135.235   8.778  1.00 21.83     0.048 C 
HETATM   43  O23 8UH H7620     -29.986 130.472   6.916  1.00 35.06    -0.395 OA
ATOM     44  H23 8UH H7620     -29.805 130.695   6.010  1.00  0.00     0.210 HD
ENDROOT
TORSDOF 12
BEGIN_RES PHE A  61
REMARK  2 active torsions:
REMARK  status: ('A' for Active; 'I' for Inactive)
REMARK    1  A    between atoms: CA   and  CB  
REMARK    2  A    between atoms: CB   and  CG  
ROOT
ATOM      1  CA  PHE A  61     -36.237 128.293  12.768  1.00 39.40     0.164 C 
ENDROOT
BRANCH   1   2
ATOM      2  CB  PHE A  61     -36.813 128.951  11.509  1.00 39.41     0.058 C 
BRANCH   2   3
ATOM      3  CG  PHE A  61     -36.698 128.112  10.259  1.00 39.01    -0.020 A 
ATOM      4  CD2 PHE A  61     -37.736 128.057   9.341  1.00 40.32    -0.004 A 
ATOM      5  CE2 PHE A  61     -37.631 127.282   8.193  1.00 40.20    -0.000 A 
ATOM      6  CZ  PHE A  61     -36.486 126.558   7.947  1.00 40.34    -0.000 A 
ATOM      7  CE1 PHE A  61     -35.445 126.605   8.847  1.00 41.51    -0.000 A 
ATOM      8  CD1 PHE A  61     -35.553 127.374   9.999  1.00 39.94    -0.004 A 
ENDBRANCH   2   3
ENDBRANCH   1   2
END_RES PHE A  61
BEGIN_RES VAL A 134
REMARK  1 active torsions:
REMARK  status: ('A' for Active; 'I' for Inactive)
REMARK    3  A    between atoms: CA   and  CB  
ROOT
ATOM      9  CA  VAL A 134     -29.766 132.051   9.815  1.00 40.75     0.159 C 
ENDROOT
BRANCH   9  10
ATOM     10  CB  VAL A 134     -30.864 132.765   9.009  1.00 40.76     0.029 C 
ATOM     11  CG1 VAL A 134     -31.858 133.445   9.939  1.00 41.76     0.002 C 
ATOM     12  CG2 VAL A 134     -30.277 133.763   8.022  1.00 40.56     0.002 C 
ENDBRANCH   9  10
END_RES VAL A 134
BEGIN_RES TYR A 338
REMARK  3 active torsions:
REMARK  status: ('A' for Active; 'I' for Inactive)
REMARK    4  A    between atoms: CA   and  CB  
REMARK    5  A    between atoms: CB   and  CG  
REMARK    6  A    between atoms: CZ   and  OH  
ROOT
ATOM     13  CA  TYR A 338     -41.631 124.950   6.058  1.00 38.23     0.164 C 
ENDROOT
BRANCH  13  14
ATOM     14  CB  TYR A 338     -41.621 126.456   6.339  1.00 39.15     0.058 C 
BRANCH  14  15
ATOM     15  CG  TYR A 338     -40.408 127.208   5.841  1.00 39.03    -0.020 A 
ATOM     16  CD2 TYR A 338     -40.255 128.555   6.122  1.00 40.65    -0.002 A 
ATOM     17  CE2 TYR A 338     -39.164 129.280   5.668  1.00 40.91     0.024 A 
ATOM     18  CZ  TYR A 338     -38.192 128.654   4.911  1.00 42.33     0.089 A 
ATOM     19  CE1 TYR A 338     -38.320 127.307   4.621  1.00 40.63     0.024 A 
ATOM     20  CD1 TYR A 338     -39.425 126.603   5.073  1.00 39.27    -0.002 A 
BRANCH  18  21
ATOM     21  OH  TYR A 338     -37.109 129.358   4.462  1.00 43.36    -0.359 OA
ATOM     22  HH  TYR A 338     -37.185 130.285   4.269  1.00  0.00     0.217 HD
ENDBRANCH  18  21
ENDBRANCH  14  15
ENDBRANCH  13  14
END_RES TYR A 338
ENDMDL
