MODEL 1
REMARK VINA RESULT:   -11.205      0.000      0.000
REMARK INTER + INTRA:         -13.552
REMARK INTER:                 -11.205
REMARK INTRA:                  -2.347
REMARK UNBOUND:                -2.347
REMARK  0 active torsions:
REMARK  status: ('A' for Active; 'I' for Inactive)
REMARK       I    between atoms: C3_3  and  O3_21 
REMARK       I    between atoms: C6_6  and  C7_7 
REMARK       I    between atoms: C8_8  and  C9_9 
REMARK       I    between atoms: C10_10  and  C11_11 
REMARK       I    between atoms: C12_12  and  C13_13 
REMARK       I    between atoms: C14_14  and  C15_15 
REMARK       I    between atoms: C23_25  and  O23_43 
REMARK       I    between atoms: C26_28  and  C27_29 
REMARK       I    between atoms: C28_30  and  C29_31 
REMARK       I    between atoms: C30_32  and  C31_33 
REMARK       I    between atoms: C32_34  and  C33_35 
REMARK       I    between atoms: C34_36  and  C35_37 
ROOT
HETATM    1  C1  8UH Y1620     -49.118 144.482  11.761  1.00 32.28    -0.018 C 
HETATM    2  C2  8UH Y1620     -49.654 144.862  13.130  1.00 32.10     0.045 C 
HETATM    3  C3  8UH Y1620     -48.768 145.729  13.994  1.00 30.03     0.123 C 
HETATM    4  C4  8UH Y1620     -48.129 146.847  13.216  1.00 27.01     0.066 C 
HETATM    5  C5  8UH Y1620     -47.438 146.336  11.991  1.00 26.85    -0.074 C 
HETATM    6  C6  8UH Y1620     -47.859 145.237  11.345  1.00 32.38    -0.048 C 
HETATM    7  C7  8UH Y1620     -47.088 144.733  10.181  1.00 31.45     0.009 C 
HETATM    8  C8  8UH Y1620     -46.143 143.807  10.337  1.00 30.07     0.007 C 
HETATM    9  C9  8UH Y1620     -45.343 143.266   9.241  1.00 31.62    -0.062 C 
HETATM   10  C10 8UH Y1620     -44.338 142.469   9.608  1.00 26.80     0.007 C 
HETATM   11  C11 8UH Y1620     -43.424 141.813   8.701  1.00 22.84     0.001 C 
HETATM   12  C12 8UH Y1620     -42.783 140.821   9.279  1.00 24.53     0.007 C 
HETATM   13  C13 8UH Y1620     -41.838 139.954   8.583  1.00 24.57    -0.062 C 
HETATM   14  C14 8UH Y1620     -41.310 138.963   9.298  1.00 24.07     0.007 C 
HETATM   15  C15 8UH Y1620     -40.398 137.995   8.734  1.00 24.13     0.001 C 
HETATM   16  C16 8UH Y1620     -50.293 144.709  10.813  1.00 30.09     0.020 C 
HETATM   17  C17 8UH Y1620     -48.778 142.998  11.778  1.00 35.00     0.020 C 
HETATM   18  C18 8UH Y1620     -46.154 147.040  11.677  1.00 25.72     0.044 C 
HETATM   19  C19 8UH Y1620     -45.637 143.619   7.816  1.00 32.28     0.048 C 
HETATM   20  C20 8UH Y1620     -41.523 140.157   7.139  1.00 25.14     0.048 C 
HETATM   21  O3  8UH Y1620     -49.578 146.334  15.003  1.00 33.60    -0.395 OA
ATOM     22  H3  8UH Y1620     -49.021 146.879  15.547  1.00  0.00     0.210 HD
HETATM   23  C21 8UH Y1620     -34.355 127.441   6.709  1.00 61.00    -0.018 C 
HETATM   24  C22 8UH Y1620     -33.847 126.982   5.345  1.00 61.00     0.045 C 
HETATM   25  C23 8UH Y1620     -32.618 127.674   4.772  1.00 61.00     0.123 C 
HETATM   26  C24 8UH Y1620     -31.650 128.097   5.856  1.00 61.00     0.066 C 
HETATM   27  C25 8UH Y1620     -32.356 128.916   6.900  1.00 61.00    -0.074 C 
HETATM   28  C26 8UH Y1620     -33.587 128.601   7.316  1.00 61.00    -0.048 C 
HETATM   29  C27 8UH Y1620     -34.226 129.385   8.403  1.00 61.00     0.009 C 
HETATM   30  C28 8UH Y1620     -34.974 130.459   8.146  1.00 61.00     0.007 C 
HETATM   31  C29 8UH Y1620     -35.622 131.249   9.182  1.00 31.74    -0.062 C 
HETATM   32  C30 8UH Y1620     -36.494 132.142   8.753  1.00 30.48     0.007 C 
HETATM   33  C31 8UH Y1620     -37.256 133.008   9.623  1.00 30.78     0.001 C 
HETATM   34  C32 8UH Y1620     -37.897 133.963   8.980  1.00 30.06     0.007 C 
HETATM   35  C33 8UH Y1620     -38.743 134.931   9.668  1.00 27.63    -0.062 C 
HETATM   36  C34 8UH Y1620     -39.260 135.910   8.928  1.00 25.49     0.007 C 
HETATM   37  C35 8UH Y1620     -40.140 136.924   9.465  1.00 24.60     0.001 C 
HETATM   38  C36 8UH Y1620     -34.312 126.223   7.626  1.00 61.00     0.020 C 
HETATM   39  C37 8UH Y1620     -35.800 127.891   6.542  1.00 61.00     0.020 C 
HETATM   40  C38 8UH Y1620     -31.559 130.014   7.544  1.00 61.00     0.044 C 
HETATM   41  C39 8UH Y1620     -35.325 131.065  10.634  1.00 33.51     0.048 C 
HETATM   42  C40 8UH Y1620     -39.008 134.791  11.131  1.00 28.91     0.048 C 
HETATM   43  O23 8UH Y1620     -31.944 126.751   3.908  1.00 61.00    -0.395 OA
ATOM     44  H23 8UH Y1620     -31.177 127.183   3.551  1.00  0.00     0.210 HD
ENDROOT
TORSDOF 12
BEGIN_RES PHE A  61
REMARK  2 active torsions:
REMARK  status: ('A' for Active; 'I' for Inactive)
REMARK    1  A    between atoms: CA   and  CB  
REMARK    2  A    between atoms: CB   and  CG  
ROOT
ATOM      1  CA  PHE A  61     -36.237 128.293  12.768  1.00 39.40     0.164 C 
ENDROOT
BRANCH   1   2
ATOM      2  CB  PHE A  61     -36.813 128.951  11.509  1.00 39.41     0.058 C 
BRANCH   2   3
ATOM      3  CG  PHE A  61     -37.081 127.994  10.372  1.00 39.01    -0.020 A 
ATOM      4  CD2 PHE A  61     -36.365 126.814  10.251  1.00 40.32    -0.004 A 
ATOM      5  CE2 PHE A  61     -36.611 125.936   9.203  1.00 40.20    -0.000 A 
ATOM      6  CZ  PHE A  61     -37.577 126.226   8.267  1.00 40.34    -0.000 A 
ATOM      7  CE1 PHE A  61     -38.299 127.394   8.374  1.00 41.51    -0.000 A 
ATOM      8  CD1 PHE A  61     -38.049 128.276   9.418  1.00 39.94    -0.004 A 
ENDBRANCH   2   3
ENDBRANCH   1   2
END_RES PHE A  61
BEGIN_RES VAL A 134
REMARK  1 active torsions:
REMARK  status: ('A' for Active; 'I' for Inactive)
REMARK    3  A    between atoms: CA   and  CB  
ROOT
ATOM      9  CA  VAL A 134     -29.766 132.051   9.815  1.00 40.75     0.159 C 
ENDROOT
BRANCH   9  10
ATOM     10  CB  VAL A 134     -30.864 132.765   9.009  1.00 40.76     0.029 C 
ATOM     11  CG1 VAL A 134     -30.865 132.290   7.563  1.00 41.76     0.002 C 
ATOM     12  CG2 VAL A 134     -32.235 132.578   9.640  1.00 40.56     0.002 C 
ENDBRANCH   9  10
END_RES VAL A 134
BEGIN_RES TYR A 338
REMARK  3 active torsions:
REMARK  status: ('A' for Active; 'I' for Inactive)
REMARK    4  A    between atoms: CA   and  CB  
REMARK    5  A    between atoms: CB   and  CG  
REMARK    6  A    between atoms: CZ   and  OH  
ROOT
ATOM     13  CA  TYR A 338     -41.631 124.950   6.058  1.00 38.23     0.164 C 
ENDROOT
BRANCH  13  14
ATOM     14  CB  TYR A 338     -41.621 126.456   6.339  1.00 39.15     0.058 C 
BRANCH  14  15
ATOM     15  CG  TYR A 338     -40.420 127.212   5.820  1.00 39.03    -0.020 A 
ATOM     16  CD2 TYR A 338     -40.259 128.556   6.111  1.00 40.65    -0.002 A 
ATOM     17  CE2 TYR A 338     -39.178 129.285   5.639  1.00 40.91     0.024 A 
ATOM     18  CZ  TYR A 338     -38.224 128.666   4.852  1.00 42.33     0.089 A 
ATOM     19  CE1 TYR A 338     -38.361 127.322   4.551  1.00 40.63     0.024 A 
ATOM     20  CD1 TYR A 338     -39.456 126.615   5.023  1.00 39.27    -0.002 A 
BRANCH  18  21
ATOM     21  OH  TYR A 338     -37.152 129.373   4.384  1.00 43.36    -0.359 OA
ATOM     22  HH  TYR A 338     -36.355 129.434   4.899  1.00  0.00     0.217 HD
ENDBRANCH  18  21
ENDBRANCH  14  15
ENDBRANCH  13  14
END_RES TYR A 338
ENDMDL
MODEL 2
REMARK VINA RESULT:   -10.989      0.867     16.353
REMARK INTER + INTRA:         -13.336
REMARK INTER:                 -10.728
REMARK INTRA:                  -2.608
REMARK UNBOUND:                -2.347
REMARK  0 active torsions:
REMARK  status: ('A' for Active; 'I' for Inactive)
REMARK       I    between atoms: C3_3  and  O3_21 
REMARK       I    between atoms: C6_6  and  C7_7 
REMARK       I    between atoms: C8_8  and  C9_9 
REMARK       I    between atoms: C10_10  and  C11_11 
REMARK       I    between atoms: C12_12  and  C13_13 
REMARK       I    between atoms: C14_14  and  C15_15 
REMARK       I    between atoms: C23_25  and  O23_43 
REMARK       I    between atoms: C26_28  and  C27_29 
REMARK       I    between atoms: C28_30  and  C29_31 
REMARK       I    between atoms: C30_32  and  C31_33 
REMARK       I    between atoms: C32_34  and  C33_35 
REMARK       I    between atoms: C34_36  and  C35_37 
ROOT
HETATM    1  C1  8UH Y1620     -34.275 127.121   6.535  1.00 32.28    -0.018 C 
HETATM    2  C2  8UH Y1620     -33.792 126.633   5.181  1.00 32.10     0.045 C 
HETATM    3  C3  8UH Y1620     -32.701 127.438   4.514  1.00 30.03     0.123 C 
HETATM    4  C4  8UH Y1620     -31.620 127.846   5.477  1.00 27.01     0.066 C 
HETATM    5  C5  8UH Y1620     -32.191 128.516   6.687  1.00 26.85    -0.074 C 
HETATM    6  C6  8UH Y1620     -33.415 128.220   7.152  1.00 32.38    -0.048 C 
HETATM    7  C7  8UH Y1620     -33.960 128.974   8.309  1.00 31.45     0.009 C 
HETATM    8  C8  8UH Y1620     -34.715 130.055   8.126  1.00 30.07     0.007 C 
HETATM    9  C9  8UH Y1620     -35.283 130.848   9.214  1.00 31.62    -0.062 C 
HETATM   10  C10 8UH Y1620     -35.875 131.984   8.843  1.00 26.80     0.007 C 
HETATM   11  C11 8UH Y1620     -36.514 132.920   9.740  1.00 22.84     0.001 C 
HETATM   12  C12 8UH Y1620     -37.320 133.741   9.103  1.00 24.53     0.007 C 
HETATM   13  C13 8UH Y1620     -38.133 134.754   9.769  1.00 24.57    -0.062 C 
HETATM   14  C14 8UH Y1620     -38.935 135.473   8.987  1.00 24.07     0.007 C 
HETATM   15  C15 8UH Y1620     -39.834 136.478   9.507  1.00 24.13     0.001 C 
HETATM   16  C16 8UH Y1620     -34.343 125.862   7.394  1.00 30.09     0.020 C 
HETATM   17  C17 8UH Y1620     -35.681 127.680   6.365  1.00 35.00     0.020 C 
HETATM   18  C18 8UH Y1620     -31.364 129.656   7.200  1.00 25.72     0.044 C 
HETATM   19  C19 8UH Y1620     -35.171 130.404  10.639  1.00 32.28     0.048 C 
HETATM   20  C20 8UH Y1620     -38.085 134.932  11.250  1.00 25.14     0.048 C 
HETATM   21  O3  8UH Y1620     -32.083 126.619   3.518  1.00 33.60    -0.395 OA
ATOM     22  H3  8UH Y1620     -31.398 127.126   3.098  1.00  0.00     0.210 HD
HETATM   23  C21 8UH Y1620     -49.621 143.874  10.746  1.00 61.00    -0.018 C 
HETATM   24  C22 8UH Y1620     -50.184 144.347  12.084  1.00 61.00     0.045 C 
HETATM   25  C23 8UH Y1620     -49.412 145.415  12.845  1.00 61.00     0.123 C 
HETATM   26  C24 8UH Y1620     -48.716 146.383  11.913  1.00 61.00     0.066 C 
HETATM   27  C25 8UH Y1620     -47.870 145.638  10.919  1.00 61.00    -0.074 C 
HETATM   28  C26 8UH Y1620     -48.293 144.500  10.359  1.00 61.00    -0.048 C 
HETATM   29  C27 8UH Y1620     -47.467 143.829   9.324  1.00 61.00     0.009 C 
HETATM   30  C28 8UH Y1620     -46.552 142.913   9.643  1.00 61.00     0.007 C 
HETATM   31  C29 8UH Y1620     -45.727 142.229   8.659  1.00 31.74    -0.062 C 
HETATM   32  C30 8UH Y1620     -45.030 141.205   9.116  1.00 30.48     0.007 C 
HETATM   33  C31 8UH Y1620     -44.169 140.385   8.295  1.00 30.78     0.001 C 
HETATM   34  C32 8UH Y1620     -43.408 139.565   8.990  1.00 30.06     0.007 C 
HETATM   35  C33 8UH Y1620     -42.483 138.634   8.354  1.00 27.63    -0.062 C 
HETATM   36  C34 8UH Y1620     -41.695 137.926   9.160  1.00 25.49     0.007 C 
HETATM   37  C35 8UH Y1620     -40.750 136.944   8.675  1.00 24.60     0.001 C 
HETATM   38  C36 8UH Y1620     -50.685 144.163   9.694  1.00 61.00     0.020 C 
HETATM   39  C37 8UH Y1620     -49.403 142.369  10.837  1.00 61.00     0.020 C 
HETATM   40  C38 8UH Y1620     -46.594 146.305  10.490  1.00 61.00     0.044 C 
HETATM   41  C39 8UH Y1620     -45.669 142.653   7.228  1.00 33.51     0.048 C 
HETATM   42  C40 8UH Y1620     -42.460 138.498   6.867  1.00 28.91     0.048 C 
HETATM   43  O23 8UH Y1620     -50.340 146.156  13.646  1.00 61.00    -0.395 OA
ATOM     44  H23 8UH Y1620     -49.857 146.823  14.121  1.00  0.00     0.210 HD
ENDROOT
TORSDOF 12
BEGIN_RES PHE A  61
REMARK  2 active torsions:
REMARK  status: ('A' for Active; 'I' for Inactive)
REMARK    1  A    between atoms: CA   and  CB  
REMARK    2  A    between atoms: CB   and  CG  
ROOT
ATOM      1  CA  PHE A  61     -36.237 128.293  12.768  1.00 39.40     0.164 C 
ENDROOT
BRANCH   1   2
ATOM      2  CB  PHE A  61     -36.813 128.951  11.509  1.00 39.41     0.058 C 
BRANCH   2   3
ATOM      3  CG  PHE A  61     -37.063 127.997  10.365  1.00 39.01    -0.020 A 
ATOM      4  CD2 PHE A  61     -36.338 126.822  10.247  1.00 40.32    -0.004 A 
ATOM      5  CE2 PHE A  61     -36.567 125.948   9.192  1.00 40.20    -0.000 A 
ATOM      6  CZ  PHE A  61     -37.526 126.235   8.248  1.00 40.34    -0.000 A 
ATOM      7  CE1 PHE A  61     -38.257 127.398   8.353  1.00 41.51    -0.000 A 
ATOM      8  CD1 PHE A  61     -38.024 128.276   9.403  1.00 39.94    -0.004 A 
ENDBRANCH   2   3
ENDBRANCH   1   2
END_RES PHE A  61
BEGIN_RES VAL A 134
REMARK  1 active torsions:
REMARK  status: ('A' for Active; 'I' for Inactive)
REMARK    3  A    between atoms: CA   and  CB  
ROOT
ATOM      9  CA  VAL A 134     -29.766 132.051   9.815  1.00 40.75     0.159 C 
ENDROOT
BRANCH   9  10
ATOM     10  CB  VAL A 134     -30.864 132.765   9.009  1.00 40.76     0.029 C 
ATOM     11  CG1 VAL A 134     -30.878 132.276   7.568  1.00 41.76     0.002 C 
ATOM     12  CG2 VAL A 134     -32.232 132.594   9.651  1.00 40.56     0.002 C 
ENDBRANCH   9  10
END_RES VAL A 134
BEGIN_RES TYR A 338
REMARK  3 active torsions:
REMARK  status: ('A' for Active; 'I' for Inactive)
REMARK    4  A    between atoms: CA   and  CB  
REMARK    5  A    between atoms: CB   and  CG  
REMARK    6  A    between atoms: CZ   and  OH  
ROOT
ATOM     13  CA  TYR A 338     -41.631 124.950   6.058  1.00 38.23     0.164 C 
ENDROOT
BRANCH  13  14
ATOM     14  CB  TYR A 338     -41.621 126.456   6.339  1.00 39.15     0.058 C 
BRANCH  14  15
ATOM     15  CG  TYR A 338     -40.420 127.212   5.820  1.00 39.03    -0.020 A 
ATOM     16  CD2 TYR A 338     -40.252 128.553   6.122  1.00 40.65    -0.002 A 
ATOM     17  CE2 TYR A 338     -39.171 129.281   5.650  1.00 40.91     0.024 A 
ATOM     18  CZ  TYR A 338     -38.225 128.666   4.852  1.00 42.33     0.089 A 
ATOM     19  CE1 TYR A 338     -38.368 127.326   4.540  1.00 40.63     0.024 A 
ATOM     20  CD1 TYR A 338     -39.463 126.618   5.011  1.00 39.27    -0.002 A 
BRANCH  18  21
ATOM     21  OH  TYR A 338     -37.152 129.374   4.384  1.00 43.36    -0.359 OA
ATOM     22  HH  TYR A 338     -36.717 129.112   3.581  1.00  0.00     0.217 HD
ENDBRANCH  18  21
ENDBRANCH  14  15
ENDBRANCH  13  14
END_RES TYR A 338
ENDMDL
