MODEL 1
REMARK VINA RESULT:   -10.671      0.000      0.000
REMARK INTER + INTRA:         -13.504
REMARK INTER:                 -10.671
REMARK INTRA:                  -2.833
REMARK UNBOUND:                -2.833
REMARK  0 active torsions:
REMARK  status: ('A' for Active; 'I' for Inactive)
REMARK       I    between atoms: C3_3  and  O3_21 
REMARK       I    between atoms: C6_6  and  C7_7 
REMARK       I    between atoms: C8_8  and  C9_9 
REMARK       I    between atoms: C10_10  and  C11_11 
REMARK       I    between atoms: C12_12  and  C13_13 
REMARK       I    between atoms: C14_14  and  C15_15 
REMARK       I    between atoms: C23_25  and  O23_43 
REMARK       I    between atoms: C26_28  and  C27_29 
REMARK       I    between atoms: C28_30  and  C29_31 
REMARK       I    between atoms: C30_32  and  C31_33 
REMARK       I    between atoms: C32_34  and  C33_35 
REMARK       I    between atoms: C34_36  and  C35_37 
ROOT
HETATM    1  C1  8UH J9621     -47.631 146.364  12.830  1.00 21.11    -0.018 C 
HETATM    2  C2  8UH J9621     -48.336 146.831  14.115  1.00 20.11     0.045 C 
HETATM    3  C3  8UH J9621     -47.700 147.918  14.981  1.00 19.41     0.123 C 
HETATM    4  C4  8UH J9621     -46.311 148.403  14.542  1.00 18.39     0.066 C 
HETATM    5  C5  8UH J9621     -45.553 147.737  13.443  1.00 18.34    -0.074 C 
HETATM    6  C6  8UH J9621     -46.131 146.800  12.618  1.00 19.81    -0.048 C 
HETATM    7  C7  8UH J9621     -45.460 146.135  11.479  1.00 19.02     0.009 C 
HETATM    8  C8  8UH J9621     -44.627 145.081  11.582  1.00 17.97     0.007 C 
HETATM    9  C9  8UH J9621     -43.931 144.375  10.501  1.00 18.85    -0.062 C 
HETATM   10  C10 8UH J9621     -43.243 143.257  10.830  1.00 18.38     0.007 C 
HETATM   11  C11 8UH J9621     -42.556 142.355   9.935  1.00 18.57     0.001 C 
HETATM   12  C12 8UH J9621     -41.970 141.220  10.373  1.00 17.11     0.007 C 
HETATM   13  C13 8UH J9621     -41.315 140.178   9.568  1.00 20.42    -0.062 C 
HETATM   14  C14 8UH J9621     -40.821 139.096  10.211  1.00 20.50     0.007 C 
HETATM   15  C15 8UH J9621     -40.188 137.947   9.608  1.00 20.22     0.001 C 
HETATM   16  C16 8UH J9621     -48.529 146.920  11.696  1.00 19.56     0.020 C 
HETATM   17  C17 8UH J9621     -47.757 144.826  12.826  1.00 18.49     0.020 C 
HETATM   18  C18 8UH J9621     -44.191 148.324  13.379  1.00 16.89     0.044 C 
HETATM   19  C19 8UH J9621     -44.097 144.900   9.103  1.00 14.61     0.048 C 
HETATM   20  C20 8UH J9621     -41.265 140.363   8.068  1.00 17.59     0.048 C 
HETATM   21  O3  8UH J9621     -48.584 149.018  15.112  1.00 18.27    -0.395 OA
ATOM     22  H3  8UH J9621     -48.189 149.694  15.650  1.00  0.00     0.210 HD
HETATM   23  C21 8UH J9621     -34.262 126.868   6.424  1.00 23.07    -0.018 C 
HETATM   24  C22 8UH J9621     -33.817 126.220   5.100  1.00 21.39     0.045 C 
HETATM   25  C23 8UH J9621     -32.996 127.065   4.134  1.00 23.10     0.123 C 
HETATM   26  C24 8UH J9621     -32.134 128.140   4.803  1.00 23.25     0.066 C 
HETATM   27  C25 8UH J9621     -32.701 128.849   5.990  1.00 22.57    -0.074 C 
HETATM   28  C26 8UH J9621     -33.688 128.282   6.763  1.00 22.63    -0.048 C 
HETATM   29  C27 8UH J9621     -34.244 128.978   7.933  1.00 23.01     0.009 C 
HETATM   30  C28 8UH J9621     -35.146 129.977   7.900  1.00 21.85     0.007 C 
HETATM   31  C29 8UH J9621     -35.638 130.779   9.029  1.00 19.55    -0.062 C 
HETATM   32  C30 8UH J9621     -36.517 131.777   8.787  1.00 17.66     0.007 C 
HETATM   33  C31 8UH J9621     -37.094 132.667   9.766  1.00 19.12     0.001 C 
HETATM   34  C32 8UH J9621     -37.836 133.744   9.420  1.00 19.40     0.007 C 
HETATM   35  C33 8UH J9621     -38.464 134.765  10.280  1.00 19.31    -0.062 C 
HETATM   36  C34 8UH J9621     -39.074 135.807   9.676  1.00 17.72     0.007 C 
HETATM   37  C35 8UH J9621     -39.697 136.931  10.318  1.00 19.92     0.001 C 
HETATM   38  C36 8UH J9621     -33.796 125.850   7.481  1.00 21.40     0.020 C 
HETATM   39  C37 8UH J9621     -35.807 126.897   6.431  1.00 21.74     0.020 C 
HETATM   40  C38 8UH J9621     -32.008 130.158   6.135  1.00 21.99     0.044 C 
HETATM   41  C39 8UH J9621     -35.067 130.478  10.389  1.00 18.53     0.048 C 
HETATM   42  C40 8UH J9621     -38.323 134.612  11.771  1.00 15.86     0.048 C 
HETATM   43  O23 8UH J9621     -32.191 126.235   3.317  1.00 24.94    -0.395 OA
ATOM     44  H23 8UH J9621     -31.679 126.762   2.715  1.00  0.00     0.210 HD
ENDROOT
TORSDOF 12
BEGIN_RES PHE A  61
REMARK  2 active torsions:
REMARK  status: ('A' for Active; 'I' for Inactive)
REMARK    1  A    between atoms: CA   and  CB  
REMARK    2  A    between atoms: CB   and  CG  
ROOT
ATOM      1  CA  PHE A  61     -36.237 128.293  12.768  1.00 39.40     0.164 C 
ENDROOT
BRANCH   1   2
ATOM      2  CB  PHE A  61     -36.813 128.951  11.509  1.00 39.41     0.058 C 
BRANCH   2   3
ATOM      3  CG  PHE A  61     -37.060 127.998  10.364  1.00 39.01    -0.020 A 
ATOM      4  CD2 PHE A  61     -36.289 126.856  10.210  1.00 40.32    -0.004 A 
ATOM      5  CE2 PHE A  61     -36.515 125.982   9.154  1.00 40.20    -0.000 A 
ATOM      6  CZ  PHE A  61     -37.515 126.237   8.244  1.00 40.34    -0.000 A 
ATOM      7  CE1 PHE A  61     -38.291 127.366   8.384  1.00 41.51    -0.000 A 
ATOM      8  CD1 PHE A  61     -38.061 128.244   9.436  1.00 39.94    -0.004 A 
ENDBRANCH   2   3
ENDBRANCH   1   2
END_RES PHE A  61
BEGIN_RES VAL A 134
REMARK  1 active torsions:
REMARK  status: ('A' for Active; 'I' for Inactive)
REMARK    3  A    between atoms: CA   and  CB  
ROOT
ATOM      9  CA  VAL A 134     -29.766 132.051   9.815  1.00 40.75     0.159 C 
ENDROOT
BRANCH   9  10
ATOM     10  CB  VAL A 134     -30.864 132.765   9.009  1.00 40.76     0.029 C 
ATOM     11  CG1 VAL A 134     -30.854 132.303   7.559  1.00 41.76     0.002 C 
ATOM     12  CG2 VAL A 134     -32.237 132.563   9.631  1.00 40.56     0.002 C 
ENDBRANCH   9  10
END_RES VAL A 134
BEGIN_RES TYR A 338
REMARK  3 active torsions:
REMARK  status: ('A' for Active; 'I' for Inactive)
REMARK    4  A    between atoms: CA   and  CB  
REMARK    5  A    between atoms: CB   and  CG  
REMARK    6  A    between atoms: CZ   and  OH  
ROOT
ATOM     13  CA  TYR A 338     -41.631 124.950   6.058  1.00 38.23     0.164 C 
ENDROOT
BRANCH  13  14
ATOM     14  CB  TYR A 338     -41.621 126.456   6.339  1.00 39.15     0.058 C 
BRANCH  14  15
ATOM     15  CG  TYR A 338     -40.405 127.207   5.847  1.00 39.03    -0.020 A 
ATOM     16  CD2 TYR A 338     -40.222 128.538   6.180  1.00 40.65    -0.002 A 
ATOM     17  CE2 TYR A 338     -39.127 129.262   5.734  1.00 40.91     0.024 A 
ATOM     18  CZ  TYR A 338     -38.182 128.652   4.930  1.00 42.33     0.089 A 
ATOM     19  CE1 TYR A 338     -38.341 127.321   4.588  1.00 40.63     0.024 A 
ATOM     20  CD1 TYR A 338     -39.450 126.618   5.034  1.00 39.27    -0.002 A 
BRANCH  18  21
ATOM     21  OH  TYR A 338     -37.096 129.355   4.488  1.00 43.36    -0.359 OA
ATOM     22  HH  TYR A 338     -37.044 129.639   3.583  1.00  0.00     0.217 HD
ENDBRANCH  18  21
ENDBRANCH  14  15
ENDBRANCH  13  14
END_RES TYR A 338
ENDMDL
MODEL 2
REMARK VINA RESULT:    -8.691      1.740      2.175
REMARK INTER + INTRA:         -11.524
REMARK INTER:                 -11.008
REMARK INTRA:                  -0.516
REMARK UNBOUND:                -2.833
REMARK  0 active torsions:
REMARK  status: ('A' for Active; 'I' for Inactive)
REMARK       I    between atoms: C3_3  and  O3_21 
REMARK       I    between atoms: C6_6  and  C7_7 
REMARK       I    between atoms: C8_8  and  C9_9 
REMARK       I    between atoms: C10_10  and  C11_11 
REMARK       I    between atoms: C12_12  and  C13_13 
REMARK       I    between atoms: C14_14  and  C15_15 
REMARK       I    between atoms: C23_25  and  O23_43 
REMARK       I    between atoms: C26_28  and  C27_29 
REMARK       I    between atoms: C28_30  and  C29_31 
REMARK       I    between atoms: C30_32  and  C31_33 
REMARK       I    between atoms: C32_34  and  C33_35 
REMARK       I    between atoms: C34_36  and  C35_37 
ROOT
HETATM    1  C1  8UH J9621     -50.282 145.756  10.205  1.00 21.11    -0.018 C 
HETATM    2  C2  8UH J9621     -51.251 146.164  11.328  1.00 20.11     0.045 C 
HETATM    3  C3  8UH J9621     -50.900 147.330  12.251  1.00 19.41     0.123 C 
HETATM    4  C4  8UH J9621     -49.515 147.959  12.045  1.00 18.39     0.066 C 
HETATM    5  C5  8UH J9621     -48.506 147.363  11.121  1.00 18.34    -0.074 C 
HETATM    6  C6  8UH J9621     -48.825 146.353  10.243  1.00 19.81    -0.048 C 
HETATM    7  C7  8UH J9621     -47.894 145.747   9.264  1.00 19.02     0.009 C 
HETATM    8  C8  8UH J9621     -46.985 144.795   9.550  1.00 17.97     0.007 C 
HETATM    9  C9  8UH J9621     -46.036 144.153   8.635  1.00 18.85    -0.062 C 
HETATM   10  C10 8UH J9621     -45.301 143.125   9.121  1.00 18.38     0.007 C 
HETATM   11  C11 8UH J9621     -44.374 142.290   8.394  1.00 18.57     0.001 C 
HETATM   12  C12 8UH J9621     -43.757 141.235   8.969  1.00 17.11     0.007 C 
HETATM   13  C13 8UH J9621     -42.861 140.260   8.330  1.00 20.42    -0.062 C 
HETATM   14  C14 8UH J9621     -42.376 139.251   9.089  1.00 20.50     0.007 C 
HETATM   15  C15 8UH J9621     -41.528 138.169   8.650  1.00 20.22     0.001 C 
HETATM   16  C16 8UH J9621     -51.019 146.188   8.912  1.00 19.56     0.020 C 
HETATM   17  C17 8UH J9621     -50.240 144.214  10.236  1.00 18.49     0.020 C 
HETATM   18  C18 8UH J9621     -47.225 148.098  11.275  1.00 16.89     0.044 C 
HETATM   19  C19 8UH J9621     -46.006 144.631   7.211  1.00 14.61     0.048 C 
HETATM   20  C20 8UH J9621     -42.566 140.423   6.857  1.00 17.59     0.048 C 
HETATM   21  O3  8UH J9621     -51.905 148.326  12.185  1.00 18.27    -0.395 OA
ATOM     22  H3  8UH J9621     -51.687 149.051  12.759  1.00  0.00     0.210 HD
HETATM   23  C21 8UH J9621     -33.978 127.770   6.965  1.00 23.07    -0.018 C 
HETATM   24  C22 8UH J9621     -33.238 127.152   5.765  1.00 21.39     0.045 C 
HETATM   25  C23 8UH J9621     -32.352 128.067   4.926  1.00 23.10     0.123 C 
HETATM   26  C24 8UH J9621     -31.744 129.243   5.696  1.00 23.25     0.066 C 
HETATM   27  C25 8UH J9621     -32.586 129.904   6.738  1.00 22.57    -0.074 C 
HETATM   28  C26 8UH J9621     -33.628 129.244   7.346  1.00 22.63    -0.048 C 
HETATM   29  C27 8UH J9621     -34.455 129.894   8.375  1.00 23.01     0.009 C 
HETATM   30  C28 8UH J9621     -35.438 130.785   8.147  1.00 21.85     0.007 C 
HETATM   31  C29 8UH J9621     -36.206 131.547   9.142  1.00 19.55    -0.062 C 
HETATM   32  C30 8UH J9621     -37.130 132.436   8.713  1.00 17.66     0.007 C 
HETATM   33  C31 8UH J9621     -37.964 133.272   9.542  1.00 19.12     0.001 C 
HETATM   34  C32 8UH J9621     -38.744 134.254   9.032  1.00 19.40     0.007 C 
HETATM   35  C33 8UH J9621     -39.620 135.212   9.730  1.00 19.31    -0.062 C 
HETATM   36  C34 8UH J9621     -40.220 136.169   8.991  1.00 17.72     0.007 C 
HETATM   37  C35 8UH J9621     -41.065 137.228   9.471  1.00 19.92     0.001 C 
HETATM   38  C36 8UH J9621     -33.601 126.829   8.124  1.00 21.40     0.020 C 
HETATM   39  C37 8UH J9621     -35.493 127.626   6.700  1.00 21.74     0.020 C 
HETATM   40  C38 8UH J9621     -32.074 131.285   6.953  1.00 21.99     0.044 C 
HETATM   41  C39 8UH J9621     -35.858 131.335  10.591  1.00 18.53     0.048 C 
HETATM   42  C40 8UH J9621     -39.732 135.102  11.227  1.00 15.86     0.048 C 
HETATM   43  O23 8UH J9621     -31.330 127.318   4.294  1.00 24.94    -0.395 OA
ATOM     44  H23 8UH J9621     -30.779 127.888   3.772  1.00  0.00     0.210 HD
ENDROOT
TORSDOF 12
BEGIN_RES PHE A  61
REMARK  2 active torsions:
REMARK  status: ('A' for Active; 'I' for Inactive)
REMARK    1  A    between atoms: CA   and  CB  
REMARK    2  A    between atoms: CB   and  CG  
ROOT
ATOM      1  CA  PHE A  61     -36.237 128.293  12.768  1.00 39.40     0.164 C 
ENDROOT
BRANCH   1   2
ATOM      2  CB  PHE A  61     -36.813 128.951  11.509  1.00 39.41     0.058 C 
BRANCH   2   3
ATOM      3  CG  PHE A  61     -37.029 128.004  10.353  1.00 39.01    -0.020 A 
ATOM      4  CD2 PHE A  61     -36.276 126.847  10.231  1.00 40.32    -0.004 A 
ATOM      5  CE2 PHE A  61     -36.474 125.978   9.165  1.00 40.20    -0.000 A 
ATOM      6  CZ  PHE A  61     -37.428 126.254   8.213  1.00 40.34    -0.000 A 
ATOM      7  CE1 PHE A  61     -38.186 127.398   8.321  1.00 41.51    -0.000 A 
ATOM      8  CD1 PHE A  61     -37.984 128.271   9.383  1.00 39.94    -0.004 A 
ENDBRANCH   2   3
ENDBRANCH   1   2
END_RES PHE A  61
BEGIN_RES VAL A 134
REMARK  1 active torsions:
REMARK  status: ('A' for Active; 'I' for Inactive)
REMARK    3  A    between atoms: CA   and  CB  
ROOT
ATOM      9  CA  VAL A 134     -29.766 132.051   9.815  1.00 40.75     0.159 C 
ENDROOT
BRANCH   9  10
ATOM     10  CB  VAL A 134     -30.864 132.765   9.009  1.00 40.76     0.029 C 
ATOM     11  CG1 VAL A 134     -32.136 132.897   9.833  1.00 41.76     0.002 C 
ATOM     12  CG2 VAL A 134     -30.400 134.125   8.510  1.00 40.56     0.002 C 
ENDBRANCH   9  10
END_RES VAL A 134
BEGIN_RES TYR A 338
REMARK  3 active torsions:
REMARK  status: ('A' for Active; 'I' for Inactive)
REMARK    4  A    between atoms: CA   and  CB  
REMARK    5  A    between atoms: CB   and  CG  
REMARK    6  A    between atoms: CZ   and  OH  
ROOT
ATOM     13  CA  TYR A 338     -41.631 124.950   6.058  1.00 38.23     0.164 C 
ENDROOT
BRANCH  13  14
ATOM     14  CB  TYR A 338     -41.621 126.456   6.339  1.00 39.15     0.058 C 
BRANCH  14  15
ATOM     15  CG  TYR A 338     -40.410 127.209   5.838  1.00 39.03    -0.020 A 
ATOM     16  CD2 TYR A 338     -40.237 128.546   6.151  1.00 40.65    -0.002 A 
ATOM     17  CE2 TYR A 338     -39.147 129.272   5.696  1.00 40.91     0.024 A 
ATOM     18  CZ  TYR A 338     -38.197 128.657   4.903  1.00 42.33     0.089 A 
ATOM     19  CE1 TYR A 338     -38.345 127.320   4.580  1.00 40.63     0.024 A 
ATOM     20  CD1 TYR A 338     -39.449 126.615   5.034  1.00 39.27    -0.002 A 
BRANCH  18  21
ATOM     21  OH  TYR A 338     -37.115 129.361   4.451  1.00 43.36    -0.359 OA
ATOM     22  HH  TYR A 338     -36.668 129.973   5.024  1.00  0.00     0.217 HD
ENDBRANCH  18  21
ENDBRANCH  14  15
ENDBRANCH  13  14
END_RES TYR A 338
ENDMDL
MODEL 3
REMARK VINA RESULT:    -7.850      1.935     17.072
REMARK INTER + INTRA:         -10.684
REMARK INTER:                 -10.253
REMARK INTRA:                  -0.431
REMARK UNBOUND:                -2.833
REMARK  0 active torsions:
REMARK  status: ('A' for Active; 'I' for Inactive)
REMARK       I    between atoms: C3_3  and  O3_21 
REMARK       I    between atoms: C6_6  and  C7_7 
REMARK       I    between atoms: C8_8  and  C9_9 
REMARK       I    between atoms: C10_10  and  C11_11 
REMARK       I    between atoms: C12_12  and  C13_13 
REMARK       I    between atoms: C14_14  and  C15_15 
REMARK       I    between atoms: C23_25  and  O23_43 
REMARK       I    between atoms: C26_28  and  C27_29 
REMARK       I    between atoms: C28_30  and  C29_31 
REMARK       I    between atoms: C30_32  and  C31_33 
REMARK       I    between atoms: C32_34  and  C33_35 
REMARK       I    between atoms: C34_36  and  C35_37 
ROOT
HETATM    1  C1  8UH J9621     -34.106 128.311   7.112  1.00 21.11    -0.018 C 
HETATM    2  C2  8UH J9621     -33.381 127.695   5.903  1.00 20.11     0.045 C 
HETATM    3  C3  8UH J9621     -31.942 128.100   5.590  1.00 19.41     0.123 C 
HETATM    4  C4  8UH J9621     -31.345 129.205   6.473  1.00 18.39     0.066 C 
HETATM    5  C5  8UH J9621     -32.171 129.957   7.463  1.00 18.34    -0.074 C 
HETATM    6  C6  8UH J9621     -33.448 129.568   7.797  1.00 19.81    -0.048 C 
HETATM    7  C7  8UH J9621     -34.307 130.232   8.803  1.00 19.02     0.009 C 
HETATM    8  C8  8UH J9621     -35.034 131.345   8.584  1.00 17.97     0.007 C 
HETATM    9  C9  8UH J9621     -35.903 132.052   9.529  1.00 18.85    -0.062 C 
HETATM   10  C10 8UH J9621     -36.639 133.081   9.047  1.00 18.38     0.007 C 
HETATM   11  C11 8UH J9621     -37.622 133.865   9.758  1.00 18.57     0.001 C 
HETATM   12  C12 8UH J9621     -38.358 134.818   9.146  1.00 17.11     0.007 C 
HETATM   13  C13 8UH J9621     -39.441 135.626   9.725  1.00 20.42    -0.062 C 
HETATM   14  C14 8UH J9621     -40.077 136.506   8.918  1.00 20.50     0.007 C 
HETATM   15  C15 8UH J9621     -41.190 137.355   9.271  1.00 20.22     0.001 C 
HETATM   16  C16 8UH J9621     -34.216 127.134   8.113  1.00 19.56     0.020 C 
HETATM   17  C17 8UH J9621     -35.528 128.646   6.613  1.00 18.49     0.020 C 
HETATM   18  C18 8UH J9621     -31.353 131.061   8.026  1.00 16.89     0.044 C 
HETATM   19  C19 8UH J9621     -35.969 131.537  10.938  1.00 14.61     0.048 C 
HETATM   20  C20 8UH J9621     -39.803 135.400  11.175  1.00 17.59     0.048 C 
HETATM   21  O3  8UH J9621     -31.100 126.961   5.596  1.00 18.27    -0.395 OA
ATOM     22  H3  8UH J9621     -30.205 127.212   5.401  1.00  0.00     0.210 HD
HETATM   23  C21 8UH J9621     -51.012 145.758  10.219  1.00 23.07    -0.018 C 
HETATM   24  C22 8UH J9621     -51.975 146.176  11.345  1.00 21.39     0.045 C 
HETATM   25  C23 8UH J9621     -51.371 146.561  12.691  1.00 23.10     0.123 C 
HETATM   26  C24 8UH J9621     -49.962 147.155  12.609  1.00 23.25     0.066 C 
HETATM   27  C25 8UH J9621     -49.022 146.583  11.597  1.00 22.57    -0.074 C 
HETATM   28  C26 8UH J9621     -49.481 145.931  10.477  1.00 22.63    -0.048 C 
HETATM   29  C27 8UH J9621     -48.557 145.371   9.479  1.00 23.01     0.009 C 
HETATM   30  C28 8UH J9621     -47.870 144.220   9.601  1.00 21.85     0.007 C 
HETATM   31  C29 8UH J9621     -46.849 143.683   8.690  1.00 19.55    -0.062 C 
HETATM   32  C30 8UH J9621     -46.233 142.523   9.009  1.00 17.66     0.007 C 
HETATM   33  C31 8UH J9621     -45.207 141.858   8.243  1.00 19.12     0.001 C 
HETATM   34  C32 8UH J9621     -44.525 140.789   8.715  1.00 19.40     0.007 C 
HETATM   35  C33 8UH J9621     -43.436 140.020   8.087  1.00 19.31    -0.062 C 
HETATM   36  C34 8UH J9621     -42.848 139.049   8.817  1.00 17.72     0.007 C 
HETATM   37  C35 8UH J9621     -41.742 138.222   8.423  1.00 19.92     0.001 C 
HETATM   38  C36 8UH J9621     -51.447 146.653   9.044  1.00 21.40     0.020 C 
HETATM   39  C37 8UH J9621     -51.335 144.291   9.854  1.00 21.74     0.020 C 
HETATM   40  C38 8UH J9621     -47.628 146.872  12.031  1.00 21.99     0.044 C 
HETATM   41  C39 8UH J9621     -46.502 144.510   7.480  1.00 18.53     0.048 C 
HETATM   42  C40 8UH J9621     -43.005 140.416   6.700  1.00 15.86     0.048 C 
HETATM   43  O23 8UH J9621     -52.233 147.448  13.381  1.00 24.94    -0.395 OA
ATOM     44  H23 8UH J9621     -51.857 147.688  14.219  1.00  0.00     0.210 HD
ENDROOT
TORSDOF 12
BEGIN_RES PHE A  61
REMARK  2 active torsions:
REMARK  status: ('A' for Active; 'I' for Inactive)
REMARK    1  A    between atoms: CA   and  CB  
REMARK    2  A    between atoms: CB   and  CG  
ROOT
ATOM      1  CA  PHE A  61     -36.237 128.293  12.768  1.00 39.40     0.164 C 
ENDROOT
BRANCH   1   2
ATOM      2  CB  PHE A  61     -36.813 128.951  11.509  1.00 39.41     0.058 C 
BRANCH   2   3
ATOM      3  CG  PHE A  61     -37.024 128.005  10.351  1.00 39.01    -0.020 A 
ATOM      4  CD2 PHE A  61     -36.280 126.841  10.239  1.00 40.32    -0.004 A 
ATOM      5  CE2 PHE A  61     -36.473 125.973   9.171  1.00 40.20    -0.000 A 
ATOM      6  CZ  PHE A  61     -37.413 126.257   8.207  1.00 40.34    -0.000 A 
ATOM      7  CE1 PHE A  61     -38.162 127.408   8.306  1.00 41.51    -0.000 A 
ATOM      8  CD1 PHE A  61     -37.965 128.280   9.369  1.00 39.94    -0.004 A 
ENDBRANCH   2   3
ENDBRANCH   1   2
END_RES PHE A  61
BEGIN_RES VAL A 134
REMARK  1 active torsions:
REMARK  status: ('A' for Active; 'I' for Inactive)
REMARK    3  A    between atoms: CA   and  CB  
ROOT
ATOM      9  CA  VAL A 134     -29.766 132.051   9.815  1.00 40.75     0.159 C 
ENDROOT
BRANCH   9  10
ATOM     10  CB  VAL A 134     -30.864 132.765   9.009  1.00 40.76     0.029 C 
ATOM     11  CG1 VAL A 134     -32.099 132.994   9.868  1.00 41.76     0.002 C 
ATOM     12  CG2 VAL A 134     -30.365 134.075   8.420  1.00 40.56     0.002 C 
ENDBRANCH   9  10
END_RES VAL A 134
BEGIN_RES TYR A 338
REMARK  3 active torsions:
REMARK  status: ('A' for Active; 'I' for Inactive)
REMARK    4  A    between atoms: CA   and  CB  
REMARK    5  A    between atoms: CB   and  CG  
REMARK    6  A    between atoms: CZ   and  OH  
ROOT
ATOM     13  CA  TYR A 338     -41.631 124.950   6.058  1.00 38.23     0.164 C 
ENDROOT
BRANCH  13  14
ATOM     14  CB  TYR A 338     -41.621 126.456   6.339  1.00 39.15     0.058 C 
BRANCH  14  15
ATOM     15  CG  TYR A 338     -40.416 127.211   5.826  1.00 39.03    -0.020 A 
ATOM     16  CD2 TYR A 338     -40.267 128.560   6.098  1.00 40.65    -0.002 A 
ATOM     17  CE2 TYR A 338     -39.183 129.288   5.631  1.00 40.91     0.024 A 
ATOM     18  CZ  TYR A 338     -38.215 128.662   4.868  1.00 42.33     0.089 A 
ATOM     19  CE1 TYR A 338     -38.340 127.313   4.586  1.00 40.63     0.024 A 
ATOM     20  CD1 TYR A 338     -39.438 126.607   5.052  1.00 39.27    -0.002 A 
BRANCH  18  21
ATOM     21  OH  TYR A 338     -37.140 129.368   4.405  1.00 43.36    -0.359 OA
ATOM     22  HH  TYR A 338     -37.187 130.313   4.318  1.00  0.00     0.217 HD
ENDBRANCH  18  21
ENDBRANCH  14  15
ENDBRANCH  13  14
END_RES TYR A 338
ENDMDL
