MODEL 1
REMARK VINA RESULT:   -11.099      0.000      0.000
REMARK INTER + INTRA:         -13.937
REMARK INTER:                 -11.099
REMARK INTRA:                  -2.838
REMARK UNBOUND:                -2.838
REMARK  0 active torsions:
REMARK  status: ('A' for Active; 'I' for Inactive)
REMARK       I    between atoms: C3_3  and  O3_21 
REMARK       I    between atoms: C6_6  and  C7_7 
REMARK       I    between atoms: C8_8  and  C9_9 
REMARK       I    between atoms: C10_10  and  C11_11 
REMARK       I    between atoms: C12_12  and  C13_13 
REMARK       I    between atoms: C14_14  and  C15_15 
REMARK       I    between atoms: C23_25  and  O23_43 
REMARK       I    between atoms: C26_28  and  C27_29 
REMARK       I    between atoms: C28_30  and  C29_31 
REMARK       I    between atoms: C30_32  and  C31_33 
REMARK       I    between atoms: C32_34  and  C33_35 
REMARK       I    between atoms: C34_36  and  C35_37 
ROOT
HETATM    1  C1  8UH Y1621     -47.946 145.144  12.558  1.00 37.60    -0.018 C 
HETATM    2  C2  8UH Y1621     -48.834 145.774  13.617  1.00 37.60     0.045 C 
HETATM    3  C3  8UH Y1621     -48.126 146.508  14.731  1.00 37.60     0.123 C 
HETATM    4  C4  8UH Y1621     -47.125 147.467  14.140  1.00 37.60     0.066 C 
HETATM    5  C5  8UH Y1621     -46.193 146.800  13.175  1.00 37.60    -0.074 C 
HETATM    6  C6  8UH Y1621     -46.583 145.785  12.390  1.00 37.60    -0.048 C 
HETATM    7  C7  8UH Y1621     -45.712 145.280  11.294  1.00 37.60     0.009 C 
HETATM    8  C8  8UH Y1621     -44.716 144.409  11.485  1.00 37.60     0.007 C 
HETATM    9  C9  8UH Y1621     -43.881 143.918  10.386  1.00 37.60    -0.062 C 
HETATM   10  C10 8UH Y1621     -43.316 142.724  10.559  1.00 37.60     0.007 C 
HETATM   11  C11 8UH Y1621     -42.472 142.050   9.589  1.00 37.60     0.001 C 
HETATM   12  C12 8UH Y1621     -42.143 140.823   9.960  1.00 37.60     0.007 C 
HETATM   13  C13 8UH Y1621     -41.333 139.872   9.195  1.00 37.60    -0.062 C 
HETATM   14  C14 8UH Y1621     -40.979 138.733   9.796  1.00 37.60     0.007 C 
HETATM   15  C15 8UH Y1621     -40.211 137.730   9.079  1.00 37.60     0.001 C 
HETATM   16  C16 8UH Y1621     -48.762 145.143  11.274  1.00 37.60     0.020 C 
HETATM   17  C17 8UH Y1621     -47.682 143.709  12.945  1.00 37.60     0.020 C 
HETATM   18  C18 8UH Y1621     -44.934 147.577  12.943  1.00 37.60     0.044 C 
HETATM   19  C19 8UH Y1621     -43.678 144.719   9.144  1.00 37.60     0.048 C 
HETATM   20  C20 8UH Y1621     -40.937 140.157   7.782  1.00 37.60     0.048 C 
HETATM   21  O3  8UH Y1621     -49.090 147.290  15.434  1.00 37.60    -0.395 OA
ATOM     22  H3  8UH Y1621     -48.644 147.752  16.135  1.00  0.00     0.210 HD
HETATM   23  C21 8UH Y1621     -34.407 126.804   6.373  1.00 90.34    -0.018 C 
HETATM   24  C22 8UH Y1621     -34.044 126.113   5.063  1.00 90.34     0.045 C 
HETATM   25  C23 8UH Y1621     -33.101 126.837   4.116  1.00 90.34     0.123 C 
HETATM   26  C24 8UH Y1621     -32.096 127.681   4.872  1.00 90.34     0.066 C 
HETATM   27  C25 8UH Y1621     -32.862 128.629   5.747  1.00 90.34    -0.074 C 
HETATM   28  C26 8UH Y1621     -33.807 128.180   6.570  1.00 90.34    -0.048 C 
HETATM   29  C27 8UH Y1621     -34.293 128.993   7.713  1.00 90.34     0.009 C 
HETATM   30  C28 8UH Y1621     -35.189 129.966   7.534  1.00 90.34     0.007 C 
HETATM   31  C29 8UH Y1621     -35.727 130.778   8.614  1.00 37.60    -0.062 C 
HETATM   32  C30 8UH Y1621     -36.777 131.545   8.333  1.00 37.60     0.007 C 
HETATM   33  C31 8UH Y1621     -37.443 132.417   9.283  1.00 37.60     0.001 C 
HETATM   34  C32 8UH Y1621     -37.878 133.554   8.765  1.00 37.60     0.007 C 
HETATM   35  C33 8UH Y1621     -38.585 134.558   9.559  1.00 37.60    -0.062 C 
HETATM   36  C34 8UH Y1621     -38.975 135.688   8.971  1.00 37.60     0.007 C 
HETATM   37  C35 8UH Y1621     -39.707 136.693   9.725  1.00 37.60     0.001 C 
HETATM   38  C36 8UH Y1621     -33.992 125.858   7.494  1.00 90.34     0.020 C 
HETATM   39  C37 8UH Y1621     -35.912 126.985   6.408  1.00 90.34     0.020 C 
HETATM   40  C38 8UH Y1621     -31.961 129.764   6.120  1.00 90.34     0.044 C 
HETATM   41  C39 8UH Y1621     -35.110 130.737   9.973  1.00 37.60     0.048 C 
HETATM   42  C40 8UH Y1621     -38.879 134.293  10.996  1.00 37.60     0.048 C 
HETATM   43  O23 8UH Y1621     -32.388 125.854   3.366  1.00 90.34    -0.395 OA
ATOM     44  H23 8UH Y1621     -31.798 126.307   2.774  1.00  0.00     0.210 HD
ENDROOT
TORSDOF 12
BEGIN_RES PHE A  61
REMARK  2 active torsions:
REMARK  status: ('A' for Active; 'I' for Inactive)
REMARK    1  A    between atoms: CA   and  CB  
REMARK    2  A    between atoms: CB   and  CG  
ROOT
ATOM      1  CA  PHE A  61     -36.237 128.293  12.768  1.00 39.40     0.164 C 
ENDROOT
BRANCH   1   2
ATOM      2  CB  PHE A  61     -36.813 128.951  11.509  1.00 39.41     0.058 C 
BRANCH   2   3
ATOM      3  CG  PHE A  61     -37.079 127.995  10.371  1.00 39.01    -0.020 A 
ATOM      4  CD2 PHE A  61     -36.332 126.836  10.225  1.00 40.32    -0.004 A 
ATOM      5  CE2 PHE A  61     -36.576 125.959   9.176  1.00 40.20    -0.000 A 
ATOM      6  CZ  PHE A  61     -37.572 126.227   8.265  1.00 40.34    -0.000 A 
ATOM      7  CE1 PHE A  61     -38.325 127.373   8.397  1.00 41.51    -0.000 A 
ATOM      8  CD1 PHE A  61     -38.077 128.254   9.442  1.00 39.94    -0.004 A 
ENDBRANCH   2   3
ENDBRANCH   1   2
END_RES PHE A  61
BEGIN_RES VAL A 134
REMARK  1 active torsions:
REMARK  status: ('A' for Active; 'I' for Inactive)
REMARK    3  A    between atoms: CA   and  CB  
ROOT
ATOM      9  CA  VAL A 134     -29.766 132.051   9.815  1.00 40.75     0.159 C 
ENDROOT
BRANCH   9  10
ATOM     10  CB  VAL A 134     -30.864 132.765   9.009  1.00 40.76     0.029 C 
ATOM     11  CG1 VAL A 134     -31.174 132.003   7.729  1.00 41.76     0.002 C 
ATOM     12  CG2 VAL A 134     -32.125 132.968   9.835  1.00 40.56     0.002 C 
ENDBRANCH   9  10
END_RES VAL A 134
BEGIN_RES TYR A 338
REMARK  3 active torsions:
REMARK  status: ('A' for Active; 'I' for Inactive)
REMARK    4  A    between atoms: CA   and  CB  
REMARK    5  A    between atoms: CB   and  CG  
REMARK    6  A    between atoms: CZ   and  OH  
ROOT
ATOM     13  CA  TYR A 338     -41.631 124.950   6.058  1.00 38.23     0.164 C 
ENDROOT
BRANCH  13  14
ATOM     14  CB  TYR A 338     -41.621 126.456   6.339  1.00 39.15     0.058 C 
BRANCH  14  15
ATOM     15  CG  TYR A 338     -40.409 127.209   5.840  1.00 39.03    -0.020 A 
ATOM     16  CD2 TYR A 338     -40.232 128.544   6.160  1.00 40.65    -0.002 A 
ATOM     17  CE2 TYR A 338     -39.141 129.269   5.707  1.00 40.91     0.024 A 
ATOM     18  CZ  TYR A 338     -38.193 128.656   4.909  1.00 42.33     0.089 A 
ATOM     19  CE1 TYR A 338     -38.345 127.321   4.579  1.00 40.63     0.024 A 
ATOM     20  CD1 TYR A 338     -39.451 126.617   5.032  1.00 39.27    -0.002 A 
BRANCH  18  21
ATOM     21  OH  TYR A 338     -37.111 129.360   4.460  1.00 43.36    -0.359 OA
ATOM     22  HH  TYR A 338     -36.402 128.916   4.010  1.00  0.00     0.217 HD
ENDBRANCH  18  21
ENDBRANCH  14  15
ENDBRANCH  13  14
END_RES TYR A 338
ENDMDL
MODEL 2
REMARK VINA RESULT:    -9.467      1.020      1.307
REMARK INTER + INTRA:         -12.305
REMARK INTER:                  -9.440
REMARK INTRA:                  -2.865
REMARK UNBOUND:                -2.838
REMARK  0 active torsions:
REMARK  status: ('A' for Active; 'I' for Inactive)
REMARK       I    between atoms: C3_3  and  O3_21 
REMARK       I    between atoms: C6_6  and  C7_7 
REMARK       I    between atoms: C8_8  and  C9_9 
REMARK       I    between atoms: C10_10  and  C11_11 
REMARK       I    between atoms: C12_12  and  C13_13 
REMARK       I    between atoms: C14_14  and  C15_15 
REMARK       I    between atoms: C23_25  and  O23_43 
REMARK       I    between atoms: C26_28  and  C27_29 
REMARK       I    between atoms: C28_30  and  C29_31 
REMARK       I    between atoms: C30_32  and  C31_33 
REMARK       I    between atoms: C32_34  and  C33_35 
REMARK       I    between atoms: C34_36  and  C35_37 
ROOT
HETATM    1  C1  8UH Y1621     -49.410 144.400  11.399  1.00 37.60    -0.018 C 
HETATM    2  C2  8UH Y1621     -50.369 145.008  12.408  1.00 37.60     0.045 C 
HETATM    3  C3  8UH Y1621     -49.747 145.853  13.495  1.00 37.60     0.123 C 
HETATM    4  C4  8UH Y1621     -48.814 146.860  12.873  1.00 37.60     0.066 C 
HETATM    5  C5  8UH Y1621     -47.811 146.224  11.960  1.00 37.60    -0.074 C 
HETATM    6  C6  8UH Y1621     -48.099 145.141  11.223  1.00 37.60    -0.048 C 
HETATM    7  C7  8UH Y1621     -47.166 144.655  10.170  1.00 37.60     0.009 C 
HETATM    8  C8  8UH Y1621     -46.107 143.879  10.425  1.00 37.60     0.007 C 
HETATM    9  C9  8UH Y1621     -45.212 143.403   9.368  1.00 37.60    -0.062 C 
HETATM   10  C10 8UH Y1621     -44.556 142.270   9.614  1.00 37.60     0.007 C 
HETATM   11  C11 8UH Y1621     -43.638 141.619   8.695  1.00 37.60     0.001 C 
HETATM   12  C12 8UH Y1621     -43.219 140.444   9.137  1.00 37.60     0.007 C 
HETATM   13  C13 8UH Y1621     -42.318 139.525   8.437  1.00 37.60    -0.062 C 
HETATM   14  C14 8UH Y1621     -41.886 138.451   9.103  1.00 37.60     0.007 C 
HETATM   15  C15 8UH Y1621     -41.023 137.479   8.453  1.00 37.60     0.001 C 
HETATM   16  C16 8UH Y1621     -50.194 144.267  10.103  1.00 37.60     0.020 C 
HETATM   17  C17 8UH Y1621     -49.039 143.013  11.866  1.00 37.60     0.020 C 
HETATM   18  C18 8UH Y1621     -46.614 147.089  11.711  1.00 37.60     0.044 C 
HETATM   19  C19 8UH Y1621     -45.046 144.154   8.090  1.00 37.60     0.048 C 
HETATM   20  C20 8UH Y1621     -41.915 139.769   7.019  1.00 37.60     0.048 C 
HETATM   21  O3  8UH Y1621     -50.787 146.588  14.138  1.00 37.60    -0.395 OA
ATOM     22  H3  8UH Y1621     -50.396 147.120  14.822  1.00  0.00     0.210 HD
HETATM   23  C21 8UH Y1621     -34.294 126.944   6.428  1.00 90.34    -0.018 C 
HETATM   24  C22 8UH Y1621     -33.848 126.219   5.163  1.00 90.34     0.045 C 
HETATM   25  C23 8UH Y1621     -32.946 126.969   4.196  1.00 90.34     0.123 C 
HETATM   26  C24 8UH Y1621     -32.029 127.930   4.925  1.00 90.34     0.066 C 
HETATM   27  C25 8UH Y1621     -32.889 128.855   5.735  1.00 90.34    -0.074 C 
HETATM   28  C26 8UH Y1621     -33.812 128.373   6.564  1.00 90.34    -0.048 C 
HETATM   29  C27 8UH Y1621     -34.388 129.200   7.654  1.00 90.34     0.009 C 
HETATM   30  C28 8UH Y1621     -35.356 130.086   7.408  1.00 90.34     0.007 C 
HETATM   31  C29 8UH Y1621     -35.982 130.905   8.433  1.00 37.60    -0.062 C 
HETATM   32  C30 8UH Y1621     -37.084 131.567   8.094  1.00 37.60     0.007 C 
HETATM   33  C31 8UH Y1621     -37.839 132.429   8.985  1.00 37.60     0.001 C 
HETATM   34  C32 8UH Y1621     -38.353 133.498   8.401  1.00 37.60     0.007 C 
HETATM   35  C33 8UH Y1621     -39.157 134.480   9.128  1.00 37.60    -0.062 C 
HETATM   36  C34 8UH Y1621     -39.624 135.543   8.474  1.00 37.60     0.007 C 
HETATM   37  C35 8UH Y1621     -40.451 136.522   9.162  1.00 37.60     0.001 C 
HETATM   38  C36 8UH Y1621     -33.829 126.093   7.604  1.00 90.34     0.020 C 
HETATM   39  C37 8UH Y1621     -35.809 127.002   6.427  1.00 90.34     0.020 C 
HETATM   40  C38 8UH Y1621     -32.091 130.078   6.065  1.00 90.34     0.044 C 
HETATM   41  C39 8UH Y1621     -35.394 130.983   9.804  1.00 37.60     0.048 C 
HETATM   42  C40 8UH Y1621     -39.460 134.265  10.572  1.00 37.60     0.048 C 
HETATM   43  O23 8UH Y1621     -32.139 126.011   3.512  1.00 90.34    -0.395 OA
ATOM     44  H23 8UH Y1621     -31.575 126.480   2.908  1.00  0.00     0.210 HD
ENDROOT
TORSDOF 12
BEGIN_RES PHE A  61
REMARK  2 active torsions:
REMARK  status: ('A' for Active; 'I' for Inactive)
REMARK    1  A    between atoms: CA   and  CB  
REMARK    2  A    between atoms: CB   and  CG  
ROOT
ATOM      1  CA  PHE A  61     -36.237 128.293  12.768  1.00 39.40     0.164 C 
ENDROOT
BRANCH   1   2
ATOM      2  CB  PHE A  61     -36.813 128.951  11.509  1.00 39.41     0.058 C 
BRANCH   2   3
ATOM      3  CG  PHE A  61     -37.060 127.998  10.364  1.00 39.01    -0.020 A 
ATOM      4  CD2 PHE A  61     -38.066 128.239   9.442  1.00 40.32    -0.004 A 
ATOM      5  CE2 PHE A  61     -38.295 127.360   8.391  1.00 40.20    -0.000 A 
ATOM      6  CZ  PHE A  61     -37.519 126.232   8.248  1.00 40.34    -0.000 A 
ATOM      7  CE1 PHE A  61     -36.514 125.979   9.155  1.00 41.51    -0.000 A 
ATOM      8  CD1 PHE A  61     -36.289 126.855  10.210  1.00 39.94    -0.004 A 
ENDBRANCH   2   3
ENDBRANCH   1   2
END_RES PHE A  61
BEGIN_RES VAL A 134
REMARK  1 active torsions:
REMARK  status: ('A' for Active; 'I' for Inactive)
REMARK    3  A    between atoms: CA   and  CB  
ROOT
ATOM      9  CA  VAL A 134     -29.766 132.051   9.815  1.00 40.75     0.159 C 
ENDROOT
BRANCH   9  10
ATOM     10  CB  VAL A 134     -30.864 132.765   9.009  1.00 40.76     0.029 C 
ATOM     11  CG1 VAL A 134     -30.901 132.251   7.577  1.00 41.76     0.002 C 
ATOM     12  CG2 VAL A 134     -32.227 132.623   9.669  1.00 40.56     0.002 C 
ENDBRANCH   9  10
END_RES VAL A 134
BEGIN_RES TYR A 338
REMARK  3 active torsions:
REMARK  status: ('A' for Active; 'I' for Inactive)
REMARK    4  A    between atoms: CA   and  CB  
REMARK    5  A    between atoms: CB   and  CG  
REMARK    6  A    between atoms: CZ   and  OH  
ROOT
ATOM     13  CA  TYR A 338     -41.631 124.950   6.058  1.00 38.23     0.164 C 
ENDROOT
BRANCH  13  14
ATOM     14  CB  TYR A 338     -41.621 126.456   6.339  1.00 39.15     0.058 C 
BRANCH  14  15
ATOM     15  CG  TYR A 338     -40.410 127.209   5.838  1.00 39.03    -0.020 A 
ATOM     16  CD2 TYR A 338     -40.232 128.544   6.159  1.00 40.65    -0.002 A 
ATOM     17  CE2 TYR A 338     -39.142 129.269   5.704  1.00 40.91     0.024 A 
ATOM     18  CZ  TYR A 338     -38.196 128.657   4.903  1.00 42.33     0.089 A 
ATOM     19  CE1 TYR A 338     -38.350 127.322   4.572  1.00 40.63     0.024 A 
ATOM     20  CD1 TYR A 338     -39.454 126.618   5.027  1.00 39.27    -0.002 A 
BRANCH  18  21
ATOM     21  OH  TYR A 338     -37.115 129.361   4.452  1.00 43.36    -0.359 OA
ATOM     22  HH  TYR A 338     -36.234 129.088   4.681  1.00  0.00     0.217 HD
ENDBRANCH  18  21
ENDBRANCH  14  15
ENDBRANCH  13  14
END_RES TYR A 338
ENDMDL
