MODEL 1
REMARK VINA RESULT:   -10.632      0.000      0.000
REMARK INTER + INTRA:         -12.495
REMARK INTER:                 -10.632
REMARK INTRA:                  -1.863
REMARK UNBOUND:                -1.863
REMARK  0 active torsions:
REMARK  status: ('A' for Active; 'I' for Inactive)
REMARK       I    between atoms: C3_3  and  O3_21 
REMARK       I    between atoms: C6_6  and  C7_7 
REMARK       I    between atoms: C8_8  and  C9_9 
REMARK       I    between atoms: C10_10  and  C11_11 
REMARK       I    between atoms: C12_12  and  C13_13 
REMARK       I    between atoms: C14_14  and  C15_15 
REMARK       I    between atoms: C23_25  and  O23_43 
REMARK       I    between atoms: C26_28  and  C27_29 
REMARK       I    between atoms: C28_30  and  C29_31 
REMARK       I    between atoms: C30_32  and  C31_33 
REMARK       I    between atoms: C32_34  and  C33_35 
REMARK       I    between atoms: C34_36  and  C35_37 
ROOT
HETATM    1  C1  8UH W1621     -47.832 146.104  12.563  1.00 22.20    -0.018 C 
HETATM    2  C2  8UH W1621     -48.384 146.090  13.983  1.00 22.20     0.045 C 
HETATM    3  C3  8UH W1621     -47.523 146.711  15.060  1.00 22.20     0.123 C 
HETATM    4  C4  8UH W1621     -46.586 147.724  14.449  1.00 22.20     0.066 C 
HETATM    5  C5  8UH W1621     -45.759 146.973  13.458  1.00 22.20    -0.074 C 
HETATM    6  C6  8UH W1621     -46.357 146.364  12.454  1.00 22.20    -0.048 C 
HETATM    7  C7  8UH W1621     -45.631 145.745  11.335  1.00 22.20     0.009 C 
HETATM    8  C8  8UH W1621     -44.452 145.178  11.569  1.00 22.20     0.007 C 
HETATM    9  C9  8UH W1621     -43.847 144.353  10.510  1.00 22.20    -0.062 C 
HETATM   10  C10 8UH W1621     -42.968 143.414  10.879  1.00 22.20     0.007 C 
HETATM   11  C11 8UH W1621     -42.409 142.427   9.961  1.00 22.20     0.001 C 
HETATM   12  C12 8UH W1621     -41.723 141.401  10.447  1.00 22.20     0.007 C 
HETATM   13  C13 8UH W1621     -41.205 140.337   9.568  1.00 22.20    -0.062 C 
HETATM   14  C14 8UH W1621     -40.660 139.256  10.146  1.00 22.20     0.007 C 
HETATM   15  C15 8UH W1621     -40.132 138.116   9.406  1.00 22.20     0.001 C 
HETATM   16  C16 8UH W1621     -48.483 147.227  11.777  1.00 22.20     0.020 C 
HETATM   17  C17 8UH W1621     -48.199 144.792  11.913  1.00 22.20     0.020 C 
HETATM   18  C18 8UH W1621     -44.497 147.738  13.270  1.00 22.20     0.044 C 
HETATM   19  C19 8UH W1621     -44.298 144.521   9.092  1.00 22.20     0.048 C 
HETATM   20  C20 8UH W1621     -41.335 140.497   8.087  1.00 22.20     0.048 C 
HETATM   21  O3  8UH W1621     -48.406 147.354  15.971  1.00 22.20    -0.395 OA
ATOM     22  H3  8UH W1621     -47.865 147.744  16.647  1.00  0.00     0.210 HD
HETATM   23  C21 8UH W1621     -34.466 126.905   6.562  1.00 26.19    -0.018 C 
HETATM   24  C22 8UH W1621     -33.955 126.078   5.388  1.00 26.65     0.045 C 
HETATM   25  C23 8UH W1621     -33.150 126.804   4.327  1.00 28.07     0.123 C 
HETATM   26  C24 8UH W1621     -32.227 127.829   4.935  1.00 30.07     0.066 C 
HETATM   27  C25 8UH W1621     -33.032 128.781   5.757  1.00 28.83    -0.074 C 
HETATM   28  C26 8UH W1621     -33.916 128.321   6.648  1.00 27.49    -0.048 C 
HETATM   29  C27 8UH W1621     -34.403 129.162   7.771  1.00 29.45     0.009 C 
HETATM   30  C28 8UH W1621     -35.270 130.161   7.595  1.00 27.83     0.007 C 
HETATM   31  C29 8UH W1621     -35.781 130.965   8.708  1.00 22.20    -0.062 C 
HETATM   32  C30 8UH W1621     -36.665 131.926   8.402  1.00 22.20     0.007 C 
HETATM   33  C31 8UH W1621     -37.246 132.848   9.368  1.00 22.20     0.001 C 
HETATM   34  C32 8UH W1621     -37.980 133.864   8.932  1.00 22.20     0.007 C 
HETATM   35  C33 8UH W1621     -38.518 134.875   9.854  1.00 22.20    -0.062 C 
HETATM   36  C34 8UH W1621     -39.096 135.957   9.309  1.00 22.20     0.007 C 
HETATM   37  C35 8UH W1621     -39.634 137.083  10.065  1.00 22.20     0.001 C 
HETATM   38  C36 8UH W1621     -34.088 126.106   7.797  1.00 26.46     0.020 C 
HETATM   39  C37 8UH W1621     -35.980 127.014   6.468  1.00 26.61     0.020 C 
HETATM   40  C38 8UH W1621     -32.145 129.954   6.015  1.00 29.43     0.044 C 
HETATM   41  C39 8UH W1621     -35.320 130.652  10.097  1.00 22.20     0.048 C 
HETATM   42  C40 8UH W1621     -38.338 134.680  11.326  1.00 22.20     0.048 C 
HETATM   43  O23 8UH W1621     -32.370 125.850   3.612  1.00 27.44    -0.395 OA
ATOM     44  H23 8UH W1621     -31.865 126.304   2.948  1.00  0.00     0.210 HD
ENDROOT
TORSDOF 12
BEGIN_RES PHE A  61
REMARK  2 active torsions:
REMARK  status: ('A' for Active; 'I' for Inactive)
REMARK    1  A    between atoms: CA   and  CB  
REMARK    2  A    between atoms: CB   and  CG  
ROOT
ATOM      1  CA  PHE A  61     -36.237 128.293  12.768  1.00 39.40     0.164 C 
ENDROOT
BRANCH   1   2
ATOM      2  CB  PHE A  61     -36.813 128.951  11.509  1.00 39.41     0.058 C 
BRANCH   2   3
ATOM      3  CG  PHE A  61     -37.119 127.989  10.386  1.00 39.01    -0.020 A 
ATOM      4  CD2 PHE A  61     -36.450 126.779  10.283  1.00 40.32    -0.004 A 
ATOM      5  CE2 PHE A  61     -36.730 125.896   9.248  1.00 40.20    -0.000 A 
ATOM      6  CZ  PHE A  61     -37.684 126.211   8.307  1.00 40.34    -0.000 A 
ATOM      7  CE1 PHE A  61     -38.359 127.408   8.396  1.00 41.51    -0.000 A 
ATOM      8  CD1 PHE A  61     -38.075 128.294   9.428  1.00 39.94    -0.004 A 
ENDBRANCH   2   3
ENDBRANCH   1   2
END_RES PHE A  61
BEGIN_RES VAL A 134
REMARK  1 active torsions:
REMARK  status: ('A' for Active; 'I' for Inactive)
REMARK    3  A    between atoms: CA   and  CB  
ROOT
ATOM      9  CA  VAL A 134     -29.766 132.051   9.815  1.00 40.75     0.159 C 
ENDROOT
BRANCH   9  10
ATOM     10  CB  VAL A 134     -30.864 132.765   9.009  1.00 40.76     0.029 C 
ATOM     11  CG1 VAL A 134     -30.876 132.278   7.567  1.00 41.76     0.002 C 
ATOM     12  CG2 VAL A 134     -32.233 132.592   9.649  1.00 40.56     0.002 C 
ENDBRANCH   9  10
END_RES VAL A 134
BEGIN_RES TYR A 338
REMARK  3 active torsions:
REMARK  status: ('A' for Active; 'I' for Inactive)
REMARK    4  A    between atoms: CA   and  CB  
REMARK    5  A    between atoms: CB   and  CG  
REMARK    6  A    between atoms: CZ   and  OH  
ROOT
ATOM     13  CA  TYR A 338     -41.631 124.950   6.058  1.00 38.23     0.164 C 
ENDROOT
BRANCH  13  14
ATOM     14  CB  TYR A 338     -41.621 126.456   6.339  1.00 39.15     0.058 C 
BRANCH  14  15
ATOM     15  CG  TYR A 338     -40.410 127.209   5.839  1.00 39.03    -0.020 A 
ATOM     16  CD2 TYR A 338     -40.231 128.543   6.162  1.00 40.65    -0.002 A 
ATOM     17  CE2 TYR A 338     -39.140 129.268   5.708  1.00 40.91     0.024 A 
ATOM     18  CZ  TYR A 338     -38.195 128.656   4.906  1.00 42.33     0.089 A 
ATOM     19  CE1 TYR A 338     -38.349 127.322   4.573  1.00 40.63     0.024 A 
ATOM     20  CD1 TYR A 338     -39.454 126.618   5.026  1.00 39.27    -0.002 A 
BRANCH  18  21
ATOM     21  OH  TYR A 338     -37.113 129.361   4.456  1.00 43.36    -0.359 OA
ATOM     22  HH  TYR A 338     -36.411 129.595   5.051  1.00  0.00     0.217 HD
ENDBRANCH  18  21
ENDBRANCH  14  15
ENDBRANCH  13  14
END_RES TYR A 338
ENDMDL
MODEL 2
REMARK VINA RESULT:   -10.474      2.024     16.742
REMARK INTER + INTRA:         -12.337
REMARK INTER:                 -12.185
REMARK INTRA:                  -0.153
REMARK UNBOUND:                -1.863
REMARK  0 active torsions:
REMARK  status: ('A' for Active; 'I' for Inactive)
REMARK       I    between atoms: C3_3  and  O3_21 
REMARK       I    between atoms: C6_6  and  C7_7 
REMARK       I    between atoms: C8_8  and  C9_9 
REMARK       I    between atoms: C10_10  and  C11_11 
REMARK       I    between atoms: C12_12  and  C13_13 
REMARK       I    between atoms: C14_14  and  C15_15 
REMARK       I    between atoms: C23_25  and  O23_43 
REMARK       I    between atoms: C26_28  and  C27_29 
REMARK       I    between atoms: C28_30  and  C29_31 
REMARK       I    between atoms: C30_32  and  C31_33 
REMARK       I    between atoms: C32_34  and  C33_35 
REMARK       I    between atoms: C34_36  and  C35_37 
ROOT
HETATM    1  C1  8UH W1621     -34.171 128.110   7.054  1.00 22.20    -0.018 C 
HETATM    2  C2  8UH W1621     -33.579 127.926   5.662  1.00 22.20     0.045 C 
HETATM    3  C3  8UH W1621     -32.341 128.729   5.332  1.00 22.20     0.123 C 
HETATM    4  C4  8UH W1621     -31.608 129.089   6.601  1.00 22.20     0.066 C 
HETATM    5  C5  8UH W1621     -32.571 129.887   7.417  1.00 22.20    -0.074 C 
HETATM    6  C6  8UH W1621     -33.710 129.336   7.788  1.00 22.20    -0.048 C 
HETATM    7  C7  8UH W1621     -34.646 129.966   8.729  1.00 22.20     0.009 C 
HETATM    8  C8  8UH W1621     -34.766 131.290   8.727  1.00 22.20     0.007 C 
HETATM    9  C9  8UH W1621     -35.869 131.897   9.490  1.00 22.20    -0.062 C 
HETATM   10  C10 8UH W1621     -36.295 133.108   9.112  1.00 22.20     0.007 C 
HETATM   11  C11 8UH W1621     -37.472 133.761   9.673  1.00 22.20     0.001 C 
HETATM   12  C12 8UH W1621     -37.951 134.854   9.091  1.00 22.20     0.007 C 
HETATM   13  C13 8UH W1621     -39.182 135.505   9.573  1.00 22.20    -0.062 C 
HETATM   14  C14 8UH W1621     -39.688 136.508   8.841  1.00 22.20     0.007 C 
HETATM   15  C15 8UH W1621     -40.912 137.227   9.179  1.00 22.20     0.001 C 
HETATM   16  C16 8UH W1621     -33.756 126.948   7.937  1.00 22.20     0.020 C 
HETATM   17  C17 8UH W1621     -35.675 128.094   6.920  1.00 22.20     0.020 C 
HETATM   18  C18 8UH W1621     -31.769 130.724   8.350  1.00 22.20     0.044 C 
HETATM   19  C19 8UH W1621     -36.535 131.114  10.579  1.00 22.20     0.048 C 
HETATM   20  C20 8UH W1621     -39.821 135.003  10.829  1.00 22.20     0.048 C 
HETATM   21  O3  8UH W1621     -31.521 127.901   4.517  1.00 22.20    -0.395 OA
ATOM     22  H3  8UH W1621     -30.743 128.405   4.310  1.00  0.00     0.210 HD
HETATM   23  C21 8UH W1621     -50.612 145.697   8.972  1.00 26.19    -0.018 C 
HETATM   24  C22 8UH W1621     -51.794 146.193   9.796  1.00 26.65     0.045 C 
HETATM   25  C23 8UH W1621     -51.556 146.436  11.274  1.00 28.07     0.123 C 
HETATM   26  C24 8UH W1621     -50.203 147.049  11.525  1.00 30.07     0.066 C 
HETATM   27  C25 8UH W1621     -49.152 146.163  10.941  1.00 28.83    -0.074 C 
HETATM   28  C26 8UH W1621     -49.267 145.718   9.686  1.00 27.49    -0.048 C 
HETATM   29  C27 8UH W1621     -48.094 145.227   8.920  1.00 29.45     0.009 C 
HETATM   30  C28 8UH W1621     -47.519 144.048   9.165  1.00 27.83     0.007 C 
HETATM   31  C29 8UH W1621     -46.387 143.547   8.383  1.00 22.20    -0.062 C 
HETATM   32  C30 8UH W1621     -45.913 142.337   8.715  1.00 22.20     0.007 C 
HETATM   33  C31 8UH W1621     -44.769 141.697   8.079  1.00 22.20     0.001 C 
HETATM   34  C32 8UH W1621     -44.285 140.576   8.597  1.00 22.20     0.007 C 
HETATM   35  C33 8UH W1621     -43.080 139.934   8.050  1.00 22.20    -0.062 C 
HETATM   36  C34 8UH W1621     -42.563 138.907   8.743  1.00 22.20     0.007 C 
HETATM   37  C35 8UH W1621     -41.345 138.189   8.382  1.00 22.20     0.001 C 
HETATM   38  C36 8UH W1621     -50.583 146.594   7.748  1.00 26.46     0.020 C 
HETATM   39  C37 8UH W1621     -50.874 144.261   8.546  1.00 26.61     0.020 C 
HETATM   40  C38 8UH W1621     -47.857 146.614  11.533  1.00 29.43     0.044 C 
HETATM   41  C39 8UH W1621     -45.856 144.383   7.261  1.00 22.20     0.048 C 
HETATM   42  C40 8UH W1621     -42.466 140.492   6.805  1.00 22.20     0.048 C 
HETATM   43  O23 8UH W1621     -52.559 147.323  11.760  1.00 27.44    -0.395 OA
ATOM     44  H23 8UH W1621     -52.411 147.475  12.685  1.00  0.00     0.210 HD
ENDROOT
TORSDOF 12
BEGIN_RES PHE A  61
REMARK  2 active torsions:
REMARK  status: ('A' for Active; 'I' for Inactive)
REMARK    1  A    between atoms: CA   and  CB  
REMARK    2  A    between atoms: CB   and  CG  
ROOT
ATOM      1  CA  PHE A  61     -36.237 128.293  12.768  1.00 39.40     0.164 C 
ENDROOT
BRANCH   1   2
ATOM      2  CB  PHE A  61     -36.813 128.951  11.509  1.00 39.41     0.058 C 
BRANCH   2   3
ATOM      3  CG  PHE A  61     -37.055 127.999  10.362  1.00 39.01    -0.020 A 
ATOM      4  CD2 PHE A  61     -36.277 126.863  10.205  1.00 40.32    -0.004 A 
ATOM      5  CE2 PHE A  61     -36.498 125.989   9.147  1.00 40.20    -0.000 A 
ATOM      6  CZ  PHE A  61     -37.501 126.240   8.238  1.00 40.34    -0.000 A 
ATOM      7  CE1 PHE A  61     -38.284 127.363   8.382  1.00 41.51    -0.000 A 
ATOM      8  CD1 PHE A  61     -38.059 128.240   9.435  1.00 39.94    -0.004 A 
ENDBRANCH   2   3
ENDBRANCH   1   2
END_RES PHE A  61
BEGIN_RES VAL A 134
REMARK  1 active torsions:
REMARK  status: ('A' for Active; 'I' for Inactive)
REMARK    3  A    between atoms: CA   and  CB  
ROOT
ATOM      9  CA  VAL A 134     -29.766 132.051   9.815  1.00 40.75     0.159 C 
ENDROOT
BRANCH   9  10
ATOM     10  CB  VAL A 134     -30.864 132.765   9.009  1.00 40.76     0.029 C 
ATOM     11  CG1 VAL A 134     -32.067 133.069   9.890  1.00 41.76     0.002 C 
ATOM     12  CG2 VAL A 134     -30.342 134.033   8.351  1.00 40.56     0.002 C 
ENDBRANCH   9  10
END_RES VAL A 134
BEGIN_RES TYR A 338
REMARK  3 active torsions:
REMARK  status: ('A' for Active; 'I' for Inactive)
REMARK    4  A    between atoms: CA   and  CB  
REMARK    5  A    between atoms: CB   and  CG  
REMARK    6  A    between atoms: CZ   and  OH  
ROOT
ATOM     13  CA  TYR A 338     -41.631 124.950   6.058  1.00 38.23     0.164 C 
ENDROOT
BRANCH  13  14
ATOM     14  CB  TYR A 338     -41.621 126.456   6.339  1.00 39.15     0.058 C 
BRANCH  14  15
ATOM     15  CG  TYR A 338     -40.411 127.209   5.837  1.00 39.03    -0.020 A 
ATOM     16  CD2 TYR A 338     -40.254 128.554   6.124  1.00 40.65    -0.002 A 
ATOM     17  CE2 TYR A 338     -39.164 129.280   5.666  1.00 40.91     0.024 A 
ATOM     18  CZ  TYR A 338     -38.198 128.657   4.899  1.00 42.33     0.089 A 
ATOM     19  CE1 TYR A 338     -38.331 127.312   4.603  1.00 40.63     0.024 A 
ATOM     20  CD1 TYR A 338     -39.434 126.607   5.059  1.00 39.27    -0.002 A 
BRANCH  18  21
ATOM     21  OH  TYR A 338     -37.118 129.361   4.446  1.00 43.36    -0.359 OA
ATOM     22  HH  TYR A 338     -36.526 129.781   5.060  1.00  0.00     0.217 HD
ENDBRANCH  18  21
ENDBRANCH  14  15
ENDBRANCH  13  14
END_RES TYR A 338
ENDMDL
MODEL 3
REMARK VINA RESULT:   -10.227      0.771     16.790
REMARK INTER + INTRA:         -12.090
REMARK INTER:                  -9.556
REMARK INTRA:                  -2.534
REMARK UNBOUND:                -1.863
REMARK  0 active torsions:
REMARK  status: ('A' for Active; 'I' for Inactive)
REMARK       I    between atoms: C3_3  and  O3_21 
REMARK       I    between atoms: C6_6  and  C7_7 
REMARK       I    between atoms: C8_8  and  C9_9 
REMARK       I    between atoms: C10_10  and  C11_11 
REMARK       I    between atoms: C12_12  and  C13_13 
REMARK       I    between atoms: C14_14  and  C15_15 
REMARK       I    between atoms: C23_25  and  O23_43 
REMARK       I    between atoms: C26_28  and  C27_29 
REMARK       I    between atoms: C28_30  and  C29_31 
REMARK       I    between atoms: C30_32  and  C31_33 
REMARK       I    between atoms: C32_34  and  C33_35 
REMARK       I    between atoms: C34_36  and  C35_37 
ROOT
HETATM    1  C1  8UH W1621     -34.417 127.010   6.444  1.00 22.20    -0.018 C 
HETATM    2  C2  8UH W1621     -34.276 126.731   4.953  1.00 22.20     0.045 C 
HETATM    3  C3  8UH W1621     -33.140 127.421   4.231  1.00 22.20     0.123 C 
HETATM    4  C4  8UH W1621     -32.043 127.766   5.208  1.00 22.20     0.066 C 
HETATM    5  C5  8UH W1621     -32.667 128.665   6.224  1.00 22.20    -0.074 C 
HETATM    6  C6  8UH W1621     -33.679 128.220   6.941  1.00 22.20    -0.048 C 
HETATM    7  C7  8UH W1621     -34.251 128.955   8.077  1.00 22.20     0.009 C 
HETATM    8  C8  8UH W1621     -34.279 130.283   8.037  1.00 22.20     0.007 C 
HETATM    9  C9  8UH W1621     -35.065 131.002   9.053  1.00 22.20    -0.062 C 
HETATM   10  C10 8UH W1621     -35.502 132.229   8.748  1.00 22.20     0.007 C 
HETATM   11  C11 8UH W1621     -36.415 132.993   9.591  1.00 22.20     0.001 C 
HETATM   12  C12 8UH W1621     -36.971 134.100   9.114  1.00 22.20     0.007 C 
HETATM   13  C13 8UH W1621     -37.958 134.863   9.897  1.00 22.20    -0.062 C 
HETATM   14  C14 8UH W1621     -38.591 135.878   9.290  1.00 22.20     0.007 C 
HETATM   15  C15 8UH W1621     -39.610 136.703   9.930  1.00 22.20     0.001 C 
HETATM   16  C16 8UH W1621     -33.837 125.850   7.232  1.00 22.20     0.020 C 
HETATM   17  C17 8UH W1621     -35.891 127.109   6.757  1.00 22.20     0.020 C 
HETATM   18  C18 8UH W1621     -31.571 129.467   6.832  1.00 22.20     0.044 C 
HETATM   19  C19 8UH W1621     -35.429 130.312  10.331  1.00 22.20     0.048 C 
HETATM   20  C20 8UH W1621     -38.229 134.457  11.311  1.00 22.20     0.048 C 
HETATM   21  O3  8UH W1621     -32.655 126.503   3.260  1.00 22.20    -0.395 OA
ATOM     22  H3  8UH W1621     -31.942 126.936   2.806  1.00  0.00     0.210 HD
HETATM   23  C21 8UH W1621     -48.356 145.907  12.090  1.00 26.19    -0.018 C 
HETATM   24  C22 8UH W1621     -49.206 146.524  13.194  1.00 26.65     0.045 C 
HETATM   25  C23 8UH W1621     -48.527 146.798  14.521  1.00 28.07     0.123 C 
HETATM   26  C24 8UH W1621     -47.122 147.309  14.331  1.00 30.07     0.066 C 
HETATM   27  C25 8UH W1621     -46.352 146.323  13.516  1.00 28.83    -0.074 C 
HETATM   28  C26 8UH W1621     -46.862 145.846  12.377  1.00 27.49    -0.048 C 
HETATM   29  C27 8UH W1621     -46.003 145.237  11.330  1.00 29.45     0.009 C 
HETATM   30  C28 8UH W1621     -45.461 144.025  11.462  1.00 27.83     0.007 C 
HETATM   31  C29 8UH W1621     -44.646 143.408  10.413  1.00 22.20    -0.062 C 
HETATM   32  C30 8UH W1621     -44.176 142.176  10.660  1.00 22.20     0.007 C 
HETATM   33  C31 8UH W1621     -43.317 141.425   9.755  1.00 22.20     0.001 C 
HETATM   34  C32 8UH W1621     -42.776 140.288  10.171  1.00 22.20     0.007 C 
HETATM   35  C33 8UH W1621     -41.831 139.534   9.333  1.00 22.20    -0.062 C 
HETATM   36  C34 8UH W1621     -41.202 138.494   9.901  1.00 22.20     0.007 C 
HETATM   37  C35 8UH W1621     -40.195 137.668   9.241  1.00 22.20     0.001 C 
HETATM   38  C36 8UH W1621     -48.632 146.757  10.862  1.00 26.46     0.020 C 
HETATM   39  C37 8UH W1621     -48.826 144.483  11.840  1.00 26.61     0.020 C 
HETATM   40  C38 8UH W1621     -44.913 146.689  13.678  1.00 29.43     0.044 C 
HETATM   41  C39 8UH W1621     -44.416 144.160   9.140  1.00 22.20     0.048 C 
HETATM   42  C40 8UH W1621     -41.577 139.998   7.933  1.00 22.20     0.048 C 
HETATM   43  O23 8UH W1621     -49.281 147.778  15.228  1.00 27.44    -0.395 OA
ATOM     44  H23 8UH W1621     -48.855 147.950  16.060  1.00  0.00     0.210 HD
ENDROOT
TORSDOF 12
BEGIN_RES PHE A  61
REMARK  2 active torsions:
REMARK  status: ('A' for Active; 'I' for Inactive)
REMARK    1  A    between atoms: CA   and  CB  
REMARK    2  A    between atoms: CB   and  CG  
ROOT
ATOM      1  CA  PHE A  61     -36.237 128.293  12.768  1.00 39.40     0.164 C 
ENDROOT
BRANCH   1   2
ATOM      2  CB  PHE A  61     -36.813 128.951  11.509  1.00 39.41     0.058 C 
BRANCH   2   3
ATOM      3  CG  PHE A  61     -37.099 127.992  10.379  1.00 39.01    -0.020 A 
ATOM      4  CD2 PHE A  61     -36.382 126.813  10.247  1.00 40.32    -0.004 A 
ATOM      5  CE2 PHE A  61     -36.645 125.932   9.205  1.00 40.20    -0.000 A 
ATOM      6  CZ  PHE A  61     -37.628 126.218   8.286  1.00 40.34    -0.000 A 
ATOM      7  CE1 PHE A  61     -38.352 127.385   8.404  1.00 41.51    -0.000 A 
ATOM      8  CD1 PHE A  61     -38.085 128.268   9.442  1.00 39.94    -0.004 A 
ENDBRANCH   2   3
ENDBRANCH   1   2
END_RES PHE A  61
BEGIN_RES VAL A 134
REMARK  1 active torsions:
REMARK  status: ('A' for Active; 'I' for Inactive)
REMARK    3  A    between atoms: CA   and  CB  
ROOT
ATOM      9  CA  VAL A 134     -29.766 132.051   9.815  1.00 40.75     0.159 C 
ENDROOT
BRANCH   9  10
ATOM     10  CB  VAL A 134     -30.864 132.765   9.009  1.00 40.76     0.029 C 
ATOM     11  CG1 VAL A 134     -31.096 132.065   7.678  1.00 41.76     0.002 C 
ATOM     12  CG2 VAL A 134     -32.161 132.870   9.797  1.00 40.56     0.002 C 
ENDBRANCH   9  10
END_RES VAL A 134
BEGIN_RES TYR A 338
REMARK  3 active torsions:
REMARK  status: ('A' for Active; 'I' for Inactive)
REMARK    4  A    between atoms: CA   and  CB  
REMARK    5  A    between atoms: CB   and  CG  
REMARK    6  A    between atoms: CZ   and  OH  
ROOT
ATOM     13  CA  TYR A 338     -41.631 124.950   6.058  1.00 38.23     0.164 C 
ENDROOT
BRANCH  13  14
ATOM     14  CB  TYR A 338     -41.621 126.456   6.339  1.00 39.15     0.058 C 
BRANCH  14  15
ATOM     15  CG  TYR A 338     -40.406 127.207   5.846  1.00 39.03    -0.020 A 
ATOM     16  CD2 TYR A 338     -40.230 128.543   6.166  1.00 40.65    -0.002 A 
ATOM     17  CE2 TYR A 338     -39.136 129.267   5.718  1.00 40.91     0.024 A 
ATOM     18  CZ  TYR A 338     -38.184 128.652   4.926  1.00 42.33     0.089 A 
ATOM     19  CE1 TYR A 338     -38.335 127.317   4.597  1.00 40.63     0.024 A 
ATOM     20  CD1 TYR A 338     -39.443 126.614   5.044  1.00 39.27    -0.002 A 
BRANCH  18  21
ATOM     21  OH  TYR A 338     -37.099 129.355   4.483  1.00 43.36    -0.359 OA
ATOM     22  HH  TYR A 338     -37.180 130.276   4.261  1.00  0.00     0.217 HD
ENDBRANCH  18  21
ENDBRANCH  14  15
ENDBRANCH  13  14
END_RES TYR A 338
ENDMDL
MODEL 4
REMARK VINA RESULT:    -9.880      1.018      1.279
REMARK INTER + INTRA:         -11.743
REMARK INTER:                 -11.437
REMARK INTRA:                  -0.306
REMARK UNBOUND:                -1.863
REMARK  0 active torsions:
REMARK  status: ('A' for Active; 'I' for Inactive)
REMARK       I    between atoms: C3_3  and  O3_21 
REMARK       I    between atoms: C6_6  and  C7_7 
REMARK       I    between atoms: C8_8  and  C9_9 
REMARK       I    between atoms: C10_10  and  C11_11 
REMARK       I    between atoms: C12_12  and  C13_13 
REMARK       I    between atoms: C14_14  and  C15_15 
REMARK       I    between atoms: C23_25  and  O23_43 
REMARK       I    between atoms: C26_28  and  C27_29 
REMARK       I    between atoms: C28_30  and  C29_31 
REMARK       I    between atoms: C30_32  and  C31_33 
REMARK       I    between atoms: C32_34  and  C33_35 
REMARK       I    between atoms: C34_36  and  C35_37 
ROOT
HETATM    1  C1  8UH W1621     -49.193 146.264  11.625  1.00 22.20    -0.018 C 
HETATM    2  C2  8UH W1621     -50.003 146.129  12.908  1.00 22.20     0.045 C 
HETATM    3  C3  8UH W1621     -49.391 146.698  14.168  1.00 22.20     0.123 C 
HETATM    4  C4  8UH W1621     -48.403 147.783  13.817  1.00 22.20     0.066 C 
HETATM    5  C5  8UH W1621     -47.370 147.134  12.957  1.00 22.20    -0.074 C 
HETATM    6  C6  8UH W1621     -47.737 146.580  11.818  1.00 22.20    -0.048 C 
HETATM    7  C7  8UH W1621     -46.785 146.068  10.822  1.00 22.20     0.009 C 
HETATM    8  C8  8UH W1621     -45.647 145.525  11.241  1.00 22.20     0.007 C 
HETATM    9  C9  8UH W1621     -44.814 144.799  10.267  1.00 22.20    -0.062 C 
HETATM   10  C10 8UH W1621     -43.979 143.864  10.736  1.00 22.20     0.007 C 
HETATM   11  C11 8UH W1621     -43.211 142.966   9.881  1.00 22.20     0.001 C 
HETATM   12  C12 8UH W1621     -42.583 141.930  10.422  1.00 22.20     0.007 C 
HETATM   13  C13 8UH W1621     -41.859 140.951   9.592  1.00 22.20    -0.062 C 
HETATM   14  C14 8UH W1621     -41.385 139.849  10.192  1.00 22.20     0.007 C 
HETATM   15  C15 8UH W1621     -40.673 138.783   9.495  1.00 22.20     0.001 C 
HETATM   16  C16 8UH W1621     -49.735 147.419  10.803  1.00 22.20     0.020 C 
HETATM   17  C17 8UH W1621     -49.369 144.991  10.832  1.00 22.20     0.020 C 
HETATM   18  C18 8UH W1621     -46.131 147.951  13.064  1.00 22.20     0.044 C 
HETATM   19  C19 8UH W1621     -44.996 145.054   8.803  1.00 22.20     0.048 C 
HETATM   20  C20 8UH W1621     -41.713 141.213   8.127  1.00 22.20     0.048 C 
HETATM   21  O3  8UH W1621     -50.459 147.244  14.932  1.00 22.20    -0.395 OA
ATOM     22  H3  8UH W1621     -50.075 147.601  15.724  1.00  0.00     0.210 HD
HETATM   23  C21 8UH W1621     -34.060 128.001   7.071  1.00 26.19    -0.018 C 
HETATM   24  C22 8UH W1621     -33.298 127.279   5.966  1.00 26.65     0.045 C 
HETATM   25  C23 8UH W1621     -32.341 128.106   5.130  1.00 28.07     0.123 C 
HETATM   26  C24 8UH W1621     -31.598 129.113   5.969  1.00 30.07     0.066 C 
HETATM   27  C25 8UH W1621     -32.588 129.976   6.681  1.00 28.83    -0.074 C 
HETATM   28  C26 8UH W1621     -33.602 129.424   7.354  1.00 27.49    -0.048 C 
HETATM   29  C27 8UH W1621     -34.331 130.165   8.414  1.00 29.45     0.009 C 
HETATM   30  C28 8UH W1621     -35.195 131.145   8.141  1.00 27.83     0.007 C 
HETATM   31  C29 8UH W1621     -35.944 131.849   9.184  1.00 22.20    -0.062 C 
HETATM   32  C30 8UH W1621     -36.797 132.800   8.777  1.00 22.20     0.007 C 
HETATM   33  C31 8UH W1621     -37.593 133.630   9.671  1.00 22.20     0.001 C 
HETATM   34  C32 8UH W1621     -38.276 134.650   9.169  1.00 22.20     0.007 C 
HETATM   35  C33 8UH W1621     -39.026 135.574  10.034  1.00 22.20    -0.062 C 
HETATM   36  C34 8UH W1621     -39.539 136.673   9.459  1.00 22.20     0.007 C 
HETATM   37  C35 8UH W1621     -40.263 137.723  10.169  1.00 22.20     0.001 C 
HETATM   38  C36 8UH W1621     -33.887 127.127   8.302  1.00 26.46     0.020 C 
HETATM   39  C37 8UH W1621     -35.532 128.067   6.696  1.00 26.61     0.020 C 
HETATM   40  C38 8UH W1621     -31.821 131.156   7.180  1.00 29.43     0.044 C 
HETATM   41  C39 8UH W1621     -35.741 131.452  10.613  1.00 22.20     0.048 C 
HETATM   42  C40 8UH W1621     -39.120 135.278  11.497  1.00 22.20     0.048 C 
HETATM   43  O23 8UH W1621     -31.396 127.232   4.518  1.00 27.44    -0.395 OA
ATOM     44  H23 8UH W1621     -30.796 127.750   3.994  1.00  0.00     0.210 HD
ENDROOT
TORSDOF 12
BEGIN_RES PHE A  61
REMARK  2 active torsions:
REMARK  status: ('A' for Active; 'I' for Inactive)
REMARK    1  A    between atoms: CA   and  CB  
REMARK    2  A    between atoms: CB   and  CG  
ROOT
ATOM      1  CA  PHE A  61     -36.237 128.293  12.768  1.00 39.40     0.164 C 
ENDROOT
BRANCH   1   2
ATOM      2  CB  PHE A  61     -36.813 128.951  11.509  1.00 39.41     0.058 C 
BRANCH   2   3
ATOM      3  CG  PHE A  61     -37.040 128.002  10.357  1.00 39.01    -0.020 A 
ATOM      4  CD2 PHE A  61     -36.309 126.829  10.246  1.00 40.32    -0.004 A 
ATOM      5  CE2 PHE A  61     -36.516 125.958   9.184  1.00 40.20    -0.000 A 
ATOM      6  CZ  PHE A  61     -37.459 126.248   8.223  1.00 40.34    -0.000 A 
ATOM      7  CE1 PHE A  61     -38.195 127.407   8.320  1.00 41.51    -0.000 A 
ATOM      8  CD1 PHE A  61     -37.983 128.282   9.379  1.00 39.94    -0.004 A 
ENDBRANCH   2   3
ENDBRANCH   1   2
END_RES PHE A  61
BEGIN_RES VAL A 134
REMARK  1 active torsions:
REMARK  status: ('A' for Active; 'I' for Inactive)
REMARK    3  A    between atoms: CA   and  CB  
ROOT
ATOM      9  CA  VAL A 134     -29.766 132.051   9.815  1.00 40.75     0.159 C 
ENDROOT
BRANCH   9  10
ATOM     10  CB  VAL A 134     -30.864 132.765   9.009  1.00 40.76     0.029 C 
ATOM     11  CG1 VAL A 134     -32.120 132.942   9.850  1.00 41.76     0.002 C 
ATOM     12  CG2 VAL A 134     -30.383 134.102   8.468  1.00 40.56     0.002 C 
ENDBRANCH   9  10
END_RES VAL A 134
BEGIN_RES TYR A 338
REMARK  3 active torsions:
REMARK  status: ('A' for Active; 'I' for Inactive)
REMARK    4  A    between atoms: CA   and  CB  
REMARK    5  A    between atoms: CB   and  CG  
REMARK    6  A    between atoms: CZ   and  OH  
ROOT
ATOM     13  CA  TYR A 338     -41.631 124.950   6.058  1.00 38.23     0.164 C 
ENDROOT
BRANCH  13  14
ATOM     14  CB  TYR A 338     -41.621 126.456   6.339  1.00 39.15     0.058 C 
BRANCH  14  15
ATOM     15  CG  TYR A 338     -40.413 127.210   5.832  1.00 39.03    -0.020 A 
ATOM     16  CD2 TYR A 338     -40.257 128.556   6.116  1.00 40.65    -0.002 A 
ATOM     17  CE2 TYR A 338     -39.171 129.282   5.654  1.00 40.91     0.024 A 
ATOM     18  CZ  TYR A 338     -38.206 128.659   4.884  1.00 42.33     0.089 A 
ATOM     19  CE1 TYR A 338     -38.337 127.314   4.591  1.00 40.63     0.024 A 
ATOM     20  CD1 TYR A 338     -39.438 126.608   5.051  1.00 39.27    -0.002 A 
BRANCH  18  21
ATOM     21  OH  TYR A 338     -37.128 129.365   4.427  1.00 43.36    -0.359 OA
ATOM     22  HH  TYR A 338     -36.854 129.290   3.521  1.00  0.00     0.217 HD
ENDBRANCH  18  21
ENDBRANCH  14  15
ENDBRANCH  13  14
END_RES TYR A 338
ENDMDL
