MODEL 1
REMARK VINA RESULT:   -10.634      0.000      0.000
REMARK INTER + INTRA:         -13.443
REMARK INTER:                 -10.634
REMARK INTRA:                  -2.809
REMARK UNBOUND:                -2.809
REMARK  0 active torsions:
REMARK  status: ('A' for Active; 'I' for Inactive)
REMARK       I    between atoms: C3_3  and  O3_21 
REMARK       I    between atoms: C6_6  and  C7_7 
REMARK       I    between atoms: C8_8  and  C9_9 
REMARK       I    between atoms: C10_10  and  C11_11 
REMARK       I    between atoms: C12_12  and  C13_13 
REMARK       I    between atoms: C14_14  and  C15_15 
REMARK       I    between atoms: C23_25  and  O23_43 
REMARK       I    between atoms: C26_28  and  C27_29 
REMARK       I    between atoms: C28_30  and  C29_31 
REMARK       I    between atoms: C30_32  and  C31_33 
REMARK       I    between atoms: C32_34  and  C33_35 
REMARK       I    between atoms: C34_36  and  C35_37 
ROOT
HETATM    1  C1  8UH F5620     -49.113 144.781  12.660  1.00 19.30    -0.018 C 
HETATM    2  C2  8UH F5620     -49.571 145.399  13.994  1.00 17.68     0.045 C 
HETATM    3  C3  8UH F5620     -48.751 146.535  14.597  1.00 17.79     0.123 C 
HETATM    4  C4  8UH F5620     -47.847 147.285  13.618  1.00 18.50     0.066 C 
HETATM    5  C5  8UH F5620     -47.263 146.543  12.461  1.00 19.40    -0.074 C 
HETATM    6  C6  8UH F5620     -47.829 145.373  11.994  1.00 19.02    -0.048 C 
HETATM    7  C7  8UH F5620     -47.245 144.631  10.866  1.00 18.60     0.009 C 
HETATM    8  C8  8UH F5620     -46.160 143.829  10.902  1.00 18.09     0.007 C 
HETATM    9  C9  8UH F5620     -45.502 143.181   9.763  1.00 18.23    -0.062 C 
HETATM   10  C10 8UH F5620     -44.486 142.330  10.026  1.00 15.81     0.007 C 
HETATM   11  C11 8UH F5620     -43.722 141.581   9.067  1.00 18.00     0.001 C 
HETATM   12  C12 8UH F5620     -42.865 140.639   9.492  1.00 18.12     0.007 C 
HETATM   13  C13 8UH F5620     -42.031 139.730   8.717  1.00 18.88    -0.062 C 
HETATM   14  C14 8UH F5620     -41.336 138.795   9.400  1.00 21.10     0.007 C 
HETATM   15  C15 8UH F5620     -40.519 137.738   8.867  1.00 24.06     0.001 C 
HETATM   16  C16 8UH F5620     -50.323 144.998  11.735  1.00 17.17     0.020 C 
HETATM   17  C17 8UH F5620     -48.958 143.262  12.894  1.00 16.95     0.020 C 
HETATM   18  C18 8UH F5620     -46.050 147.273  11.981  1.00 19.80     0.044 C 
HETATM   19  C19 8UH F5620     -46.038 143.471   8.380  1.00 17.09     0.048 C 
HETATM   20  C20 8UH F5620     -42.061 139.844   7.224  1.00 16.35     0.048 C 
HETATM   21  O3  8UH F5620     -49.600 147.448  15.269  1.00 17.38    -0.395 OA
ATOM     22  H3  8UH F5620     -49.089 148.155  15.645  1.00  0.00     0.210 HD
HETATM   23  C21 8UH F5620     -34.368 126.861   6.457  1.00 19.63    -0.018 C 
HETATM   24  C22 8UH F5620     -33.955 126.122   5.187  1.00 19.63     0.045 C 
HETATM   25  C23 8UH F5620     -32.990 126.833   4.250  1.00 19.63     0.123 C 
HETATM   26  C24 8UH F5620     -31.963 127.608   5.045  1.00 19.63     0.066 C 
HETATM   27  C25 8UH F5620     -32.724 128.615   5.850  1.00 19.63    -0.074 C 
HETATM   28  C26 8UH F5620     -33.705 128.212   6.662  1.00 19.63    -0.048 C 
HETATM   29  C27 8UH F5620     -34.161 129.039   7.808  1.00 19.63     0.009 C 
HETATM   30  C28 8UH F5620     -34.989 130.075   7.660  1.00 19.63     0.007 C 
HETATM   31  C29 8UH F5620     -35.481 130.906   8.798  1.00 26.61    -0.062 C 
HETATM   32  C30 8UH F5620     -36.317 131.921   8.493  1.00 25.24     0.007 C 
HETATM   33  C31 8UH F5620     -36.953 132.815   9.416  1.00 26.40     0.001 C 
HETATM   34  C32 8UH F5620     -37.736 133.824   8.989  1.00 26.29     0.007 C 
HETATM   35  C33 8UH F5620     -38.445 134.830   9.786  1.00 26.99    -0.062 C 
HETATM   36  C34 8UH F5620     -39.143 135.776   9.120  1.00 26.65     0.007 C 
HETATM   37  C35 8UH F5620     -39.907 136.860   9.670  1.00 25.43     0.001 C 
HETATM   38  C36 8UH F5620     -34.088 125.931   7.633  1.00 19.63     0.020 C 
HETATM   39  C37 8UH F5620     -35.863 127.108   6.383  1.00 19.63     0.020 C 
HETATM   40  C38 8UH F5620     -31.716 129.647   6.251  1.00 19.63     0.044 C 
HETATM   41  C39 8UH F5620     -35.026 130.580  10.200  1.00 26.87     0.048 C 
HETATM   42  C40 8UH F5620     -38.325 134.755  11.280  1.00 24.17     0.048 C 
HETATM   43  O23 8UH F5620     -32.323 125.855   3.449  1.00 19.63    -0.395 OA
ATOM     44  H23 8UH F5620     -32.969 125.368   2.950  1.00  0.00     0.210 HD
ENDROOT
TORSDOF 12
BEGIN_RES PHE A  61
REMARK  2 active torsions:
REMARK  status: ('A' for Active; 'I' for Inactive)
REMARK    1  A    between atoms: CA   and  CB  
REMARK    2  A    between atoms: CB   and  CG  
ROOT
ATOM      1  CA  PHE A  61     -36.237 128.293  12.768  1.00 39.40     0.164 C 
ENDROOT
BRANCH   1   2
ATOM      2  CB  PHE A  61     -36.813 128.951  11.509  1.00 39.41     0.058 C 
BRANCH   2   3
ATOM      3  CG  PHE A  61     -37.080 127.994  10.372  1.00 39.01    -0.020 A 
ATOM      4  CD2 PHE A  61     -36.362 126.816  10.249  1.00 40.32    -0.004 A 
ATOM      5  CE2 PHE A  61     -36.607 125.938   9.201  1.00 40.20    -0.000 A 
ATOM      6  CZ  PHE A  61     -37.574 126.227   8.266  1.00 40.34    -0.000 A 
ATOM      7  CE1 PHE A  61     -38.299 127.393   8.374  1.00 41.51    -0.000 A 
ATOM      8  CD1 PHE A  61     -38.050 128.274   9.419  1.00 39.94    -0.004 A 
ENDBRANCH   2   3
ENDBRANCH   1   2
END_RES PHE A  61
BEGIN_RES VAL A 134
REMARK  1 active torsions:
REMARK  status: ('A' for Active; 'I' for Inactive)
REMARK    3  A    between atoms: CA   and  CB  
ROOT
ATOM      9  CA  VAL A 134     -29.766 132.051   9.815  1.00 40.75     0.159 C 
ENDROOT
BRANCH   9  10
ATOM     10  CB  VAL A 134     -30.864 132.765   9.009  1.00 40.76     0.029 C 
ATOM     11  CG1 VAL A 134     -31.178 132.000   7.732  1.00 41.76     0.002 C 
ATOM     12  CG2 VAL A 134     -32.123 132.973   9.837  1.00 40.56     0.002 C 
ENDBRANCH   9  10
END_RES VAL A 134
BEGIN_RES TYR A 338
REMARK  3 active torsions:
REMARK  status: ('A' for Active; 'I' for Inactive)
REMARK    4  A    between atoms: CA   and  CB  
REMARK    5  A    between atoms: CB   and  CG  
REMARK    6  A    between atoms: CZ   and  OH  
ROOT
ATOM     13  CA  TYR A 338     -41.631 124.950   6.058  1.00 38.23     0.164 C 
ENDROOT
BRANCH  13  14
ATOM     14  CB  TYR A 338     -41.621 126.456   6.339  1.00 39.15     0.058 C 
BRANCH  14  15
ATOM     15  CG  TYR A 338     -40.405 127.207   5.848  1.00 39.03    -0.020 A 
ATOM     16  CD2 TYR A 338     -40.225 128.540   6.174  1.00 40.65    -0.002 A 
ATOM     17  CE2 TYR A 338     -39.130 129.264   5.728  1.00 40.91     0.024 A 
ATOM     18  CZ  TYR A 338     -38.181 128.651   4.932  1.00 42.33     0.089 A 
ATOM     19  CE1 TYR A 338     -38.336 127.318   4.596  1.00 40.63     0.024 A 
ATOM     20  CD1 TYR A 338     -39.445 126.615   5.041  1.00 39.27    -0.002 A 
BRANCH  18  21
ATOM     21  OH  TYR A 338     -37.095 129.354   4.490  1.00 43.36    -0.359 OA
ATOM     22  HH  TYR A 338     -36.860 129.348   3.570  1.00  0.00     0.217 HD
ENDBRANCH  18  21
ENDBRANCH  14  15
ENDBRANCH  13  14
END_RES TYR A 338
ENDMDL
MODEL 2
REMARK VINA RESULT:    -8.687      0.489     16.933
REMARK INTER + INTRA:         -11.497
REMARK INTER:                  -8.907
REMARK INTRA:                  -2.590
REMARK UNBOUND:                -2.809
REMARK  0 active torsions:
REMARK  status: ('A' for Active; 'I' for Inactive)
REMARK       I    between atoms: C3_3  and  O3_21 
REMARK       I    between atoms: C6_6  and  C7_7 
REMARK       I    between atoms: C8_8  and  C9_9 
REMARK       I    between atoms: C10_10  and  C11_11 
REMARK       I    between atoms: C12_12  and  C13_13 
REMARK       I    between atoms: C14_14  and  C15_15 
REMARK       I    between atoms: C23_25  and  O23_43 
REMARK       I    between atoms: C26_28  and  C27_29 
REMARK       I    between atoms: C28_30  and  C29_31 
REMARK       I    between atoms: C30_32  and  C31_33 
REMARK       I    between atoms: C32_34  and  C33_35 
REMARK       I    between atoms: C34_36  and  C35_37 
ROOT
HETATM    1  C1  8UH F5620     -34.552 127.005   6.236  1.00 19.30    -0.018 C 
HETATM    2  C2  8UH F5620     -34.115 126.358   4.908  1.00 17.68     0.045 C 
HETATM    3  C3  8UH F5620     -32.932 126.957   4.154  1.00 17.79     0.123 C 
HETATM    4  C4  8UH F5620     -31.986 127.818   4.993  1.00 18.50     0.066 C 
HETATM    5  C5  8UH F5620     -32.544 128.593   6.142  1.00 19.40    -0.074 C 
HETATM    6  C6  8UH F5620     -33.737 128.239   6.739  1.00 19.02    -0.048 C 
HETATM    7  C7  8UH F5620     -34.297 129.011   7.860  1.00 18.60     0.009 C 
HETATM    8  C8  8UH F5620     -34.943 130.194   7.783  1.00 18.09     0.007 C 
HETATM    9  C9  8UH F5620     -35.399 131.026   8.900  1.00 18.23    -0.062 C 
HETATM   10  C10 8UH F5620     -36.122 132.129   8.607  1.00 15.81     0.007 C 
HETATM   11  C11 8UH F5620     -36.678 133.066   9.544  1.00 18.00     0.001 C 
HETATM   12  C12 8UH F5620     -37.525 134.013   9.111  1.00 18.12     0.007 C 
HETATM   13  C13 8UH F5620     -38.245 135.027   9.871  1.00 18.88    -0.062 C 
HETATM   14  C14 8UH F5620     -39.129 135.793   9.195  1.00 21.10     0.007 C 
HETATM   15  C15 8UH F5620     -40.017 136.793   9.725  1.00 24.06     0.001 C 
HETATM   16  C16 8UH F5620     -34.427 125.853   7.249  1.00 17.17     0.020 C 
HETATM   17  C17 8UH F5620     -36.050 127.356   6.096  1.00 16.95     0.020 C 
HETATM   18  C18 8UH F5620     -31.618 129.724   6.457  1.00 19.80     0.044 C 
HETATM   19  C19 8UH F5620     -35.071 130.566  10.302  1.00 17.09     0.048 C 
HETATM   20  C20 8UH F5620     -38.013 135.101  11.348  1.00 16.35     0.048 C 
HETATM   21  O3  8UH F5620     -32.202 125.935   3.499  1.00 17.38    -0.395 OA
ATOM     22  H3  8UH F5620     -31.465 126.308   3.030  1.00  0.00     0.210 HD
HETATM   23  C21 8UH F5620     -49.715 144.610  12.333  1.00 19.63    -0.018 C 
HETATM   24  C22 8UH F5620     -50.282 145.224  13.610  1.00 19.63     0.045 C 
HETATM   25  C23 8UH F5620     -49.371 146.149  14.403  1.00 19.63     0.123 C 
HETATM   26  C24 8UH F5620     -48.531 146.988  13.466  1.00 19.63     0.066 C 
HETATM   27  C25 8UH F5620     -47.708 146.029  12.663  1.00 19.63    -0.074 C 
HETATM   28  C26 8UH F5620     -48.308 145.054  11.974  1.00 19.63    -0.048 C 
HETATM   29  C27 8UH F5620     -47.647 144.395  10.818  1.00 19.63     0.009 C 
HETATM   30  C28 8UH F5620     -46.726 143.442  10.967  1.00 19.63     0.007 C 
HETATM   31  C29 8UH F5620     -46.067 142.747   9.822  1.00 26.61    -0.062 C 
HETATM   32  C30 8UH F5620     -45.154 141.801  10.129  1.00 25.24     0.007 C 
HETATM   33  C31 8UH F5620     -44.435 140.972   9.206  1.00 26.40     0.001 C 
HETATM   34  C32 8UH F5620     -43.510 140.089   9.629  1.00 26.29     0.007 C 
HETATM   35  C33 8UH F5620     -42.680 139.182   8.831  1.00 26.99    -0.062 C 
HETATM   36  C34 8UH F5620     -41.787 138.411   9.488  1.00 26.65     0.007 C 
HETATM   37  C35 8UH F5620     -40.866 137.459   8.934  1.00 25.43     0.001 C 
HETATM   38  C36 8UH F5620     -50.691 144.926  11.205  1.00 19.63     0.020 C 
HETATM   39  C37 8UH F5620     -49.668 143.106  12.524  1.00 19.63     0.020 C 
HETATM   40  C38 8UH F5620     -46.585 146.844  12.102  1.00 19.63     0.044 C 
HETATM   41  C39 8UH F5620     -46.442 143.130   8.411  1.00 26.87     0.048 C 
HETATM   42  C40 8UH F5620     -42.861 139.193   7.341  1.00 24.17     0.048 C 
HETATM   43  O23 8UH F5620     -50.180 147.010  15.207  1.00 19.63    -0.395 OA
ATOM     44  H23 8UH F5620     -50.707 146.482  15.796  1.00  0.00     0.210 HD
ENDROOT
TORSDOF 12
BEGIN_RES PHE A  61
REMARK  2 active torsions:
REMARK  status: ('A' for Active; 'I' for Inactive)
REMARK    1  A    between atoms: CA   and  CB  
REMARK    2  A    between atoms: CB   and  CG  
ROOT
ATOM      1  CA  PHE A  61     -36.237 128.293  12.768  1.00 39.40     0.164 C 
ENDROOT
BRANCH   1   2
ATOM      2  CB  PHE A  61     -36.813 128.951  11.509  1.00 39.41     0.058 C 
BRANCH   2   3
ATOM      3  CG  PHE A  61     -37.059 127.998  10.364  1.00 39.01    -0.020 A 
ATOM      4  CD2 PHE A  61     -36.326 126.829  10.241  1.00 40.32    -0.004 A 
ATOM      5  CE2 PHE A  61     -36.551 125.954   9.185  1.00 40.20    -0.000 A 
ATOM      6  CZ  PHE A  61     -37.515 126.237   8.244  1.00 40.34    -0.000 A 
ATOM      7  CE1 PHE A  61     -38.254 127.394   8.353  1.00 41.51    -0.000 A 
ATOM      8  CD1 PHE A  61     -38.024 128.272   9.405  1.00 39.94    -0.004 A 
ENDBRANCH   2   3
ENDBRANCH   1   2
END_RES PHE A  61
BEGIN_RES VAL A 134
REMARK  1 active torsions:
REMARK  status: ('A' for Active; 'I' for Inactive)
REMARK    3  A    between atoms: CA   and  CB  
ROOT
ATOM      9  CA  VAL A 134     -29.766 132.051   9.815  1.00 40.75     0.159 C 
ENDROOT
BRANCH   9  10
ATOM     10  CB  VAL A 134     -30.864 132.765   9.009  1.00 40.76     0.029 C 
ATOM     11  CG1 VAL A 134     -30.927 132.223   7.588  1.00 41.76     0.002 C 
ATOM     12  CG2 VAL A 134     -32.220 132.657   9.690  1.00 40.56     0.002 C 
ENDBRANCH   9  10
END_RES VAL A 134
BEGIN_RES TYR A 338
REMARK  3 active torsions:
REMARK  status: ('A' for Active; 'I' for Inactive)
REMARK    4  A    between atoms: CA   and  CB  
REMARK    5  A    between atoms: CB   and  CG  
REMARK    6  A    between atoms: CZ   and  OH  
ROOT
ATOM     13  CA  TYR A 338     -41.631 124.950   6.058  1.00 38.23     0.164 C 
ENDROOT
BRANCH  13  14
ATOM     14  CB  TYR A 338     -41.621 126.456   6.339  1.00 39.15     0.058 C 
BRANCH  14  15
ATOM     15  CG  TYR A 338     -40.427 127.215   5.807  1.00 39.03    -0.020 A 
ATOM     16  CD2 TYR A 338     -40.245 128.549   6.128  1.00 40.65    -0.002 A 
ATOM     17  CE2 TYR A 338     -39.170 129.280   5.645  1.00 40.91     0.024 A 
ATOM     18  CZ  TYR A 338     -38.245 128.673   4.817  1.00 42.33     0.089 A 
ATOM     19  CE1 TYR A 338     -38.402 127.339   4.486  1.00 40.63     0.024 A 
ATOM     20  CD1 TYR A 338     -39.491 126.629   4.968  1.00 39.27    -0.002 A 
BRANCH  18  21
ATOM     21  OH  TYR A 338     -37.179 129.383   4.339  1.00 43.36    -0.359 OA
ATOM     22  HH  TYR A 338     -37.317 130.173   3.830  1.00  0.00     0.217 HD
ENDBRANCH  18  21
ENDBRANCH  14  15
ENDBRANCH  13  14
END_RES TYR A 338
ENDMDL
MODEL 3
REMARK VINA RESULT:    -8.082      1.417     16.920
REMARK INTER + INTRA:         -10.891
REMARK INTER:                 -10.523
REMARK INTRA:                  -0.368
REMARK UNBOUND:                -2.809
REMARK  0 active torsions:
REMARK  status: ('A' for Active; 'I' for Inactive)
REMARK       I    between atoms: C3_3  and  O3_21 
REMARK       I    between atoms: C6_6  and  C7_7 
REMARK       I    between atoms: C8_8  and  C9_9 
REMARK       I    between atoms: C10_10  and  C11_11 
REMARK       I    between atoms: C12_12  and  C13_13 
REMARK       I    between atoms: C14_14  and  C15_15 
REMARK       I    between atoms: C23_25  and  O23_43 
REMARK       I    between atoms: C26_28  and  C27_29 
REMARK       I    between atoms: C28_30  and  C29_31 
REMARK       I    between atoms: C30_32  and  C31_33 
REMARK       I    between atoms: C32_34  and  C33_35 
REMARK       I    between atoms: C34_36  and  C35_37 
ROOT
HETATM    1  C1  8UH F5620     -34.201 128.154   6.775  1.00 19.30    -0.018 C 
HETATM    2  C2  8UH F5620     -33.366 127.653   5.582  1.00 17.68     0.045 C 
HETATM    3  C3  8UH F5620     -32.012 128.300   5.310  1.00 17.79     0.123 C 
HETATM    4  C4  8UH F5620     -31.383 129.033   6.496  1.00 18.50     0.066 C 
HETATM    5  C5  8UH F5620     -32.279 129.685   7.499  1.00 19.40    -0.074 C 
HETATM    6  C6  8UH F5620     -33.595 129.299   7.649  1.00 19.02    -0.048 C 
HETATM    7  C7  8UH F5620     -34.483 129.952   8.624  1.00 18.60     0.009 C 
HETATM    8  C8  8UH F5620     -35.084 131.153   8.490  1.00 18.09     0.007 C 
HETATM    9  C9  8UH F5620     -35.873 131.864   9.501  1.00 18.23    -0.062 C 
HETATM   10  C10 8UH F5620     -36.478 133.013   9.131  1.00 15.81     0.007 C 
HETATM   11  C11 8UH F5620     -37.307 133.852   9.953  1.00 18.00     0.001 C 
HETATM   12  C12 8UH F5620     -37.986 134.866   9.393  1.00 18.12     0.007 C 
HETATM   13  C13 8UH F5620     -38.916 135.806  10.007  1.00 18.88    -0.062 C 
HETATM   14  C14 8UH F5620     -39.552 136.668   9.186  1.00 21.10     0.007 C 
HETATM   15  C15 8UH F5620     -40.570 137.626   9.528  1.00 24.06     0.001 C 
HETATM   16  C16 8UH F5620     -34.388 126.891   7.633  1.00 17.17     0.020 C 
HETATM   17  C17 8UH F5620     -35.584 128.562   6.220  1.00 16.95     0.020 C 
HETATM   18  C18 8UH F5620     -31.507 130.745   8.218  1.00 19.80     0.044 C 
HETATM   19  C19 8UH F5620     -35.995 131.236  10.871  1.00 17.09     0.048 C 
HETATM   20  C20 8UH F5620     -39.156 135.702  11.481  1.00 16.35     0.048 C 
HETATM   21  O3  8UH F5620     -31.106 127.341   4.798  1.00 17.38    -0.395 OA
ATOM     22  H3  8UH F5620     -30.262 127.744   4.628  1.00  0.00     0.210 HD
HETATM   23  C21 8UH F5620     -50.667 145.363   9.901  1.00 19.63    -0.018 C 
HETATM   24  C22 8UH F5620     -51.610 145.841  11.002  1.00 19.63     0.045 C 
HETATM   25  C23 8UH F5620     -51.000 146.642  12.142  1.00 19.63     0.123 C 
HETATM   26  C24 8UH F5620     -49.918 147.559  11.619  1.00 19.63     0.066 C 
HETATM   27  C25 8UH F5620     -48.876 146.676  11.004  1.00 19.63    -0.074 C 
HETATM   28  C26 8UH F5620     -49.222 145.805  10.052  1.00 19.63    -0.048 C 
HETATM   29  C27 8UH F5620     -48.229 145.265   9.089  1.00 19.63     0.009 C 
HETATM   30  C28 8UH F5620     -47.391 144.275   9.402  1.00 19.63     0.007 C 
HETATM   31  C29 8UH F5620     -46.402 143.698   8.445  1.00 26.61    -0.062 C 
HETATM   32  C30 8UH F5620     -45.622 142.698   8.906  1.00 25.24     0.007 C 
HETATM   33  C31 8UH F5620     -44.643 141.961   8.161  1.00 26.40     0.001 C 
HETATM   34  C32 8UH F5620     -43.889 141.009   8.743  1.00 26.29     0.007 C 
HETATM   35  C33 8UH F5620     -42.842 140.177   8.140  1.00 26.99    -0.062 C 
HETATM   36  C34 8UH F5620     -42.192 139.310   8.946  1.00 26.65     0.007 C 
HETATM   37  C35 8UH F5620     -41.136 138.402   8.597  1.00 25.43     0.001 C 
HETATM   38  C36 8UH F5620     -51.246 145.834   8.571  1.00 19.63     0.020 C 
HETATM   39  C37 8UH F5620     -50.669 143.846   9.917  1.00 19.63     0.020 C 
HETATM   40  C38 8UH F5620     -47.642 147.518  10.920  1.00 19.63     0.044 C 
HETATM   41  C39 8UH F5620     -46.322 144.253   7.044  1.00 26.87     0.048 C 
HETATM   42  C40 8UH F5620     -42.551 140.364   6.680  1.00 24.17     0.048 C 
HETATM   43  O23 8UH F5620     -52.027 147.427  12.751  1.00 19.63    -0.395 OA
ATOM     44  H23 8UH F5620     -52.707 146.850  13.080  1.00  0.00     0.210 HD
ENDROOT
TORSDOF 12
BEGIN_RES PHE A  61
REMARK  2 active torsions:
REMARK  status: ('A' for Active; 'I' for Inactive)
REMARK    1  A    between atoms: CA   and  CB  
REMARK    2  A    between atoms: CB   and  CG  
ROOT
ATOM      1  CA  PHE A  61     -36.237 128.293  12.768  1.00 39.40     0.164 C 
ENDROOT
BRANCH   1   2
ATOM      2  CB  PHE A  61     -36.813 128.951  11.509  1.00 39.41     0.058 C 
BRANCH   2   3
ATOM      3  CG  PHE A  61     -37.005 128.009  10.345  1.00 39.01    -0.020 A 
ATOM      4  CD2 PHE A  61     -36.272 126.837  10.249  1.00 40.32    -0.004 A 
ATOM      5  CE2 PHE A  61     -36.447 125.973   9.176  1.00 40.20    -0.000 A 
ATOM      6  CZ  PHE A  61     -37.361 126.268   8.189  1.00 40.34    -0.000 A 
ATOM      7  CE1 PHE A  61     -38.099 127.427   8.271  1.00 41.51    -0.000 A 
ATOM      8  CD1 PHE A  61     -37.919 128.295   9.340  1.00 39.94    -0.004 A 
ENDBRANCH   2   3
ENDBRANCH   1   2
END_RES PHE A  61
BEGIN_RES VAL A 134
REMARK  1 active torsions:
REMARK  status: ('A' for Active; 'I' for Inactive)
REMARK    3  A    between atoms: CA   and  CB  
ROOT
ATOM      9  CA  VAL A 134     -29.766 132.051   9.815  1.00 40.75     0.159 C 
ENDROOT
BRANCH   9  10
ATOM     10  CB  VAL A 134     -30.864 132.765   9.009  1.00 40.76     0.029 C 
ATOM     11  CG1 VAL A 134     -32.106 132.978   9.862  1.00 41.76     0.002 C 
ATOM     12  CG2 VAL A 134     -30.371 134.084   8.434  1.00 40.56     0.002 C 
ENDBRANCH   9  10
END_RES VAL A 134
BEGIN_RES TYR A 338
REMARK  3 active torsions:
REMARK  status: ('A' for Active; 'I' for Inactive)
REMARK    4  A    between atoms: CA   and  CB  
REMARK    5  A    between atoms: CB   and  CG  
REMARK    6  A    between atoms: CZ   and  OH  
ROOT
ATOM     13  CA  TYR A 338     -41.631 124.950   6.058  1.00 38.23     0.164 C 
ENDROOT
BRANCH  13  14
ATOM     14  CB  TYR A 338     -41.621 126.456   6.339  1.00 39.15     0.058 C 
BRANCH  14  15
ATOM     15  CG  TYR A 338     -40.429 127.215   5.804  1.00 39.03    -0.020 A 
ATOM     16  CD2 TYR A 338     -40.274 128.563   6.081  1.00 40.65    -0.002 A 
ATOM     17  CE2 TYR A 338     -39.202 129.294   5.594  1.00 40.91     0.024 A 
ATOM     18  CZ  TYR A 338     -38.251 128.674   4.805  1.00 42.33     0.089 A 
ATOM     19  CE1 TYR A 338     -38.380 127.327   4.518  1.00 40.63     0.024 A 
ATOM     20  CD1 TYR A 338     -39.467 126.617   5.005  1.00 39.27    -0.002 A 
BRANCH  18  21
ATOM     21  OH  TYR A 338     -37.187 129.384   4.323  1.00 43.36    -0.359 OA
ATOM     22  HH  TYR A 338     -36.525 129.721   4.916  1.00  0.00     0.217 HD
ENDBRANCH  18  21
ENDBRANCH  14  15
ENDBRANCH  13  14
END_RES TYR A 338
ENDMDL
