MODEL 1
REMARK VINA RESULT:    -8.954      0.000      0.000
REMARK INTER + INTRA:         -11.844
REMARK INTER:                  -8.954
REMARK INTRA:                  -2.890
REMARK UNBOUND:                -2.890
REMARK  0 active torsions:
REMARK  status: ('A' for Active; 'I' for Inactive)
REMARK       I    between atoms: C3_3  and  O3_21 
REMARK       I    between atoms: C6_6  and  C7_7 
REMARK       I    between atoms: C8_8  and  C9_9 
REMARK       I    between atoms: C10_10  and  C11_11 
REMARK       I    between atoms: C12_12  and  C13_13 
REMARK       I    between atoms: C14_14  and  C15_15 
REMARK       I    between atoms: C23_25  and  O23_43 
REMARK       I    between atoms: C26_28  and  C27_29 
REMARK       I    between atoms: C28_30  and  C29_31 
REMARK       I    between atoms: C30_32  and  C31_33 
REMARK       I    between atoms: C32_34  and  C33_35 
REMARK       I    between atoms: C34_36  and  C35_37 
ROOT
HETATM    1  C1  8UH 8 314     -34.388 126.787   6.332  1.00 73.63    -0.018 C 
HETATM    2  C2  8UH 8 314     -33.858 125.985   5.148  1.00 75.58     0.045 C 
HETATM    3  C3  8UH 8 314     -32.984 126.767   4.181  1.00 77.85     0.123 C 
HETATM    4  C4  8UH 8 314     -31.868 127.461   4.944  1.00 76.46     0.066 C 
HETATM    5  C5  8UH 8 314     -32.437 128.333   6.037  1.00 74.82    -0.074 C 
HETATM    6  C6  8UH 8 314     -33.554 128.002   6.697  1.00 72.89    -0.048 C 
HETATM    7  C7  8UH 8 314     -34.024 128.830   7.835  1.00 69.76     0.009 C 
HETATM    8  C8  8UH 8 314     -34.688 129.968   7.619  1.00 67.74     0.007 C 
HETATM    9  C9  8UH 8 314     -35.197 130.819   8.715  1.00 67.19    -0.062 C 
HETATM   10  C10 8UH 8 314     -35.942 131.880   8.379  1.00 64.55     0.007 C 
HETATM   11  C11 8UH 8 314     -36.543 132.813   9.331  1.00 61.91     0.001 C 
HETATM   12  C12 8UH 8 314     -37.407 133.674   8.800  1.00 60.53     0.007 C 
HETATM   13  C13 8UH 8 314     -38.157 134.691   9.562  1.00 59.33    -0.062 C 
HETATM   14  C14 8UH 8 314     -39.099 135.384   8.901  1.00 60.00     0.007 C 
HETATM   15  C15 8UH 8 314     -39.938 136.401   9.531  1.00 60.35     0.001 C 
HETATM   16  C16 8UH 8 314     -34.470 125.850   7.531  1.00 75.09     0.020 C 
HETATM   17  C17 8UH 8 314     -35.788 127.280   5.989  1.00 73.62     0.020 C 
HETATM   18  C18 8UH 8 314     -31.582 129.478   6.494  1.00 74.16     0.044 C 
HETATM   19  C19 8UH 8 314     -34.903 130.498  10.152  1.00 68.15     0.048 C 
HETATM   20  C20 8UH 8 314     -37.885 134.925  11.018  1.00 57.80     0.048 C 
HETATM   21  O3  8UH 8 314     -32.414 125.856   3.233  1.00 79.25    -0.395 OA
ATOM     22  H3  8UH 8 314     -31.868 126.345   2.628  1.00  0.00     0.210 HD
HETATM   23  C21 8UH 8 314     -49.568 144.682  11.622  1.00 22.96    -0.018 C 
HETATM   24  C22 8UH 8 314     -50.194 145.615  12.684  1.00 23.40     0.045 C 
HETATM   25  C23 8UH 8 314     -49.299 146.632  13.390  1.00 22.69     0.123 C 
HETATM   26  C24 8UH 8 314     -48.121 147.118  12.548  1.00 22.06     0.066 C 
HETATM   27  C25 8UH 8 314     -47.488 146.173  11.582  1.00 21.38    -0.074 C 
HETATM   28  C26 8UH 8 314     -48.129 145.038  11.130  1.00 22.58    -0.048 C 
HETATM   29  C27 8UH 8 314     -47.482 144.128  10.164  1.00 22.00     0.009 C 
HETATM   30  C28 8UH 8 314     -46.531 143.206  10.408  1.00 20.93     0.007 C 
HETATM   31  C29 8UH 8 314     -45.828 142.433   9.395  1.00 75.56    -0.062 C 
HETATM   32  C30 8UH 8 314     -45.092 141.377   9.773  1.00 73.06     0.007 C 
HETATM   33  C31 8UH 8 314     -44.348 140.524   8.848  1.00 70.20     0.001 C 
HETATM   34  C32 8UH 8 314     -43.516 139.653   9.414  1.00 68.68     0.007 C 
HETATM   35  C33 8UH 8 314     -42.668 138.684   8.694  1.00 66.05    -0.062 C 
HETATM   36  C34 8UH 8 314     -41.767 137.984   9.405  1.00 63.06     0.007 C 
HETATM   37  C35 8UH 8 314     -40.890 136.985   8.803  1.00 60.73     0.001 C 
HETATM   38  C36 8UH 8 314     -50.561 144.752  10.446  1.00 20.65     0.020 C 
HETATM   39  C37 8UH 8 314     -49.607 143.249  12.186  1.00 21.73     0.020 C 
HETATM   40  C38 8UH 8 314     -46.143 146.713  11.242  1.00 21.05     0.044 C 
HETATM   41  C39 8UH 8 314     -45.927 142.824   7.949  1.00 73.18     0.048 C 
HETATM   42  C40 8UH 8 314     -42.811 138.481   7.215  1.00 66.25     0.048 C 
HETATM   43  O23 8UH 8 314     -50.067 147.739  13.840  1.00 22.00    -0.395 OA
ATOM     44  H23 8UH 8 314     -49.510 148.371  14.279  1.00  0.00     0.210 HD
ENDROOT
TORSDOF 12
BEGIN_RES PHE A  61
REMARK  2 active torsions:
REMARK  status: ('A' for Active; 'I' for Inactive)
REMARK    1  A    between atoms: CA   and  CB  
REMARK    2  A    between atoms: CB   and  CG  
ROOT
ATOM      1  CA  PHE A  61     -36.237 128.293  12.768  1.00 39.40     0.164 C 
ENDROOT
BRANCH   1   2
ATOM      2  CB  PHE A  61     -36.813 128.951  11.509  1.00 39.41     0.058 C 
BRANCH   2   3
ATOM      3  CG  PHE A  61     -37.055 127.999  10.362  1.00 39.01    -0.020 A 
ATOM      4  CD2 PHE A  61     -36.338 126.817  10.255  1.00 40.32    -0.004 A 
ATOM      5  CE2 PHE A  61     -36.560 125.944   9.198  1.00 40.20    -0.000 A 
ATOM      6  CZ  PHE A  61     -37.502 126.239   8.239  1.00 40.34    -0.000 A 
ATOM      7  CE1 PHE A  61     -38.224 127.408   8.332  1.00 41.51    -0.000 A 
ATOM      8  CD1 PHE A  61     -37.998 128.285   9.386  1.00 39.94    -0.004 A 
ENDBRANCH   2   3
ENDBRANCH   1   2
END_RES PHE A  61
BEGIN_RES VAL A 134
REMARK  1 active torsions:
REMARK  status: ('A' for Active; 'I' for Inactive)
REMARK    3  A    between atoms: CA   and  CB  
ROOT
ATOM      9  CA  VAL A 134     -29.766 132.051   9.815  1.00 40.75     0.159 C 
ENDROOT
BRANCH   9  10
ATOM     10  CB  VAL A 134     -30.864 132.765   9.009  1.00 40.76     0.029 C 
ATOM     11  CG1 VAL A 134     -31.178 132.000   7.732  1.00 41.76     0.002 C 
ATOM     12  CG2 VAL A 134     -32.123 132.973   9.837  1.00 40.56     0.002 C 
ENDBRANCH   9  10
END_RES VAL A 134
BEGIN_RES TYR A 338
REMARK  3 active torsions:
REMARK  status: ('A' for Active; 'I' for Inactive)
REMARK    4  A    between atoms: CA   and  CB  
REMARK    5  A    between atoms: CB   and  CG  
REMARK    6  A    between atoms: CZ   and  OH  
ROOT
ATOM     13  CA  TYR A 338     -41.631 124.950   6.058  1.00 38.23     0.164 C 
ENDROOT
BRANCH  13  14
ATOM     14  CB  TYR A 338     -41.621 126.456   6.339  1.00 39.15     0.058 C 
BRANCH  14  15
ATOM     15  CG  TYR A 338     -40.421 127.213   5.817  1.00 39.03    -0.020 A 
ATOM     16  CD2 TYR A 338     -40.246 128.550   6.130  1.00 40.65    -0.002 A 
ATOM     17  CE2 TYR A 338     -39.166 129.279   5.656  1.00 40.91     0.024 A 
ATOM     18  CZ  TYR A 338     -38.229 128.668   4.844  1.00 42.33     0.089 A 
ATOM     19  CE1 TYR A 338     -38.380 127.331   4.522  1.00 40.63     0.024 A 
ATOM     20  CD1 TYR A 338     -39.474 126.623   4.995  1.00 39.27    -0.002 A 
BRANCH  18  21
ATOM     21  OH  TYR A 338     -37.158 129.376   4.375  1.00 43.36    -0.359 OA
ATOM     22  HH  TYR A 338     -36.363 128.927   4.112  1.00  0.00     0.217 HD
ENDBRANCH  18  21
ENDBRANCH  14  15
ENDBRANCH  13  14
END_RES TYR A 338
ENDMDL
MODEL 2
REMARK VINA RESULT:    -7.355      1.177     16.944
REMARK INTER + INTRA:         -10.245
REMARK INTER:                 -10.017
REMARK INTRA:                  -0.228
REMARK UNBOUND:                -2.890
REMARK  0 active torsions:
REMARK  status: ('A' for Active; 'I' for Inactive)
REMARK       I    between atoms: C3_3  and  O3_21 
REMARK       I    between atoms: C6_6  and  C7_7 
REMARK       I    between atoms: C8_8  and  C9_9 
REMARK       I    between atoms: C10_10  and  C11_11 
REMARK       I    between atoms: C12_12  and  C13_13 
REMARK       I    between atoms: C14_14  and  C15_15 
REMARK       I    between atoms: C23_25  and  O23_43 
REMARK       I    between atoms: C26_28  and  C27_29 
REMARK       I    between atoms: C28_30  and  C29_31 
REMARK       I    between atoms: C30_32  and  C31_33 
REMARK       I    between atoms: C32_34  and  C33_35 
REMARK       I    between atoms: C34_36  and  C35_37 
ROOT
HETATM    1  C1  8UH 8 314     -49.724 145.596  12.405  1.00 73.63    -0.018 C 
HETATM    2  C2  8UH 8 314     -50.458 146.215  13.590  1.00 75.58     0.045 C 
HETATM    3  C3  8UH 8 314     -49.572 146.953  14.580  1.00 77.85     0.123 C 
HETATM    4  C4  8UH 8 314     -48.718 147.972  13.843  1.00 76.46     0.066 C 
HETATM    5  C5  8UH 8 314     -47.921 147.303  12.750  1.00 74.82    -0.074 C 
HETATM    6  C6  8UH 8 314     -48.398 146.255  12.066  1.00 72.89    -0.048 C 
HETATM    7  C7  8UH 8 314     -47.631 145.691  10.929  1.00 69.76     0.009 C 
HETATM    8  C8  8UH 8 314     -46.601 144.869  11.144  1.00 67.74     0.007 C 
HETATM    9  C9  8UH 8 314     -45.817 144.263  10.048  1.00 67.19    -0.062 C 
HETATM   10  C10 8UH 8 314     -44.876 143.369  10.381  1.00 64.55     0.007 C 
HETATM   11  C11 8UH 8 314     -44.026 142.658   9.429  1.00 61.91     0.001 C 
HETATM   12  C12 8UH 8 314     -43.302 141.672   9.953  1.00 60.53     0.007 C 
HETATM   13  C13 8UH 8 314     -42.392 140.798   9.189  1.00 59.33    -0.062 C 
HETATM   14  C14 8UH 8 314     -41.847 139.757   9.840  1.00 60.00     0.007 C 
HETATM   15  C15 8UH 8 314     -40.951 138.793   9.205  1.00 60.35     0.001 C 
HETATM   16  C16 8UH 8 314     -50.648 145.666  11.194  1.00 75.09     0.020 C 
HETATM   17  C17 8UH 8 314     -49.438 144.135  12.727  1.00 73.62     0.020 C 
HETATM   18  C18 8UH 8 314     -46.661 147.995  12.320  1.00 74.16     0.044 C 
HETATM   19  C19 8UH 8 314     -46.075 144.622   8.614  1.00 68.15     0.048 C 
HETATM   20  C20 8UH 8 314     -42.103 141.057   7.740  1.00 57.80     0.048 C 
HETATM   21  O3  8UH 8 314     -50.405 147.632  15.528  1.00 79.25    -0.395 OA
ATOM     22  H3  8UH 8 314     -49.851 148.092  16.147  1.00  0.00     0.210 HD
HETATM   23  C21 8UH 8 314     -34.089 128.122   7.028  1.00 22.96    -0.018 C 
HETATM   24  C22 8UH 8 314     -33.241 127.388   5.965  1.00 23.40     0.045 C 
HETATM   25  C23 8UH 8 314     -32.099 128.141   5.286  1.00 22.69     0.123 C 
HETATM   26  C24 8UH 8 314     -31.462 129.225   6.153  1.00 22.06     0.066 C 
HETATM   27  C25 8UH 8 314     -32.320 129.969   7.120  1.00 21.38    -0.074 C 
HETATM   28  C26 8UH 8 314     -33.540 129.488   7.549  1.00 22.58    -0.048 C 
HETATM   29  C27 8UH 8 314     -34.361 130.242   8.518  1.00 22.00     0.009 C 
HETATM   30  C28 8UH 8 314     -35.137 131.318   8.281  1.00 20.93     0.007 C 
HETATM   31  C29 8UH 8 314     -35.815 132.107   9.298  1.00 75.56    -0.062 C 
HETATM   32  C30 8UH 8 314     -36.751 132.991   8.922  1.00 73.06     0.007 C 
HETATM   33  C31 8UH 8 314     -37.502 133.833   9.852  1.00 70.20     0.001 C 
HETATM   34  C32 8UH 8 314     -38.240 134.789   9.292  1.00 68.68     0.007 C 
HETATM   35  C33 8UH 8 314     -39.088 135.754  10.017  1.00 66.05    -0.062 C 
HETATM   36  C34 8UH 8 314     -39.644 136.756   9.315  1.00 63.06     0.007 C 
HETATM   37  C35 8UH 8 314     -40.517 137.756   9.922  1.00 60.73     0.001 C 
HETATM   38  C36 8UH 8 314     -34.175 127.111   8.187  1.00 20.65     0.020 C 
HETATM   39  C37 8UH 8 314     -35.506 128.295   6.450  1.00 21.73     0.020 C 
HETATM   40  C38 8UH 8 314     -31.599 131.218   7.489  1.00 21.05     0.044 C 
HETATM   41  C39 8UH 8 314     -35.460 131.930  10.746  1.00 73.18     0.048 C 
HETATM   42  C40 8UH 8 314     -39.328 135.618  11.491  1.00 66.25     0.048 C 
HETATM   43  O23 8UH 8 314     -31.106 127.231   4.833  1.00 22.00    -0.395 OA
ATOM     44  H23 8UH 8 314     -30.396 127.700   4.411  1.00  0.00     0.210 HD
ENDROOT
TORSDOF 12
BEGIN_RES PHE A  61
REMARK  2 active torsions:
REMARK  status: ('A' for Active; 'I' for Inactive)
REMARK    1  A    between atoms: CA   and  CB  
REMARK    2  A    between atoms: CB   and  CG  
ROOT
ATOM      1  CA  PHE A  61     -36.237 128.293  12.768  1.00 39.40     0.164 C 
ENDROOT
BRANCH   1   2
ATOM      2  CB  PHE A  61     -36.813 128.951  11.509  1.00 39.41     0.058 C 
BRANCH   2   3
ATOM      3  CG  PHE A  61     -37.034 128.003  10.355  1.00 39.01    -0.020 A 
ATOM      4  CD2 PHE A  61     -36.311 126.825  10.253  1.00 40.32    -0.004 A 
ATOM      5  CE2 PHE A  61     -36.513 125.955   9.189  1.00 40.20    -0.000 A 
ATOM      6  CZ  PHE A  61     -37.442 126.251   8.217  1.00 40.34    -0.000 A 
ATOM      7  CE1 PHE A  61     -38.170 127.417   8.305  1.00 41.51    -0.000 A 
ATOM      8  CD1 PHE A  61     -37.964 128.290   9.365  1.00 39.94    -0.004 A 
ENDBRANCH   2   3
ENDBRANCH   1   2
END_RES PHE A  61
BEGIN_RES VAL A 134
REMARK  1 active torsions:
REMARK  status: ('A' for Active; 'I' for Inactive)
REMARK    3  A    between atoms: CA   and  CB  
ROOT
ATOM      9  CA  VAL A 134     -29.766 132.051   9.815  1.00 40.75     0.159 C 
ENDROOT
BRANCH   9  10
ATOM     10  CB  VAL A 134     -30.864 132.765   9.009  1.00 40.76     0.029 C 
ATOM     11  CG1 VAL A 134     -32.115 132.953   9.854  1.00 41.76     0.002 C 
ATOM     12  CG2 VAL A 134     -30.379 134.097   8.457  1.00 40.56     0.002 C 
ENDBRANCH   9  10
END_RES VAL A 134
BEGIN_RES TYR A 338
REMARK  3 active torsions:
REMARK  status: ('A' for Active; 'I' for Inactive)
REMARK    4  A    between atoms: CA   and  CB  
REMARK    5  A    between atoms: CB   and  CG  
REMARK    6  A    between atoms: CZ   and  OH  
ROOT
ATOM     13  CA  TYR A 338     -41.631 124.950   6.058  1.00 38.23     0.164 C 
ENDROOT
BRANCH  13  14
ATOM     14  CB  TYR A 338     -41.621 126.456   6.339  1.00 39.15     0.058 C 
BRANCH  14  15
ATOM     15  CG  TYR A 338     -40.421 127.213   5.818  1.00 39.03    -0.020 A 
ATOM     16  CD2 TYR A 338     -40.263 128.558   6.104  1.00 40.65    -0.002 A 
ATOM     17  CE2 TYR A 338     -39.183 129.287   5.629  1.00 40.91     0.024 A 
ATOM     18  CZ  TYR A 338     -38.228 128.667   4.845  1.00 42.33     0.089 A 
ATOM     19  CE1 TYR A 338     -38.362 127.322   4.549  1.00 40.63     0.024 A 
ATOM     20  CD1 TYR A 338     -39.456 126.614   5.023  1.00 39.27    -0.002 A 
BRANCH  18  21
ATOM     21  OH  TYR A 338     -37.157 129.375   4.375  1.00 43.36    -0.359 OA
ATOM     22  HH  TYR A 338     -37.265 130.273   4.084  1.00  0.00     0.217 HD
ENDBRANCH  18  21
ENDBRANCH  14  15
ENDBRANCH  13  14
END_RES TYR A 338
ENDMDL
