MODEL 1
REMARK VINA RESULT:   -11.788      0.000      0.000
REMARK INTER + INTRA:         -11.981
REMARK INTER:                 -11.788
REMARK INTRA:                  -0.193
REMARK UNBOUND:                -0.193
REMARK  0 active torsions:
REMARK  status: ('A' for Active; 'I' for Inactive)
REMARK       I    between atoms: C3_3  and  O3_21 
REMARK       I    between atoms: C6_6  and  C7_7 
REMARK       I    between atoms: C8_8  and  C9_9 
REMARK       I    between atoms: C10_10  and  C11_11 
REMARK       I    between atoms: C12_12  and  C13_13 
REMARK       I    between atoms: C14_14  and  C15_15 
REMARK       I    between atoms: C23_25  and  O23_43 
REMARK       I    between atoms: C26_28  and  C27_29 
REMARK       I    between atoms: C28_30  and  C29_31 
REMARK       I    between atoms: C30_32  and  C31_33 
REMARK       I    between atoms: C32_34  and  C33_35 
REMARK       I    between atoms: C34_36  and  C35_37 
ROOT
HETATM    1  C1  8UH g1620     -34.165 128.037   6.981  1.00 66.61    -0.018 C 
HETATM    2  C2  8UH g1620     -33.491 127.567   5.697  1.00 66.61     0.045 C 
HETATM    3  C3  8UH g1620     -32.206 128.259   5.267  1.00 66.61     0.123 C 
HETATM    4  C4  8UH g1620     -31.395 128.717   6.459  1.00 66.61     0.066 C 
HETATM    5  C5  8UH g1620     -32.251 129.588   7.332  1.00 66.61    -0.074 C 
HETATM    6  C6  8UH g1620     -33.503 129.234   7.639  1.00 66.61    -0.048 C 
HETATM    7  C7  8UH g1620     -34.277 129.998   8.650  1.00 66.61     0.009 C 
HETATM    8  C8  8UH g1620     -34.988 131.077   8.317  1.00 66.61     0.007 C 
HETATM    9  C9  8UH g1620     -35.771 131.843   9.296  1.00 66.61    -0.062 C 
HETATM   10  C10 8UH g1620     -36.375 132.953   8.864  1.00 66.61     0.007 C 
HETATM   11  C11 8UH g1620     -37.193 133.797   9.720  1.00 66.61     0.001 C 
HETATM   12  C12 8UH g1620     -37.890 134.733   9.091  1.00 66.61     0.007 C 
HETATM   13  C13 8UH g1620     -38.787 135.670   9.779  1.00 66.61    -0.062 C 
HETATM   14  C14 8UH g1620     -39.529 136.481   9.020  1.00 66.61     0.007 C 
HETATM   15  C15 8UH g1620     -40.470 137.432   9.590  1.00 66.61     0.001 C 
HETATM   16  C16 8UH g1620     -34.211 126.848   7.935  1.00 66.61     0.020 C 
HETATM   17  C17 8UH g1620     -35.592 128.427   6.631  1.00 66.61     0.020 C 
HETATM   18  C18 8UH g1620     -31.501 130.645   8.090  1.00 66.61     0.044 C 
HETATM   19  C19 8UH g1620     -35.891 131.381  10.717  1.00 66.61     0.048 C 
HETATM   20  C20 8UH g1620     -38.868 135.707  11.275  1.00 66.61     0.048 C 
HETATM   21  O3  8UH g1620     -31.423 127.328   4.514  1.00 66.61    -0.395 OA
ATOM     22  H3  8UH g1620     -31.932 127.041   3.765  1.00  0.00     0.210 HD
HETATM   23  C21 8UH g1620     -50.523 144.957   9.991  1.00 21.58    -0.018 C 
HETATM   24  C22 8UH g1620     -51.508 145.542  11.023  1.00 21.20     0.045 C 
HETATM   25  C23 8UH g1620     -51.122 146.776  11.846  1.00 20.61     0.123 C 
HETATM   26  C24 8UH g1620     -49.824 147.475  11.414  1.00 19.82     0.066 C 
HETATM   27  C25 8UH g1620     -48.841 146.810  10.500  1.00 19.81    -0.074 C 
HETATM   28  C26 8UH g1620     -49.115 145.647   9.809  1.00 19.95    -0.048 C 
HETATM   29  C27 8UH g1620     -48.166 144.978   8.872  1.00 17.10     0.009 C 
HETATM   30  C28 8UH g1620     -47.149 144.176   9.261  1.00 17.58     0.007 C 
HETATM   31  C29 8UH g1620     -46.186 143.500   8.441  1.00 66.61    -0.062 C 
HETATM   32  C30 8UH g1620     -45.517 142.471   8.969  1.00 66.61     0.007 C 
HETATM   33  C31 8UH g1620     -44.536 141.670   8.251  1.00 66.61     0.001 C 
HETATM   34  C32 8UH g1620     -43.891 140.768   8.977  1.00 66.61     0.007 C 
HETATM   35  C33 8UH g1620     -42.887 139.859   8.413  1.00 66.61    -0.062 C 
HETATM   36  C34 8UH g1620     -42.256 139.026   9.247  1.00 66.61     0.007 C 
HETATM   37  C35 8UH g1620     -41.268 138.080   8.751  1.00 66.61     0.001 C 
HETATM   38  C36 8UH g1620     -51.342 145.036   8.682  1.00 19.38     0.020 C 
HETATM   39  C37 8UH g1620     -50.343 143.463  10.350  1.00 19.65     0.020 C 
HETATM   40  C38 8UH g1620     -47.612 147.643  10.451  1.00 20.06     0.044 C 
HETATM   41  C39 8UH g1620     -45.972 143.945   7.025  1.00 66.61     0.048 C 
HETATM   42  C40 8UH g1620     -42.604 139.865   6.940  1.00 66.61     0.048 C 
HETATM   43  O23 8UH g1620     -52.193 147.706  11.868  1.00 18.88    -0.395 OA
ATOM     44  H23 8UH g1620     -51.953 148.471  12.378  1.00  0.00     0.210 HD
ENDROOT
TORSDOF 12
BEGIN_RES PHE A  61
REMARK  2 active torsions:
REMARK  status: ('A' for Active; 'I' for Inactive)
REMARK    1  A    between atoms: CA   and  CB  
REMARK    2  A    between atoms: CB   and  CG  
ROOT
ATOM      1  CA  PHE A  61     -36.237 128.293  12.768  1.00 39.40     0.164 C 
ENDROOT
BRANCH   1   2
ATOM      2  CB  PHE A  61     -36.813 128.951  11.509  1.00 39.41     0.058 C 
BRANCH   2   3
ATOM      3  CG  PHE A  61     -37.042 128.001  10.358  1.00 39.01    -0.020 A 
ATOM      4  CD2 PHE A  61     -36.311 126.829  10.246  1.00 40.32    -0.004 A 
ATOM      5  CE2 PHE A  61     -36.520 125.957   9.185  1.00 40.20    -0.000 A 
ATOM      6  CZ  PHE A  61     -37.464 126.247   8.225  1.00 40.34    -0.000 A 
ATOM      7  CE1 PHE A  61     -38.199 127.407   8.322  1.00 41.51    -0.000 A 
ATOM      8  CD1 PHE A  61     -37.986 128.281   9.380  1.00 39.94    -0.004 A 
ENDBRANCH   2   3
ENDBRANCH   1   2
END_RES PHE A  61
BEGIN_RES VAL A 134
REMARK  1 active torsions:
REMARK  status: ('A' for Active; 'I' for Inactive)
REMARK    3  A    between atoms: CA   and  CB  
ROOT
ATOM      9  CA  VAL A 134     -29.766 132.051   9.815  1.00 40.75     0.159 C 
ENDROOT
BRANCH   9  10
ATOM     10  CB  VAL A 134     -30.864 132.765   9.009  1.00 40.76     0.029 C 
ATOM     11  CG1 VAL A 134     -32.108 132.971   9.860  1.00 41.76     0.002 C 
ATOM     12  CG2 VAL A 134     -30.373 134.088   8.441  1.00 40.56     0.002 C 
ENDBRANCH   9  10
END_RES VAL A 134
BEGIN_RES TYR A 338
REMARK  3 active torsions:
REMARK  status: ('A' for Active; 'I' for Inactive)
REMARK    4  A    between atoms: CA   and  CB  
REMARK    5  A    between atoms: CB   and  CG  
REMARK    6  A    between atoms: CZ   and  OH  
ROOT
ATOM     13  CA  TYR A 338     -41.631 124.950   6.058  1.00 38.23     0.164 C 
ENDROOT
BRANCH  13  14
ATOM     14  CB  TYR A 338     -41.621 126.456   6.339  1.00 39.15     0.058 C 
BRANCH  14  15
ATOM     15  CG  TYR A 338     -40.420 127.212   5.820  1.00 39.03    -0.020 A 
ATOM     16  CD2 TYR A 338     -40.262 128.558   6.106  1.00 40.65    -0.002 A 
ATOM     17  CE2 TYR A 338     -39.181 129.286   5.633  1.00 40.91     0.024 A 
ATOM     18  CZ  TYR A 338     -38.224 128.666   4.852  1.00 42.33     0.089 A 
ATOM     19  CE1 TYR A 338     -38.358 127.321   4.557  1.00 40.63     0.024 A 
ATOM     20  CD1 TYR A 338     -39.453 126.613   5.028  1.00 39.27    -0.002 A 
BRANCH  18  21
ATOM     21  OH  TYR A 338     -37.152 129.373   4.384  1.00 43.36    -0.359 OA
ATOM     22  HH  TYR A 338     -36.366 128.922   4.098  1.00  0.00     0.217 HD
ENDBRANCH  18  21
ENDBRANCH  14  15
ENDBRANCH  13  14
END_RES TYR A 338
ENDMDL
MODEL 2
REMARK VINA RESULT:    -9.211      0.680     16.820
REMARK INTER + INTRA:          -9.404
REMARK INTER:                  -8.968
REMARK INTRA:                  -0.435
REMARK UNBOUND:                -0.193
REMARK  0 active torsions:
REMARK  status: ('A' for Active; 'I' for Inactive)
REMARK       I    between atoms: C3_3  and  O3_21 
REMARK       I    between atoms: C6_6  and  C7_7 
REMARK       I    between atoms: C8_8  and  C9_9 
REMARK       I    between atoms: C10_10  and  C11_11 
REMARK       I    between atoms: C12_12  and  C13_13 
REMARK       I    between atoms: C14_14  and  C15_15 
REMARK       I    between atoms: C23_25  and  O23_43 
REMARK       I    between atoms: C26_28  and  C27_29 
REMARK       I    between atoms: C28_30  and  C29_31 
REMARK       I    between atoms: C30_32  and  C31_33 
REMARK       I    between atoms: C32_34  and  C33_35 
REMARK       I    between atoms: C34_36  and  C35_37 
ROOT
HETATM    1  C1  8UH g1620     -50.803 145.030  10.540  1.00 66.61    -0.018 C 
HETATM    2  C2  8UH g1620     -51.676 145.269  11.767  1.00 66.61     0.045 C 
HETATM    3  C3  8UH g1620     -51.156 146.204  12.848  1.00 66.61     0.123 C 
HETATM    4  C4  8UH g1620     -50.301 147.308  12.265  1.00 66.61     0.066 C 
HETATM    5  C5  8UH g1620     -49.195 146.697  11.451  1.00 66.61    -0.074 C 
HETATM    6  C6  8UH g1620     -49.443 145.700  10.596  1.00 66.61    -0.048 C 
HETATM    7  C7  8UH g1620     -48.388 145.230   9.661  1.00 66.61     0.009 C 
HETATM    8  C8  8UH g1620     -47.503 144.298  10.018  1.00 66.61     0.007 C 
HETATM    9  C9  8UH g1620     -46.459 143.808   9.108  1.00 66.61    -0.062 C 
HETATM   10  C10 8UH g1620     -45.576 142.936   9.601  1.00 66.61     0.007 C 
HETATM   11  C11 8UH g1620     -44.502 142.359   8.809  1.00 66.61     0.001 C 
HETATM   12  C12 8UH g1620     -43.852 141.356   9.384  1.00 66.61     0.007 C 
HETATM   13  C13 8UH g1620     -42.749 140.634   8.737  1.00 66.61    -0.062 C 
HETATM   14  C14 8UH g1620     -42.262 139.562   9.368  1.00 66.61     0.007 C 
HETATM   15  C15 8UH g1620     -41.188 138.755   8.811  1.00 66.61     0.001 C 
HETATM   16  C16 8UH g1620     -51.591 145.497   9.321  1.00 66.61     0.020 C 
HETATM   17  C17 8UH g1620     -50.582 143.531  10.424  1.00 66.61     0.020 C 
HETATM   18  C18 8UH g1620     -47.931 147.504  11.410  1.00 66.61     0.044 C 
HETATM   19  C19 8UH g1620     -46.404 144.266   7.681  1.00 66.61     0.048 C 
HETATM   20  C20 8UH g1620     -42.200 141.081   7.417  1.00 66.61     0.048 C 
HETATM   21  O3  8UH g1620     -52.276 146.798  13.510  1.00 66.61    -0.395 OA
ATOM     22  H3  8UH g1620     -52.812 146.105  13.877  1.00  0.00     0.210 HD
HETATM   23  C21 8UH g1620     -34.151 128.508   6.988  1.00 21.58    -0.018 C 
HETATM   24  C22 8UH g1620     -33.261 127.876   5.898  1.00 21.20     0.045 C 
HETATM   25  C23 8UH g1620     -31.813 128.344   5.716  1.00 20.61     0.123 C 
HETATM   26  C24 8UH g1620     -31.285 129.290   6.806  1.00 19.82     0.066 C 
HETATM   27  C25 8UH g1620     -32.209 129.973   7.767  1.00 19.81    -0.074 C 
HETATM   28  C26 8UH g1620     -33.543 129.645   7.899  1.00 19.95    -0.048 C 
HETATM   29  C27 8UH g1620     -34.478 130.289   8.866  1.00 17.10     0.009 C 
HETATM   30  C28 8UH g1620     -35.081 131.483   8.665  1.00 17.58     0.007 C 
HETATM   31  C29 8UH g1620     -35.983 132.182   9.533  1.00 66.61    -0.062 C 
HETATM   32  C30 8UH g1620     -36.755 133.137   9.006  1.00 66.61     0.007 C 
HETATM   33  C31 8UH g1620     -37.740 133.907   9.754  1.00 66.61     0.001 C 
HETATM   34  C32 8UH g1620     -38.324 134.891   9.086  1.00 66.61     0.007 C 
HETATM   35  C33 8UH g1620     -39.356 135.752   9.674  1.00 66.61    -0.062 C 
HETATM   36  C34 8UH g1620     -39.839 136.751   8.928  1.00 66.61     0.007 C 
HETATM   37  C35 8UH g1620     -40.883 137.627   9.441  1.00 66.61     0.001 C 
HETATM   38  C36 8UH g1620     -34.541 127.278   7.839  1.00 19.38     0.020 C 
HETATM   39  C37 8UH g1620     -35.426 129.019   6.276  1.00 19.65     0.020 C 
HETATM   40  C38 8UH g1620     -31.424 130.970   8.539  1.00 20.06     0.044 C 
HETATM   41  C39 8UH g1620     -36.051 131.816  10.985  1.00 66.61     0.048 C 
HETATM   42  C40 8UH g1620     -39.854 135.493  11.065  1.00 66.61     0.048 C 
HETATM   43  O23 8UH g1620     -30.950 127.227   5.580  1.00 18.88    -0.395 OA
ATOM     44  H23 8UH g1620     -30.052 127.517   5.468  1.00  0.00     0.210 HD
ENDROOT
TORSDOF 12
BEGIN_RES PHE A  61
REMARK  2 active torsions:
REMARK  status: ('A' for Active; 'I' for Inactive)
REMARK    1  A    between atoms: CA   and  CB  
REMARK    2  A    between atoms: CB   and  CG  
ROOT
ATOM      1  CA  PHE A  61     -36.237 128.293  12.768  1.00 39.40     0.164 C 
ENDROOT
BRANCH   1   2
ATOM      2  CB  PHE A  61     -36.813 128.951  11.509  1.00 39.41     0.058 C 
BRANCH   2   3
ATOM      3  CG  PHE A  61     -36.996 128.011  10.342  1.00 39.01    -0.020 A 
ATOM      4  CD2 PHE A  61     -36.273 126.832  10.257  1.00 40.32    -0.004 A 
ATOM      5  CE2 PHE A  61     -36.440 125.969   9.181  1.00 40.20    -0.000 A 
ATOM      6  CZ  PHE A  61     -37.335 126.273   8.181  1.00 40.34    -0.000 A 
ATOM      7  CE1 PHE A  61     -38.064 127.440   8.251  1.00 41.51    -0.000 A 
ATOM      8  CD1 PHE A  61     -37.892 128.306   9.323  1.00 39.94    -0.004 A 
ENDBRANCH   2   3
ENDBRANCH   1   2
END_RES PHE A  61
BEGIN_RES VAL A 134
REMARK  1 active torsions:
REMARK  status: ('A' for Active; 'I' for Inactive)
REMARK    3  A    between atoms: CA   and  CB  
ROOT
ATOM      9  CA  VAL A 134     -29.766 132.051   9.815  1.00 40.75     0.159 C 
ENDROOT
BRANCH   9  10
ATOM     10  CB  VAL A 134     -30.864 132.765   9.009  1.00 40.76     0.029 C 
ATOM     11  CG1 VAL A 134     -32.076 133.049   9.884  1.00 41.76     0.002 C 
ATOM     12  CG2 VAL A 134     -30.348 134.045   8.369  1.00 40.56     0.002 C 
ENDBRANCH   9  10
END_RES VAL A 134
BEGIN_RES TYR A 338
REMARK  3 active torsions:
REMARK  status: ('A' for Active; 'I' for Inactive)
REMARK    4  A    between atoms: CA   and  CB  
REMARK    5  A    between atoms: CB   and  CG  
REMARK    6  A    between atoms: CZ   and  OH  
ROOT
ATOM     13  CA  TYR A 338     -41.631 124.950   6.058  1.00 38.23     0.164 C 
ENDROOT
BRANCH  13  14
ATOM     14  CB  TYR A 338     -41.621 126.456   6.339  1.00 39.15     0.058 C 
BRANCH  14  15
ATOM     15  CG  TYR A 338     -40.423 127.213   5.814  1.00 39.03    -0.020 A 
ATOM     16  CD2 TYR A 338     -40.271 128.562   6.089  1.00 40.65    -0.002 A 
ATOM     17  CE2 TYR A 338     -39.193 129.291   5.611  1.00 40.91     0.024 A 
ATOM     18  CZ  TYR A 338     -38.234 128.669   4.835  1.00 42.33     0.089 A 
ATOM     19  CE1 TYR A 338     -38.361 127.320   4.551  1.00 40.63     0.024 A 
ATOM     20  CD1 TYR A 338     -39.453 126.612   5.027  1.00 39.27    -0.002 A 
BRANCH  18  21
ATOM     21  OH  TYR A 338     -37.164 129.377   4.362  1.00 43.36    -0.359 OA
ATOM     22  HH  TYR A 338     -37.294 130.096   3.755  1.00  0.00     0.217 HD
ENDBRANCH  18  21
ENDBRANCH  14  15
ENDBRANCH  13  14
END_RES TYR A 338
ENDMDL
