MODEL 1
REMARK VINA RESULT:    -8.699      0.000      0.000
REMARK INTER + INTRA:         -12.129
REMARK INTER:                  -8.699
REMARK INTRA:                  -3.430
REMARK UNBOUND:                -3.430
REMARK  0 active torsions:
REMARK  status: ('A' for Active; 'I' for Inactive)
REMARK       I    between atoms: C3_3  and  O3_21 
REMARK       I    between atoms: C6_6  and  C7_7 
REMARK       I    between atoms: C8_8  and  C9_9 
REMARK       I    between atoms: C10_10  and  C11_11 
REMARK       I    between atoms: C12_12  and  C13_13 
REMARK       I    between atoms: C14_14  and  C15_15 
REMARK       I    between atoms: C23_25  and  O23_43 
REMARK       I    between atoms: C26_28  and  C27_29 
REMARK       I    between atoms: C28_30  and  C29_31 
REMARK       I    between atoms: C30_32  and  C31_33 
REMARK       I    between atoms: C32_34  and  C33_35 
REMARK       I    between atoms: C34_36  and  C35_37 
ROOT
HETATM    1  C1  8UH S1620     -48.992 144.226  11.933  1.00 51.40    -0.018 C 
HETATM    2  C2  8UH S1620     -49.495 144.688  13.293  1.00 51.40     0.045 C 
HETATM    3  C3  8UH S1620     -48.883 145.927  13.934  1.00 51.40     0.123 C 
HETATM    4  C4  8UH S1620     -48.095 146.773  12.959  1.00 51.40     0.066 C 
HETATM    5  C5  8UH S1620     -47.178 145.899  12.167  1.00 51.40    -0.074 C 
HETATM    6  C6  8UH S1620     -47.673 144.846  11.528  1.00 51.40    -0.048 C 
HETATM    7  C7  8UH S1620     -46.957 144.259  10.381  1.00 51.40     0.009 C 
HETATM    8  C8  8UH S1620     -45.942 143.431  10.583  1.00 51.40     0.007 C 
HETATM    9  C9  8UH S1620     -45.234 142.812   9.466  1.00 51.40    -0.062 C 
HETATM   10  C10 8UH S1620     -44.213 142.026   9.796  1.00 51.40     0.007 C 
HETATM   11  C11 8UH S1620     -43.385 141.279   8.870  1.00 51.40     0.001 C 
HETATM   12  C12 8UH S1620     -42.683 140.346   9.488  1.00 51.40     0.007 C 
HETATM   13  C13 8UH S1620     -41.785 139.412   8.812  1.00 51.40    -0.062 C 
HETATM   14  C14 8UH S1620     -41.240 138.452   9.560  1.00 51.40     0.007 C 
HETATM   15  C15 8UH S1620     -40.372 137.436   8.994  1.00 51.40     0.001 C 
HETATM   16  C16 8UH S1620     -50.093 144.489  10.914  1.00 51.40     0.020 C 
HETATM   17  C17 8UH S1620     -48.774 142.726  12.004  1.00 51.40     0.020 C 
HETATM   18  C18 8UH S1620     -46.182 146.827  11.544  1.00 51.40     0.044 C 
HETATM   19  C19 8UH S1620     -45.670 143.057   8.054  1.00 51.40     0.048 C 
HETATM   20  C20 8UH S1620     -41.515 139.531   7.349  1.00 51.40     0.048 C 
HETATM   21  O3  8UH S1620     -49.940 146.742  14.442  1.00 51.40    -0.395 OA
ATOM     22  H3  8UH S1620     -50.435 146.211  15.055  1.00  0.00     0.210 HD
HETATM   23  C21 8UH S1620     -34.454 127.020   6.164  1.00 26.49    -0.018 C 
HETATM   24  C22 8UH S1620     -34.007 126.458   4.818  1.00 26.49     0.045 C 
HETATM   25  C23 8UH S1620     -32.767 127.071   4.186  1.00 26.49     0.123 C 
HETATM   26  C24 8UH S1620     -31.724 127.348   5.248  1.00 26.49     0.066 C 
HETATM   27  C25 8UH S1620     -32.329 128.314   6.224  1.00 26.49    -0.074 C 
HETATM   28  C26 8UH S1620     -33.559 128.117   6.720  1.00 26.49    -0.048 C 
HETATM   29  C27 8UH S1620     -34.033 128.970   7.847  1.00 26.49     0.009 C 
HETATM   30  C28 8UH S1620     -34.691 130.115   7.643  1.00 26.49     0.007 C 
HETATM   31  C29 8UH S1620     -35.161 130.988   8.706  1.00 51.40    -0.062 C 
HETATM   32  C30 8UH S1620     -36.239 131.738   8.472  1.00 51.40     0.007 C 
HETATM   33  C31 8UH S1620     -36.838 132.629   9.453  1.00 51.40     0.001 C 
HETATM   34  C32 8UH S1620     -37.682 133.528   8.972  1.00 51.40     0.007 C 
HETATM   35  C33 8UH S1620     -38.408 134.493   9.807  1.00 51.40    -0.062 C 
HETATM   36  C34 8UH S1620     -39.080 135.446   9.160  1.00 51.40     0.007 C 
HETATM   37  C35 8UH S1620     -39.902 136.472   9.778  1.00 51.40     0.001 C 
HETATM   38  C36 8UH S1620     -34.565 125.850   7.132  1.00 26.49     0.020 C 
HETATM   39  C37 8UH S1620     -35.833 127.617   5.965  1.00 26.49     0.020 C 
HETATM   40  C38 8UH S1620     -31.336 129.224   6.881  1.00 26.49     0.044 C 
HETATM   41  C39 8UH S1620     -34.450 131.026  10.023  1.00 51.40     0.048 C 
HETATM   42  C40 8UH S1620     -38.409 134.382  11.299  1.00 51.40     0.048 C 
HETATM   43  O23 8UH S1620     -32.241 126.167   3.211  1.00 26.49    -0.395 OA
ATOM     44  H23 8UH S1620     -32.895 125.992   2.544  1.00  0.00     0.210 HD
ENDROOT
TORSDOF 12
BEGIN_RES PHE A  61
REMARK  2 active torsions:
REMARK  status: ('A' for Active; 'I' for Inactive)
REMARK    1  A    between atoms: CA   and  CB  
REMARK    2  A    between atoms: CB   and  CG  
ROOT
ATOM      1  CA  PHE A  61     -36.237 128.293  12.768  1.00 39.40     0.164 C 
ENDROOT
BRANCH   1   2
ATOM      2  CB  PHE A  61     -36.813 128.951  11.509  1.00 39.41     0.058 C 
BRANCH   2   3
ATOM      3  CG  PHE A  61     -37.010 128.008  10.346  1.00 39.01    -0.020 A 
ATOM      4  CD2 PHE A  61     -37.977 128.255   9.385  1.00 40.32    -0.004 A 
ATOM      5  CE2 PHE A  61     -38.159 127.385   8.318  1.00 40.20    -0.000 A 
ATOM      6  CZ  PHE A  61     -37.374 126.261   8.197  1.00 40.34    -0.000 A 
ATOM      7  CE1 PHE A  61     -36.407 126.002   9.143  1.00 41.51    -0.000 A 
ATOM      8  CD1 PHE A  61     -36.229 126.868  10.214  1.00 39.94    -0.004 A 
ENDBRANCH   2   3
ENDBRANCH   1   2
END_RES PHE A  61
BEGIN_RES VAL A 134
REMARK  1 active torsions:
REMARK  status: ('A' for Active; 'I' for Inactive)
REMARK    3  A    between atoms: CA   and  CB  
ROOT
ATOM      9  CA  VAL A 134     -29.766 132.051   9.815  1.00 40.75     0.159 C 
ENDROOT
BRANCH   9  10
ATOM     10  CB  VAL A 134     -30.864 132.765   9.009  1.00 40.76     0.029 C 
ATOM     11  CG1 VAL A 134     -31.227 131.964   7.767  1.00 41.76     0.002 C 
ATOM     12  CG2 VAL A 134     -32.097 133.035   9.857  1.00 40.56     0.002 C 
ENDBRANCH   9  10
END_RES VAL A 134
BEGIN_RES TYR A 338
REMARK  3 active torsions:
REMARK  status: ('A' for Active; 'I' for Inactive)
REMARK    4  A    between atoms: CA   and  CB  
REMARK    5  A    between atoms: CB   and  CG  
REMARK    6  A    between atoms: CZ   and  OH  
ROOT
ATOM     13  CA  TYR A 338     -41.631 124.950   6.058  1.00 38.23     0.164 C 
ENDROOT
BRANCH  13  14
ATOM     14  CB  TYR A 338     -41.621 126.456   6.339  1.00 39.15     0.058 C 
BRANCH  14  15
ATOM     15  CG  TYR A 338     -40.423 127.214   5.814  1.00 39.03    -0.020 A 
ATOM     16  CD2 TYR A 338     -40.250 128.552   6.123  1.00 40.65    -0.002 A 
ATOM     17  CE2 TYR A 338     -39.172 129.281   5.645  1.00 40.91     0.024 A 
ATOM     18  CZ  TYR A 338     -38.235 128.670   4.835  1.00 42.33     0.089 A 
ATOM     19  CE1 TYR A 338     -38.383 127.332   4.515  1.00 40.63     0.024 A 
ATOM     20  CD1 TYR A 338     -39.476 126.623   4.992  1.00 39.27    -0.002 A 
BRANCH  18  21
ATOM     21  OH  TYR A 338     -37.165 129.378   4.362  1.00 43.36    -0.359 OA
ATOM     22  HH  TYR A 338     -36.370 128.930   4.100  1.00  0.00     0.217 HD
ENDBRANCH  18  21
ENDBRANCH  14  15
ENDBRANCH  13  14
END_RES TYR A 338
ENDMDL
MODEL 2
REMARK VINA RESULT:    -8.314      1.278     16.569
REMARK INTER + INTRA:         -11.744
REMARK INTER:                 -11.270
REMARK INTRA:                  -0.474
REMARK UNBOUND:                -3.430
REMARK  0 active torsions:
REMARK  status: ('A' for Active; 'I' for Inactive)
REMARK       I    between atoms: C3_3  and  O3_21 
REMARK       I    between atoms: C6_6  and  C7_7 
REMARK       I    between atoms: C8_8  and  C9_9 
REMARK       I    between atoms: C10_10  and  C11_11 
REMARK       I    between atoms: C12_12  and  C13_13 
REMARK       I    between atoms: C14_14  and  C15_15 
REMARK       I    between atoms: C23_25  and  O23_43 
REMARK       I    between atoms: C26_28  and  C27_29 
REMARK       I    between atoms: C28_30  and  C29_31 
REMARK       I    between atoms: C30_32  and  C31_33 
REMARK       I    between atoms: C32_34  and  C33_35 
REMARK       I    between atoms: C34_36  and  C35_37 
ROOT
HETATM    1  C1  8UH S1620     -34.215 128.299   6.868  1.00 51.40    -0.018 C 
HETATM    2  C2  8UH S1620     -33.505 127.889   5.586  1.00 51.40     0.045 C 
HETATM    3  C3  8UH S1620     -32.102 128.412   5.310  1.00 51.40     0.123 C 
HETATM    4  C4  8UH S1620     -31.430 128.987   6.538  1.00 51.40     0.066 C 
HETATM    5  C5  8UH S1620     -32.371 129.914   7.235  1.00 51.40    -0.074 C 
HETATM    6  C6  8UH S1620     -33.584 129.484   7.563  1.00 51.40    -0.048 C 
HETATM    7  C7  8UH S1620     -34.347 130.142   8.639  1.00 51.40     0.009 C 
HETATM    8  C8  8UH S1620     -35.009 131.264   8.397  1.00 51.40     0.007 C 
HETATM    9  C9  8UH S1620     -35.797 131.920   9.436  1.00 51.40    -0.062 C 
HETATM   10  C10 8UH S1620     -36.388 133.056   9.079  1.00 51.40     0.007 C 
HETATM   11  C11 8UH S1620     -37.246 133.866   9.921  1.00 51.40     0.001 C 
HETATM   12  C12 8UH S1620     -37.944 134.736   9.213  1.00 51.40     0.007 C 
HETATM   13  C13 8UH S1620     -38.920 135.663   9.782  1.00 51.40    -0.062 C 
HETATM   14  C14 8UH S1620     -39.629 136.394   8.922  1.00 51.40     0.007 C 
HETATM   15  C15 8UH S1620     -40.662 137.313   9.364  1.00 51.40     0.001 C 
HETATM   16  C16 8UH S1620     -34.295 127.074   7.770  1.00 51.40     0.020 C 
HETATM   17  C17 8UH S1620     -35.633 128.701   6.505  1.00 51.40     0.020 C 
HETATM   18  C18 8UH S1620     -31.520 130.721   8.164  1.00 51.40     0.044 C 
HETATM   19  C19 8UH S1620     -35.921 131.312  10.799  1.00 51.40     0.048 C 
HETATM   20  C20 8UH S1620     -39.112 135.762  11.259  1.00 51.40     0.048 C 
HETATM   21  O3  8UH S1620     -31.294 127.324   4.858  1.00 51.40    -0.395 OA
ATOM     22  H3  8UH S1620     -31.716 126.963   4.086  1.00  0.00     0.210 HD
HETATM   23  C21 8UH S1620     -50.850 144.105  10.628  1.00 26.49    -0.018 C 
HETATM   24  C22 8UH S1620     -51.660 144.473  11.867  1.00 26.49     0.045 C 
HETATM   25  C23 8UH S1620     -51.094 145.557  12.770  1.00 26.49     0.123 C 
HETATM   26  C24 8UH S1620     -50.486 146.665  11.935  1.00 26.49     0.066 C 
HETATM   27  C25 8UH S1620     -49.385 146.054  11.121  1.00 26.49    -0.074 C 
HETATM   28  C26 8UH S1620     -49.578 144.915  10.440  1.00 26.49    -0.048 C 
HETATM   29  C27 8UH S1620     -48.538 144.463   9.471  1.00 26.49     0.009 C 
HETATM   30  C28 8UH S1620     -47.537 143.655   9.830  1.00 26.49     0.007 C 
HETATM   31  C29 8UH S1620     -46.492 143.199   8.927  1.00 51.40    -0.062 C 
HETATM   32  C30 8UH S1620     -45.919 142.019   9.177  1.00 51.40     0.007 C 
HETATM   33  C31 8UH S1620     -44.888 141.425   8.341  1.00 51.40     0.001 C 
HETATM   34  C32 8UH S1620     -44.205 140.434   8.891  1.00 51.40     0.007 C 
HETATM   35  C33 8UH S1620     -43.147 139.689   8.197  1.00 51.40    -0.062 C 
HETATM   36  C34 8UH S1620     -42.433 138.843   8.942  1.00 51.40     0.007 C 
HETATM   37  C35 8UH S1620     -41.375 137.974   8.458  1.00 51.40     0.001 C 
HETATM   38  C36 8UH S1620     -51.775 144.235   9.424  1.00 26.49     0.020 C 
HETATM   39  C37 8UH S1620     -50.446 142.651  10.771  1.00 26.49     0.020 C 
HETATM   40  C38 8UH S1620     -48.261 146.994  10.807  1.00 26.49     0.044 C 
HETATM   41  C39 8UH S1620     -46.090 144.033   7.752  1.00 51.40     0.048 C 
HETATM   42  C40 8UH S1620     -42.916 139.857   6.729  1.00 51.40     0.048 C 
HETATM   43  O23 8UH S1620     -52.143 146.083  13.588  1.00 26.49    -0.395 OA
ATOM     44  H23 8UH S1620     -52.525 145.388  14.112  1.00  0.00     0.210 HD
ENDROOT
TORSDOF 12
BEGIN_RES PHE A  61
REMARK  2 active torsions:
REMARK  status: ('A' for Active; 'I' for Inactive)
REMARK    1  A    between atoms: CA   and  CB  
REMARK    2  A    between atoms: CB   and  CG  
ROOT
ATOM      1  CA  PHE A  61     -36.237 128.293  12.768  1.00 39.40     0.164 C 
ENDROOT
BRANCH   1   2
ATOM      2  CB  PHE A  61     -36.813 128.951  11.509  1.00 39.41     0.058 C 
BRANCH   2   3
ATOM      3  CG  PHE A  61     -37.012 128.007  10.347  1.00 39.01    -0.020 A 
ATOM      4  CD2 PHE A  61     -36.243 126.861  10.221  1.00 40.32    -0.004 A 
ATOM      5  CE2 PHE A  61     -36.424 125.996   9.150  1.00 40.20    -0.000 A 
ATOM      6  CZ  PHE A  61     -37.379 126.264   8.196  1.00 40.34    -0.000 A 
ATOM      7  CE1 PHE A  61     -38.153 127.397   8.307  1.00 41.51    -0.000 A 
ATOM      8  CD1 PHE A  61     -37.967 128.266   9.375  1.00 39.94    -0.004 A 
ENDBRANCH   2   3
ENDBRANCH   1   2
END_RES PHE A  61
BEGIN_RES VAL A 134
REMARK  1 active torsions:
REMARK  status: ('A' for Active; 'I' for Inactive)
REMARK    3  A    between atoms: CA   and  CB  
ROOT
ATOM      9  CA  VAL A 134     -29.766 132.051   9.815  1.00 40.75     0.159 C 
ENDROOT
BRANCH   9  10
ATOM     10  CB  VAL A 134     -30.864 132.765   9.009  1.00 40.76     0.029 C 
ATOM     11  CG1 VAL A 134     -32.104 132.982   9.864  1.00 41.76     0.002 C 
ATOM     12  CG2 VAL A 134     -30.369 134.082   8.431  1.00 40.56     0.002 C 
ENDBRANCH   9  10
END_RES VAL A 134
BEGIN_RES TYR A 338
REMARK  3 active torsions:
REMARK  status: ('A' for Active; 'I' for Inactive)
REMARK    4  A    between atoms: CA   and  CB  
REMARK    5  A    between atoms: CB   and  CG  
REMARK    6  A    between atoms: CZ   and  OH  
ROOT
ATOM     13  CA  TYR A 338     -41.631 124.950   6.058  1.00 38.23     0.164 C 
ENDROOT
BRANCH  13  14
ATOM     14  CB  TYR A 338     -41.621 126.456   6.339  1.00 39.15     0.058 C 
BRANCH  14  15
ATOM     15  CG  TYR A 338     -40.424 127.214   5.813  1.00 39.03    -0.020 A 
ATOM     16  CD2 TYR A 338     -40.272 128.562   6.086  1.00 40.65    -0.002 A 
ATOM     17  CE2 TYR A 338     -39.196 129.292   5.606  1.00 40.91     0.024 A 
ATOM     18  CZ  TYR A 338     -38.237 128.670   4.830  1.00 42.33     0.089 A 
ATOM     19  CE1 TYR A 338     -38.363 127.321   4.547  1.00 40.63     0.024 A 
ATOM     20  CD1 TYR A 338     -39.455 126.612   5.025  1.00 39.27    -0.002 A 
BRANCH  18  21
ATOM     21  OH  TYR A 338     -37.168 129.378   4.355  1.00 43.36    -0.359 OA
ATOM     22  HH  TYR A 338     -36.378 129.462   4.876  1.00  0.00     0.217 HD
ENDBRANCH  18  21
ENDBRANCH  14  15
ENDBRANCH  13  14
END_RES TYR A 338
ENDMDL
