MODEL 1
REMARK VINA RESULT:   -12.060      0.000      0.000
REMARK INTER + INTRA:         -12.382
REMARK INTER:                 -12.060
REMARK INTRA:                  -0.322
REMARK UNBOUND:                -0.322
REMARK  0 active torsions:
REMARK  status: ('A' for Active; 'I' for Inactive)
REMARK       I    between atoms: C3_3  and  O3_21 
REMARK       I    between atoms: C6_6  and  C7_7 
REMARK       I    between atoms: C8_8  and  C9_9 
REMARK       I    between atoms: C10_10  and  C11_11 
REMARK       I    between atoms: C12_12  and  C13_13 
REMARK       I    between atoms: C14_14  and  C15_15 
REMARK       I    between atoms: C23_25  and  O23_43 
REMARK       I    between atoms: C26_28  and  C27_29 
REMARK       I    between atoms: C28_30  and  C29_31 
REMARK       I    between atoms: C30_32  and  C31_33 
REMARK       I    between atoms: C32_34  and  C33_35 
REMARK       I    between atoms: C34_36  and  C35_37 
ROOT
HETATM    1  C1  8UH N1620     -49.593 144.693  12.325  1.00 57.79    -0.018 C 
HETATM    2  C2  8UH N1620     -50.529 145.314  13.347  1.00 59.26     0.045 C 
HETATM    3  C3  8UH N1620     -49.818 145.823  14.580  1.00 62.25     0.123 C 
HETATM    4  C4  8UH N1620     -48.829 146.885  14.172  1.00 57.83     0.066 C 
HETATM    5  C5  8UH N1620     -47.907 146.392  13.093  1.00 54.66    -0.074 C 
HETATM    6  C6  8UH N1620     -48.243 145.400  12.238  1.00 55.29    -0.048 C 
HETATM    7  C7  8UH N1620     -47.313 145.006  11.147  1.00 55.61     0.009 C 
HETATM    8  C8  8UH N1620     -46.322 144.131  11.321  1.00 56.19     0.007 C 
HETATM    9  C9  8UH N1620     -45.409 143.737  10.250  1.00 61.49    -0.062 C 
HETATM   10  C10 8UH N1620     -44.528 142.796  10.576  1.00 57.47     0.007 C 
HETATM   11  C11 8UH N1620     -43.539 142.245   9.675  1.00 53.29     0.001 C 
HETATM   12  C12 8UH N1620     -42.861 141.242  10.199  1.00 52.45     0.007 C 
HETATM   13  C13 8UH N1620     -41.840 140.521   9.445  1.00 52.04    -0.062 C 
HETATM   14  C14 8UH N1620     -41.407 139.379   9.976  1.00 54.29     0.007 C 
HETATM   15  C15 8UH N1620     -40.426 138.534   9.327  1.00 53.12     0.001 C 
HETATM   16  C16 8UH N1620     -50.370 144.683  11.012  1.00 58.39     0.020 C 
HETATM   17  C17 8UH N1620     -49.322 143.251  12.723  1.00 64.45     0.020 C 
HETATM   18  C18 8UH N1620     -46.602 147.133  13.046  1.00 58.11     0.044 C 
HETATM   19  C19 8UH N1620     -45.462 144.378   8.894  1.00 70.55     0.048 C 
HETATM   20  C20 8UH N1620     -41.338 141.045   8.138  1.00 53.04     0.048 C 
HETATM   21  O3  8UH N1620     -50.764 146.413  15.474  1.00 65.91    -0.395 OA
ATOM     22  H3  8UH N1620     -50.317 146.733  16.249  1.00  0.00     0.210 HD
HETATM   23  C21 8UH N1620     -34.088 127.897   6.908  1.00 26.19    -0.018 C 
HETATM   24  C22 8UH N1620     -33.371 127.202   5.757  1.00 26.65     0.045 C 
HETATM   25  C23 8UH N1620     -32.298 127.990   5.031  1.00 28.07     0.123 C 
HETATM   26  C24 8UH N1620     -31.481 128.824   5.984  1.00 30.07     0.066 C 
HETATM   27  C25 8UH N1620     -32.396 129.722   6.751  1.00 28.83    -0.074 C 
HETATM   28  C26 8UH N1620     -33.490 129.227   7.340  1.00 27.49    -0.048 C 
HETATM   29  C27 8UH N1620     -34.173 129.943   8.446  1.00 29.45     0.009 C 
HETATM   30  C28 8UH N1620     -34.912 131.036   8.245  1.00 27.83     0.007 C 
HETATM   31  C29 8UH N1620     -35.619 131.719   9.328  1.00 71.47    -0.062 C 
HETATM   32  C30 8UH N1620     -36.467 132.670   8.947  1.00 69.97     0.007 C 
HETATM   33  C31 8UH N1620     -37.295 133.457   9.840  1.00 65.68     0.001 C 
HETATM   34  C32 8UH N1620     -37.929 134.449   9.243  1.00 62.75     0.007 C 
HETATM   35  C33 8UH N1620     -38.843 135.346   9.953  1.00 61.08    -0.062 C 
HETATM   36  C34 8UH N1620     -39.267 136.429   9.301  1.00 59.90     0.007 C 
HETATM   37  C35 8UH N1620     -40.206 137.360   9.898  1.00 55.64     0.001 C 
HETATM   38  C36 8UH N1620     -34.057 126.898   8.050  1.00 26.46     0.020 C 
HETATM   39  C37 8UH N1620     -35.531 128.163   6.501  1.00 26.61     0.020 C 
HETATM   40  C38 8UH N1620     -31.524 130.756   7.384  1.00 29.43     0.044 C 
HETATM   41  C39 8UH N1620     -35.404 131.362  10.766  1.00 74.91     0.048 C 
HETATM   42  C40 8UH N1620     -39.293 135.026  11.345  1.00 55.73     0.048 C 
HETATM   43  O23 8UH N1620     -31.433 127.078   4.359  1.00 27.44    -0.395 OA
ATOM     44  H23 8UH N1620     -30.761 127.572   3.904  1.00  0.00     0.210 HD
ENDROOT
TORSDOF 12
BEGIN_RES PHE A  61
REMARK  2 active torsions:
REMARK  status: ('A' for Active; 'I' for Inactive)
REMARK    1  A    between atoms: CA   and  CB  
REMARK    2  A    between atoms: CB   and  CG  
ROOT
ATOM      1  CA  PHE A  61     -36.237 128.293  12.768  1.00 39.40     0.164 C 
ENDROOT
BRANCH   1   2
ATOM      2  CB  PHE A  61     -36.813 128.951  11.509  1.00 39.41     0.058 C 
BRANCH   2   3
ATOM      3  CG  PHE A  61     -37.029 128.004  10.353  1.00 39.01    -0.020 A 
ATOM      4  CD2 PHE A  61     -36.298 126.831  10.247  1.00 40.32    -0.004 A 
ATOM      5  CE2 PHE A  61     -36.496 125.962   9.182  1.00 40.20    -0.000 A 
ATOM      6  CZ  PHE A  61     -37.429 126.253   8.213  1.00 40.34    -0.000 A 
ATOM      7  CE1 PHE A  61     -38.165 127.414   8.305  1.00 41.51    -0.000 A 
ATOM      8  CD1 PHE A  61     -37.963 128.286   9.366  1.00 39.94    -0.004 A 
ENDBRANCH   2   3
ENDBRANCH   1   2
END_RES PHE A  61
BEGIN_RES VAL A 134
REMARK  1 active torsions:
REMARK  status: ('A' for Active; 'I' for Inactive)
REMARK    3  A    between atoms: CA   and  CB  
ROOT
ATOM      9  CA  VAL A 134     -29.766 132.051   9.815  1.00 40.75     0.159 C 
ENDROOT
BRANCH   9  10
ATOM     10  CB  VAL A 134     -30.864 132.765   9.009  1.00 40.76     0.029 C 
ATOM     11  CG1 VAL A 134     -32.118 132.947   9.852  1.00 41.76     0.002 C 
ATOM     12  CG2 VAL A 134     -30.381 134.100   8.463  1.00 40.56     0.002 C 
ENDBRANCH   9  10
END_RES VAL A 134
BEGIN_RES TYR A 338
REMARK  3 active torsions:
REMARK  status: ('A' for Active; 'I' for Inactive)
REMARK    4  A    between atoms: CA   and  CB  
REMARK    5  A    between atoms: CB   and  CG  
REMARK    6  A    between atoms: CZ   and  OH  
ROOT
ATOM     13  CA  TYR A 338     -41.631 124.950   6.058  1.00 38.23     0.164 C 
ENDROOT
BRANCH  13  14
ATOM     14  CB  TYR A 338     -41.621 126.456   6.339  1.00 39.15     0.058 C 
BRANCH  14  15
ATOM     15  CG  TYR A 338     -40.419 127.212   5.821  1.00 39.03    -0.020 A 
ATOM     16  CD2 TYR A 338     -40.260 128.557   6.108  1.00 40.65    -0.002 A 
ATOM     17  CE2 TYR A 338     -39.179 129.285   5.637  1.00 40.91     0.024 A 
ATOM     18  CZ  TYR A 338     -38.222 128.665   4.856  1.00 42.33     0.089 A 
ATOM     19  CE1 TYR A 338     -38.356 127.320   4.559  1.00 40.63     0.024 A 
ATOM     20  CD1 TYR A 338     -39.452 126.613   5.029  1.00 39.27    -0.002 A 
BRANCH  18  21
ATOM     21  OH  TYR A 338     -37.149 129.372   4.389  1.00 43.36    -0.359 OA
ATOM     22  HH  TYR A 338     -36.851 130.150   4.846  1.00  0.00     0.217 HD
ENDBRANCH  18  21
ENDBRANCH  14  15
ENDBRANCH  13  14
END_RES TYR A 338
ENDMDL
MODEL 2
REMARK VINA RESULT:   -10.342      1.247     16.638
REMARK INTER + INTRA:         -10.664
REMARK INTER:                  -7.939
REMARK INTRA:                  -2.725
REMARK UNBOUND:                -0.322
REMARK  0 active torsions:
REMARK  status: ('A' for Active; 'I' for Inactive)
REMARK       I    between atoms: C3_3  and  O3_21 
REMARK       I    between atoms: C6_6  and  C7_7 
REMARK       I    between atoms: C8_8  and  C9_9 
REMARK       I    between atoms: C10_10  and  C11_11 
REMARK       I    between atoms: C12_12  and  C13_13 
REMARK       I    between atoms: C14_14  and  C15_15 
REMARK       I    between atoms: C23_25  and  O23_43 
REMARK       I    between atoms: C26_28  and  C27_29 
REMARK       I    between atoms: C28_30  and  C29_31 
REMARK       I    between atoms: C30_32  and  C31_33 
REMARK       I    between atoms: C32_34  and  C33_35 
REMARK       I    between atoms: C34_36  and  C35_37 
ROOT
HETATM    1  C1  8UH N1620     -34.510 126.807   6.144  1.00 57.79    -0.018 C 
HETATM    2  C2  8UH N1620     -33.810 125.946   5.107  1.00 59.26     0.045 C 
HETATM    3  C3  8UH N1620     -32.941 126.738   4.157  1.00 62.25     0.123 C 
HETATM    4  C4  8UH N1620     -31.872 127.449   4.949  1.00 57.83     0.066 C 
HETATM    5  C5  8UH N1620     -32.465 128.265   6.063  1.00 54.66    -0.074 C 
HETATM    6  C6  8UH N1620     -33.661 127.981   6.624  1.00 55.29    -0.048 C 
HETATM    7  C7  8UH N1620     -34.159 128.785   7.771  1.00 55.61     0.009 C 
HETATM    8  C8  8UH N1620     -34.826 129.930   7.618  1.00 56.19     0.007 C 
HETATM    9  C9  8UH N1620     -35.322 130.720   8.742  1.00 61.49    -0.062 C 
HETATM   10  C10 8UH N1620     -36.032 131.793   8.408  1.00 57.47     0.007 C 
HETATM   11  C11 8UH N1620     -36.630 132.712   9.352  1.00 53.29     0.001 C 
HETATM   12  C12 8UH N1620     -37.385 133.629   8.778  1.00 52.45     0.007 C 
HETATM   13  C13 8UH N1620     -38.109 134.632   9.553  1.00 52.04    -0.062 C 
HETATM   14  C14 8UH N1620     -39.030 135.337   8.898  1.00 54.29     0.007 C 
HETATM   15  C15 8UH N1620     -39.855 136.339   9.539  1.00 53.12     0.001 C 
HETATM   16  C16 8UH N1620     -34.926 125.850   7.257  1.00 58.39     0.020 C 
HETATM   17  C17 8UH N1620     -35.773 127.386   5.526  1.00 64.45     0.020 C 
HETATM   18  C18 8UH N1620     -31.580 129.396   6.503  1.00 58.11     0.044 C 
HETATM   19  C19 8UH N1620     -35.019 130.346  10.163  1.00 70.55     0.048 C 
HETATM   20  C20 8UH N1620     -37.831 134.824  11.009  1.00 53.04     0.048 C 
HETATM   21  O3  8UH N1620     -32.300 125.854   3.236  1.00 65.91    -0.395 OA
ATOM     22  H3  8UH N1620     -31.754 126.351   2.639  1.00  0.00     0.210 HD
HETATM   23  C21 8UH N1620     -49.779 144.000  10.951  1.00 26.19    -0.018 C 
HETATM   24  C22 8UH N1620     -50.610 144.641  12.055  1.00 26.65     0.045 C 
HETATM   25  C23 8UH N1620     -49.866 145.433  13.113  1.00 28.07     0.123 C 
HETATM   26  C24 8UH N1620     -48.732 146.227  12.518  1.00 30.07     0.066 C 
HETATM   27  C25 8UH N1620     -47.820 145.299  11.785  1.00 28.83    -0.074 C 
HETATM   28  C26 8UH N1620     -48.315 144.415  10.914  1.00 27.49    -0.048 C 
HETATM   29  C27 8UH N1620     -47.469 143.796   9.863  1.00 29.45     0.009 C 
HETATM   30  C28 8UH N1620     -46.564 142.853  10.133  1.00 27.83     0.007 C 
HETATM   31  C29 8UH N1620     -45.758 142.213   9.093  1.00 71.47    -0.062 C 
HETATM   32  C30 8UH N1620     -45.045 141.162   9.488  1.00 69.97     0.007 C 
HETATM   33  C31 8UH N1620     -44.199 140.357   8.629  1.00 65.68     0.001 C 
HETATM   34  C32 8UH N1620     -43.466 139.474   9.281  1.00 62.75     0.007 C 
HETATM   35  C33 8UH N1620     -42.567 138.537   8.603  1.00 61.08    -0.062 C 
HETATM   36  C34 8UH N1620     -41.729 137.832   9.365  1.00 59.90     0.007 C 
HETATM   37  C35 8UH N1620     -40.827 136.848   8.798  1.00 55.64     0.001 C 
HETATM   38  C36 8UH N1620     -50.478 144.384   9.659  1.00 26.46     0.020 C 
HETATM   39  C37 8UH N1620     -49.815 142.488  11.121  1.00 26.61     0.020 C 
HETATM   40  C38 8UH N1620     -46.558 146.062  11.548  1.00 29.43     0.044 C 
HETATM   41  C39 8UH N1620     -45.746 142.708   7.681  1.00 74.91     0.048 C 
HETATM   42  C40 8UH N1620     -42.622 138.372   7.116  1.00 55.73     0.048 C 
HETATM   43  O23 8UH N1620     -50.777 146.330  13.742  1.00 27.44    -0.395 OA
ATOM     44  H23 8UH N1620     -50.311 146.826  14.405  1.00  0.00     0.210 HD
ENDROOT
TORSDOF 12
BEGIN_RES PHE A  61
REMARK  2 active torsions:
REMARK  status: ('A' for Active; 'I' for Inactive)
REMARK    1  A    between atoms: CA   and  CB  
REMARK    2  A    between atoms: CB   and  CG  
ROOT
ATOM      1  CA  PHE A  61     -36.237 128.293  12.768  1.00 39.40     0.164 C 
ENDROOT
BRANCH   1   2
ATOM      2  CB  PHE A  61     -36.813 128.951  11.509  1.00 39.41     0.058 C 
BRANCH   2   3
ATOM      3  CG  PHE A  61     -37.046 128.001  10.359  1.00 39.01    -0.020 A 
ATOM      4  CD2 PHE A  61     -36.325 126.821  10.253  1.00 40.32    -0.004 A 
ATOM      5  CE2 PHE A  61     -36.538 125.949   9.193  1.00 40.20    -0.000 A 
ATOM      6  CZ  PHE A  61     -37.475 126.244   8.229  1.00 40.34    -0.000 A 
ATOM      7  CE1 PHE A  61     -38.201 127.411   8.321  1.00 41.51    -0.000 A 
ATOM      8  CD1 PHE A  61     -37.984 128.287   9.377  1.00 39.94    -0.004 A 
ENDBRANCH   2   3
ENDBRANCH   1   2
END_RES PHE A  61
BEGIN_RES VAL A 134
REMARK  1 active torsions:
REMARK  status: ('A' for Active; 'I' for Inactive)
REMARK    3  A    between atoms: CA   and  CB  
ROOT
ATOM      9  CA  VAL A 134     -29.766 132.051   9.815  1.00 40.75     0.159 C 
ENDROOT
BRANCH   9  10
ATOM     10  CB  VAL A 134     -30.864 132.765   9.009  1.00 40.76     0.029 C 
ATOM     11  CG1 VAL A 134     -30.920 132.231   7.585  1.00 41.76     0.002 C 
ATOM     12  CG2 VAL A 134     -32.222 132.647   9.684  1.00 40.56     0.002 C 
ENDBRANCH   9  10
END_RES VAL A 134
BEGIN_RES TYR A 338
REMARK  3 active torsions:
REMARK  status: ('A' for Active; 'I' for Inactive)
REMARK    4  A    between atoms: CA   and  CB  
REMARK    5  A    between atoms: CB   and  CG  
REMARK    6  A    between atoms: CZ   and  OH  
ROOT
ATOM     13  CA  TYR A 338     -41.631 124.950   6.058  1.00 38.23     0.164 C 
ENDROOT
BRANCH  13  14
ATOM     14  CB  TYR A 338     -41.621 126.456   6.339  1.00 39.15     0.058 C 
BRANCH  14  15
ATOM     15  CG  TYR A 338     -40.426 127.215   5.809  1.00 39.03    -0.020 A 
ATOM     16  CD2 TYR A 338     -40.251 128.552   6.119  1.00 40.65    -0.002 A 
ATOM     17  CE2 TYR A 338     -39.176 129.283   5.638  1.00 40.91     0.024 A 
ATOM     18  CZ  TYR A 338     -38.243 128.672   4.821  1.00 42.33     0.089 A 
ATOM     19  CE1 TYR A 338     -38.393 127.335   4.500  1.00 40.63     0.024 A 
ATOM     20  CD1 TYR A 338     -39.483 126.625   4.981  1.00 39.27    -0.002 A 
BRANCH  18  21
ATOM     21  OH  TYR A 338     -37.176 129.382   4.343  1.00 43.36    -0.359 OA
ATOM     22  HH  TYR A 338     -36.847 129.223   3.466  1.00  0.00     0.217 HD
ENDBRANCH  18  21
ENDBRANCH  14  15
ENDBRANCH  13  14
END_RES TYR A 338
ENDMDL
