MODEL 1
REMARK VINA RESULT:   -10.927      0.000      0.000
REMARK INTER + INTRA:         -13.729
REMARK INTER:                 -10.927
REMARK INTRA:                  -2.802
REMARK UNBOUND:                -2.802
REMARK  0 active torsions:
REMARK  status: ('A' for Active; 'I' for Inactive)
REMARK       I    between atoms: C3_3  and  O3_21 
REMARK       I    between atoms: C6_6  and  C7_7 
REMARK       I    between atoms: C8_8  and  C9_9 
REMARK       I    between atoms: C10_10  and  C11_11 
REMARK       I    between atoms: C12_12  and  C13_13 
REMARK       I    between atoms: C14_14  and  C15_15 
REMARK       I    between atoms: C23_25  and  O23_43 
REMARK       I    between atoms: C26_28  and  C27_29 
REMARK       I    between atoms: C28_30  and  C29_31 
REMARK       I    between atoms: C30_32  and  C31_33 
REMARK       I    between atoms: C32_34  and  C33_35 
REMARK       I    between atoms: C34_36  and  C35_37 
ROOT
HETATM    1  C1  8UH W1620     -33.681 129.274   7.039  1.00 24.23    -0.018 C 
HETATM    2  C2  8UH W1620     -32.867 129.986   5.981  1.00 24.23     0.045 C 
HETATM    3  C3  8UH W1620     -32.122 131.191   6.490  1.00 24.23     0.123 C 
HETATM    4  C4  8UH W1620     -31.237 130.690   7.595  1.00 24.23     0.066 C 
HETATM    5  C5  8UH W1620     -32.076 130.142   8.702  1.00 24.23    -0.074 C 
HETATM    6  C6  8UH W1620     -33.299 129.698   8.442  1.00 24.23    -0.048 C 
HETATM    7  C7  8UH W1620     -34.384 129.966   9.378  1.00 24.23     0.009 C 
HETATM    8  C8  8UH W1620     -34.843 131.194   9.113  1.00 24.23     0.007 C 
HETATM    9  C9  8UH W1620     -35.951 131.828   9.851  1.00 24.23    -0.062 C 
HETATM   10  C10 8UH W1620     -36.345 133.049   9.446  1.00 24.23     0.007 C 
HETATM   11  C11 8UH W1620     -37.449 133.772  10.059  1.00 24.23     0.001 C 
HETATM   12  C12 8UH W1620     -37.826 134.950   9.576  1.00 24.23     0.007 C 
HETATM   13  C13 8UH W1620     -38.984 135.638  10.159  1.00 24.23    -0.062 C 
HETATM   14  C14 8UH W1620     -39.419 136.733   9.530  1.00 24.23     0.007 C 
HETATM   15  C15 8UH W1620     -40.593 137.510   9.902  1.00 24.23     0.001 C 
HETATM   16  C16 8UH W1620     -33.488 127.795   6.769  1.00 24.23     0.020 C 
HETATM   17  C17 8UH W1620     -35.144 129.623   6.835  1.00 24.23     0.020 C 
HETATM   18  C18 8UH W1620     -31.729 130.983   9.887  1.00 24.23     0.044 C 
HETATM   19  C19 8UH W1620     -36.597 131.105  10.993  1.00 24.23     0.048 C 
HETATM   20  C20 8UH W1620     -39.652 135.036  11.351  1.00 24.23     0.048 C 
HETATM   21  O3  8UH W1620     -31.291 131.693   5.452  1.00 24.23    -0.395 OA
ATOM     22  H3  8UH W1620     -31.851 132.010   4.753  1.00  0.00     0.210 HD
HETATM   23  C21 8UH W1620     -50.442 145.012   9.025  1.00 45.52    -0.018 C 
HETATM   24  C22 8UH W1620     -51.176 143.903   9.775  1.00 45.52     0.045 C 
HETATM   25  C23 8UH W1620     -50.742 143.737  11.226  1.00 45.52     0.123 C 
HETATM   26  C24 8UH W1620     -50.345 145.087  11.794  1.00 45.52     0.066 C 
HETATM   27  C25 8UH W1620     -49.130 145.533  11.035  1.00 45.52    -0.074 C 
HETATM   28  C26 8UH W1620     -49.161 145.427   9.699  1.00 45.52    -0.048 C 
HETATM   29  C27 8UH W1620     -47.921 145.403   8.918  1.00 45.52     0.009 C 
HETATM   30  C28 8UH W1620     -47.177 144.372   9.323  1.00 45.52     0.007 C 
HETATM   31  C29 8UH W1620     -45.932 143.964   8.638  1.00 24.23    -0.062 C 
HETATM   32  C30 8UH W1620     -45.353 142.841   9.100  1.00 24.23     0.007 C 
HETATM   33  C31 8UH W1620     -44.141 142.221   8.569  1.00 24.23     0.001 C 
HETATM   34  C32 8UH W1620     -43.694 141.108   9.148  1.00 24.23     0.007 C 
HETATM   35  C33 8UH W1620     -42.481 140.403   8.694  1.00 24.23    -0.062 C 
HETATM   36  C34 8UH W1620     -42.102 139.326   9.400  1.00 24.23     0.007 C 
HETATM   37  C35 8UH W1620     -40.926 138.516   9.106  1.00 24.23     0.001 C 
HETATM   38  C36 8UH W1620     -51.324 146.254   8.972  1.00 45.52     0.020 C 
HETATM   39  C37 8UH W1620     -50.114 144.564   7.608  1.00 45.52     0.020 C 
HETATM   40  C38 8UH W1620     -47.908 145.910  11.838  1.00 45.52     0.044 C 
HETATM   41  C39 8UH W1620     -45.421 144.753   7.467  1.00 24.23     0.048 C 
HETATM   42  C40 8UH W1620     -41.758 140.898   7.478  1.00 24.23     0.048 C 
HETATM   43  O23 8UH W1620     -51.817 143.199  12.001  1.00 45.52    -0.395 OA
ATOM     44  H23 8UH W1620     -52.065 142.355  11.645  1.00  0.00     0.210 HD
ENDROOT
TORSDOF 12
BEGIN_RES PHE A  61
REMARK  2 active torsions:
REMARK  status: ('A' for Active; 'I' for Inactive)
REMARK    1  A    between atoms: CA   and  CB  
REMARK    2  A    between atoms: CB   and  CG  
ROOT
ATOM      1  CA  PHE A  61     -36.237 128.293  12.768  1.00 39.40     0.164 C 
ENDROOT
BRANCH   1   2
ATOM      2  CB  PHE A  61     -36.813 128.951  11.509  1.00 39.41     0.058 C 
BRANCH   2   3
ATOM      3  CG  PHE A  61     -36.739 128.095  10.268  1.00 39.01    -0.020 A 
ATOM      4  CD2 PHE A  61     -37.752 128.122   9.322  1.00 40.32    -0.004 A 
ATOM      5  CE2 PHE A  61     -37.684 127.331   8.182  1.00 40.20    -0.000 A 
ATOM      6  CZ  PHE A  61     -36.601 126.508   7.973  1.00 40.34    -0.000 A 
ATOM      7  CE1 PHE A  61     -35.584 126.471   8.901  1.00 41.51    -0.000 A 
ATOM      8  CD1 PHE A  61     -35.655 127.256  10.045  1.00 39.94    -0.004 A 
ENDBRANCH   2   3
ENDBRANCH   1   2
END_RES PHE A  61
BEGIN_RES VAL A 134
REMARK  1 active torsions:
REMARK  status: ('A' for Active; 'I' for Inactive)
REMARK    3  A    between atoms: CA   and  CB  
ROOT
ATOM      9  CA  VAL A 134     -29.766 132.051   9.815  1.00 40.75     0.159 C 
ENDROOT
BRANCH   9  10
ATOM     10  CB  VAL A 134     -30.864 132.765   9.009  1.00 40.76     0.029 C 
ATOM     11  CG1 VAL A 134     -31.934 133.324   9.935  1.00 41.76     0.002 C 
ATOM     12  CG2 VAL A 134     -30.289 133.860   8.124  1.00 40.56     0.002 C 
ENDBRANCH   9  10
END_RES VAL A 134
BEGIN_RES TYR A 338
REMARK  3 active torsions:
REMARK  status: ('A' for Active; 'I' for Inactive)
REMARK    4  A    between atoms: CA   and  CB  
REMARK    5  A    between atoms: CB   and  CG  
REMARK    6  A    between atoms: CZ   and  OH  
ROOT
ATOM     13  CA  TYR A 338     -41.631 124.950   6.058  1.00 38.23     0.164 C 
ENDROOT
BRANCH  13  14
ATOM     14  CB  TYR A 338     -41.621 126.456   6.339  1.00 39.15     0.058 C 
BRANCH  14  15
ATOM     15  CG  TYR A 338     -40.402 127.206   5.854  1.00 39.03    -0.020 A 
ATOM     16  CD2 TYR A 338     -40.230 128.543   6.169  1.00 40.65    -0.002 A 
ATOM     17  CE2 TYR A 338     -39.132 129.265   5.729  1.00 40.91     0.024 A 
ATOM     18  CZ  TYR A 338     -38.172 128.648   4.949  1.00 42.33     0.089 A 
ATOM     19  CE1 TYR A 338     -38.319 127.311   4.624  1.00 40.63     0.024 A 
ATOM     20  CD1 TYR A 338     -39.431 126.609   5.064  1.00 39.27    -0.002 A 
BRANCH  18  21
ATOM     21  OH  TYR A 338     -37.083 129.349   4.512  1.00 43.36    -0.359 OA
ATOM     22  HH  TYR A 338     -36.502 128.978   3.859  1.00  0.00     0.217 HD
ENDBRANCH  18  21
ENDBRANCH  14  15
ENDBRANCH  13  14
END_RES TYR A 338
ENDMDL
MODEL 2
REMARK VINA RESULT:    -9.963      1.446     15.897
REMARK INTER + INTRA:         -12.764
REMARK INTER:                 -10.689
REMARK INTRA:                  -2.076
REMARK UNBOUND:                -2.802
REMARK  0 active torsions:
REMARK  status: ('A' for Active; 'I' for Inactive)
REMARK       I    between atoms: C3_3  and  O3_21 
REMARK       I    between atoms: C6_6  and  C7_7 
REMARK       I    between atoms: C8_8  and  C9_9 
REMARK       I    between atoms: C10_10  and  C11_11 
REMARK       I    between atoms: C12_12  and  C13_13 
REMARK       I    between atoms: C14_14  and  C15_15 
REMARK       I    between atoms: C23_25  and  O23_43 
REMARK       I    between atoms: C26_28  and  C27_29 
REMARK       I    between atoms: C28_30  and  C29_31 
REMARK       I    between atoms: C30_32  and  C31_33 
REMARK       I    between atoms: C32_34  and  C33_35 
REMARK       I    between atoms: C34_36  and  C35_37 
ROOT
HETATM    1  C1  8UH W1620     -49.259 143.844  10.015  1.00 24.23    -0.018 C 
HETATM    2  C2  8UH W1620     -49.253 143.839  11.528  1.00 24.23     0.045 C 
HETATM    3  C3  8UH W1620     -48.004 144.418  12.136  1.00 24.23     0.123 C 
HETATM    4  C4  8UH W1620     -47.902 145.820  11.609  1.00 24.23     0.066 C 
HETATM    5  C5  8UH W1620     -47.741 145.789  10.125  1.00 24.23    -0.074 C 
HETATM    6  C6  8UH W1620     -48.186 144.745   9.437  1.00 24.23    -0.048 C 
HETATM    7  C7  8UH W1620     -47.408 144.224   8.320  1.00 24.23     0.009 C 
HETATM    8  C8  8UH W1620     -46.475 143.412   8.830  1.00 24.23     0.007 C 
HETATM    9  C9  8UH W1620     -45.488 142.687   8.009  1.00 24.23    -0.062 C 
HETATM   10  C10 8UH W1620     -44.639 141.862   8.648  1.00 24.23     0.007 C 
HETATM   11  C11 8UH W1620     -43.640 141.058   7.959  1.00 24.23     0.001 C 
HETATM   12  C12 8UH W1620     -42.869 140.220   8.642  1.00 24.23     0.007 C 
HETATM   13  C13 8UH W1620     -41.914 139.365   7.928  1.00 24.23    -0.062 C 
HETATM   14  C14 8UH W1620     -41.287 138.427   8.643  1.00 24.23     0.007 C 
HETATM   15  C15 8UH W1620     -40.366 137.434   8.110  1.00 24.23     0.001 C 
HETATM   16  C16 8UH W1620     -50.669 144.235   9.619  1.00 24.23     0.020 C 
HETATM   17  C17 8UH W1620     -48.986 142.433   9.528  1.00 24.23     0.020 C 
HETATM   18  C18 8UH W1620     -46.426 146.452   9.875  1.00 24.23     0.044 C 
HETATM   19  C19 8UH W1620     -45.468 142.877   6.524  1.00 24.23     0.048 C 
HETATM   20  C20 8UH W1620     -41.765 139.531   6.451  1.00 24.23     0.048 C 
HETATM   21  O3  8UH W1620     -48.166 144.488  13.547  1.00 24.23    -0.395 OA
ATOM     22  H3  8UH W1620     -48.230 143.601  13.881  1.00  0.00     0.210 HD
HETATM   23  C21 8UH W1620     -33.886 126.919   6.890  1.00 45.52    -0.018 C 
HETATM   24  C22 8UH W1620     -34.396 126.938   5.451  1.00 45.52     0.045 C 
HETATM   25  C23 8UH W1620     -33.802 128.049   4.593  1.00 45.52     0.123 C 
HETATM   26  C24 8UH W1620     -32.379 128.330   5.040  1.00 45.52     0.066 C 
HETATM   27  C25 8UH W1620     -32.466 128.871   6.437  1.00 45.52    -0.074 C 
HETATM   28  C26 8UH W1620     -33.253 128.221   7.305  1.00 45.52    -0.048 C 
HETATM   29  C27 8UH W1620     -33.752 128.886   8.511  1.00 45.52     0.009 C 
HETATM   30  C28 8UH W1620     -34.459 129.959   8.150  1.00 45.52     0.007 C 
HETATM   31  C29 8UH W1620     -35.235 130.769   9.113  1.00 24.23    -0.062 C 
HETATM   32  C30 8UH W1620     -35.981 131.753   8.580  1.00 24.23     0.007 C 
HETATM   33  C31 8UH W1620     -36.855 132.662   9.318  1.00 24.23     0.001 C 
HETATM   34  C32 8UH W1620     -37.524 133.590   8.636  1.00 24.23     0.007 C 
HETATM   35  C33 8UH W1620     -38.429 134.558   9.281  1.00 24.23    -0.062 C 
HETATM   36  C34 8UH W1620     -38.998 135.482   8.491  1.00 24.23     0.007 C 
HETATM   37  C35 8UH W1620     -39.907 136.523   8.956  1.00 24.23     0.001 C 
HETATM   38  C36 8UH W1620     -32.807 125.850   7.029  1.00 45.52     0.020 C 
HETATM   39  C37 8UH W1620     -35.026 126.613   7.850  1.00 45.52     0.020 C 
HETATM   40  C38 8UH W1620     -31.794 130.195   6.712  1.00 45.52     0.044 C 
HETATM   41  C39 8UH W1620     -35.205 130.435  10.577  1.00 24.23     0.048 C 
HETATM   42  C40 8UH W1620     -38.685 134.453  10.755  1.00 24.23     0.048 C 
HETATM   43  O23 8UH W1620     -33.793 127.656   3.218  1.00 45.52    -0.395 OA
ATOM     44  H23 8UH W1620     -34.684 127.480   2.939  1.00  0.00     0.210 HD
ENDROOT
TORSDOF 12
BEGIN_RES PHE A  61
REMARK  2 active torsions:
REMARK  status: ('A' for Active; 'I' for Inactive)
REMARK    1  A    between atoms: CA   and  CB  
REMARK    2  A    between atoms: CB   and  CG  
ROOT
ATOM      1  CA  PHE A  61     -36.237 128.293  12.768  1.00 39.40     0.164 C 
ENDROOT
BRANCH   1   2
ATOM      2  CB  PHE A  61     -36.813 128.951  11.509  1.00 39.41     0.058 C 
BRANCH   2   3
ATOM      3  CG  PHE A  61     -37.097 127.992  10.378  1.00 39.01    -0.020 A 
ATOM      4  CD2 PHE A  61     -36.476 126.754  10.321  1.00 40.32    -0.004 A 
ATOM      5  CE2 PHE A  61     -36.737 125.874   9.279  1.00 40.20    -0.000 A 
ATOM      6  CZ  PHE A  61     -37.623 126.219   8.284  1.00 40.34    -0.000 A 
ATOM      7  CE1 PHE A  61     -38.250 127.445   8.327  1.00 41.51    -0.000 A 
ATOM      8  CD1 PHE A  61     -37.985 128.328   9.366  1.00 39.94    -0.004 A 
ENDBRANCH   2   3
ENDBRANCH   1   2
END_RES PHE A  61
BEGIN_RES VAL A 134
REMARK  1 active torsions:
REMARK  status: ('A' for Active; 'I' for Inactive)
REMARK    3  A    between atoms: CA   and  CB  
ROOT
ATOM      9  CA  VAL A 134     -29.766 132.051   9.815  1.00 40.75     0.159 C 
ENDROOT
BRANCH   9  10
ATOM     10  CB  VAL A 134     -30.864 132.765   9.009  1.00 40.76     0.029 C 
ATOM     11  CG1 VAL A 134     -30.881 132.273   7.569  1.00 41.76     0.002 C 
ATOM     12  CG2 VAL A 134     -32.232 132.598   9.653  1.00 40.56     0.002 C 
ENDBRANCH   9  10
END_RES VAL A 134
BEGIN_RES TYR A 338
REMARK  3 active torsions:
REMARK  status: ('A' for Active; 'I' for Inactive)
REMARK    4  A    between atoms: CA   and  CB  
REMARK    5  A    between atoms: CB   and  CG  
REMARK    6  A    between atoms: CZ   and  OH  
ROOT
ATOM     13  CA  TYR A 338     -41.631 124.950   6.058  1.00 38.23     0.164 C 
ENDROOT
BRANCH  13  14
ATOM     14  CB  TYR A 338     -41.621 126.456   6.339  1.00 39.15     0.058 C 
BRANCH  14  15
ATOM     15  CG  TYR A 338     -40.391 127.202   5.875  1.00 39.03    -0.020 A 
ATOM     16  CD2 TYR A 338     -40.226 128.542   6.183  1.00 40.65    -0.002 A 
ATOM     17  CE2 TYR A 338     -39.118 129.260   5.761  1.00 40.91     0.024 A 
ATOM     18  CZ  TYR A 338     -38.141 128.636   5.009  1.00 42.33     0.089 A 
ATOM     19  CE1 TYR A 338     -38.281 127.296   4.693  1.00 40.63     0.024 A 
ATOM     20  CD1 TYR A 338     -39.402 126.599   5.113  1.00 39.27    -0.002 A 
BRANCH  18  21
ATOM     21  OH  TYR A 338     -37.042 129.334   4.591  1.00 43.36    -0.359 OA
ATOM     22  HH  TYR A 338     -36.209 129.230   5.036  1.00  0.00     0.217 HD
ENDBRANCH  18  21
ENDBRANCH  14  15
ENDBRANCH  13  14
END_RES TYR A 338
ENDMDL
