MODEL 1
REMARK VINA RESULT:   -11.707      0.000      0.000
REMARK INTER + INTRA:         -12.054
REMARK INTER:                 -11.707
REMARK INTRA:                  -0.347
REMARK UNBOUND:                -0.347
REMARK  0 active torsions:
REMARK  status: ('A' for Active; 'I' for Inactive)
REMARK       I    between atoms: C3_3  and  O3_21 
REMARK       I    between atoms: C6_6  and  C7_7 
REMARK       I    between atoms: C8_8  and  C9_9 
REMARK       I    between atoms: C10_10  and  C11_11 
REMARK       I    between atoms: C12_12  and  C13_13 
REMARK       I    between atoms: C14_14  and  C15_15 
REMARK       I    between atoms: C23_25  and  O23_43 
REMARK       I    between atoms: C26_28  and  C27_29 
REMARK       I    between atoms: C28_30  and  C29_31 
REMARK       I    between atoms: C30_32  and  C31_33 
REMARK       I    between atoms: C32_34  and  C33_35 
REMARK       I    between atoms: C34_36  and  C35_37 
ROOT
HETATM    1  C1  8UH 61620     -49.955 144.305  12.581  1.00 97.95    -0.018 C 
HETATM    2  C2  8UH 61620     -50.357 144.688  14.001  1.00 97.95     0.045 C 
HETATM    3  C3  8UH 61620     -49.641 145.868  14.634  1.00 97.95     0.123 C 
HETATM    4  C4  8UH 61620     -49.348 146.952  13.622  1.00 97.95     0.066 C 
HETATM    5  C5  8UH 61620     -48.548 146.363  12.499  1.00 97.95    -0.074 C 
HETATM    6  C6  8UH 61620     -48.847 145.160  11.995  1.00 97.95    -0.048 C 
HETATM    7  C7  8UH 61620     -48.097 144.622  10.835  1.00 97.95     0.009 C 
HETATM    8  C8  8UH 61620     -46.988 143.902  11.001  1.00 97.95     0.007 C 
HETATM    9  C9  8UH 61620     -46.236 143.345   9.875  1.00 97.95    -0.062 C 
HETATM   10  C10 8UH 61620     -45.199 142.570  10.178  1.00 97.95     0.007 C 
HETATM   11  C11 8UH 61620     -44.359 141.927   9.184  1.00 97.95     0.001 C 
HETATM   12  C12 8UH 61620     -43.377 141.206   9.695  1.00 97.95     0.007 C 
HETATM   13  C13 8UH 61620     -42.422 140.443   8.883  1.00 97.95    -0.062 C 
HETATM   14  C14 8UH 61620     -41.719 139.524   9.542  1.00 97.95     0.007 C 
HETATM   15  C15 8UH 61620     -40.760 138.646   8.901  1.00 97.95     0.001 C 
HETATM   16  C16 8UH 61620     -51.220 144.372  11.730  1.00 97.95     0.020 C 
HETATM   17  C17 8UH 61620     -49.456 142.866  12.603  1.00 97.95     0.020 C 
HETATM   18  C18 8UH 61620     -47.501 147.259  11.907  1.00 97.95     0.044 C 
HETATM   19  C19 8UH 61620     -46.625 143.634   8.458  1.00 97.95     0.048 C 
HETATM   20  C20 8UH 61620     -42.262 140.669   7.411  1.00 97.95     0.048 C 
HETATM   21  O3  8UH 61620     -50.478 146.429  15.652  1.00 97.95    -0.395 OA
ATOM     22  H3  8UH 61620     -50.030 147.167  16.049  1.00  0.00     0.210 HD
HETATM   23  C21 8UH 61620     -34.177 128.175   6.982  1.00 23.68    -0.018 C 
HETATM   24  C22 8UH 61620     -33.479 127.668   5.723  1.00 23.68     0.045 C 
HETATM   25  C23 8UH 61620     -32.191 128.350   5.278  1.00 23.68     0.123 C 
HETATM   26  C24 8UH 61620     -31.445 128.967   6.446  1.00 23.68     0.066 C 
HETATM   27  C25 8UH 61620     -32.386 129.879   7.183  1.00 23.68    -0.074 C 
HETATM   28  C26 8UH 61620     -33.582 129.439   7.581  1.00 23.68    -0.048 C 
HETATM   29  C27 8UH 61620     -34.339 130.152   8.645  1.00 23.68     0.009 C 
HETATM   30  C28 8UH 61620     -35.121 131.209   8.403  1.00 23.68     0.007 C 
HETATM   31  C29 8UH 61620     -35.872 131.903   9.458  1.00 97.95    -0.062 C 
HETATM   32  C30 8UH 61620     -36.617 132.921   9.042  1.00 97.95     0.007 C 
HETATM   33  C31 8UH 61620     -37.454 133.746   9.892  1.00 97.95     0.001 C 
HETATM   34  C32 8UH 61620     -38.072 134.697   9.215  1.00 97.95     0.007 C 
HETATM   35  C33 8UH 61620     -38.982 135.654   9.837  1.00 97.95    -0.062 C 
HETATM   36  C34 8UH 61620     -39.524 136.580   9.046  1.00 97.95     0.007 C 
HETATM   37  C35 8UH 61620     -40.452 137.556   9.587  1.00 97.95     0.001 C 
HETATM   38  C36 8UH 61620     -34.148 127.028   7.976  1.00 23.68     0.020 C 
HETATM   39  C37 8UH 61620     -35.625 128.482   6.631  1.00 23.68     0.020 C 
HETATM   40  C38 8UH 61620     -31.592 130.841   8.012  1.00 23.68     0.044 C 
HETATM   41  C39 8UH 61620     -35.812 131.483  10.895  1.00 97.95     0.048 C 
HETATM   42  C40 8UH 61620     -39.283 135.587  11.301  1.00 97.95     0.048 C 
HETATM   43  O23 8UH 61620     -31.355 127.372   4.656  1.00 23.68    -0.395 OA
ATOM     44  H23 8UH 61620     -30.552 127.797   4.379  1.00  0.00     0.210 HD
ENDROOT
TORSDOF 12
BEGIN_RES PHE A  61
REMARK  2 active torsions:
REMARK  status: ('A' for Active; 'I' for Inactive)
REMARK    1  A    between atoms: CA   and  CB  
REMARK    2  A    between atoms: CB   and  CG  
ROOT
ATOM      1  CA  PHE A  61     -36.237 128.293  12.768  1.00 39.40     0.164 C 
ENDROOT
BRANCH   1   2
ATOM      2  CB  PHE A  61     -36.813 128.951  11.509  1.00 39.41     0.058 C 
BRANCH   2   3
ATOM      3  CG  PHE A  61     -37.027 128.004  10.352  1.00 39.01    -0.020 A 
ATOM      4  CD2 PHE A  61     -36.279 126.844  10.235  1.00 40.32    -0.004 A 
ATOM      5  CE2 PHE A  61     -36.474 125.975   9.168  1.00 40.20    -0.000 A 
ATOM      6  CZ  PHE A  61     -37.422 126.255   8.211  1.00 40.34    -0.000 A 
ATOM      7  CE1 PHE A  61     -38.176 127.403   8.314  1.00 41.51    -0.000 A 
ATOM      8  CD1 PHE A  61     -37.976 128.275   9.377  1.00 39.94    -0.004 A 
ENDBRANCH   2   3
ENDBRANCH   1   2
END_RES PHE A  61
BEGIN_RES VAL A 134
REMARK  1 active torsions:
REMARK  status: ('A' for Active; 'I' for Inactive)
REMARK    3  A    between atoms: CA   and  CB  
ROOT
ATOM      9  CA  VAL A 134     -29.766 132.051   9.815  1.00 40.75     0.159 C 
ENDROOT
BRANCH   9  10
ATOM     10  CB  VAL A 134     -30.864 132.765   9.009  1.00 40.76     0.029 C 
ATOM     11  CG1 VAL A 134     -32.107 132.975   9.861  1.00 41.76     0.002 C 
ATOM     12  CG2 VAL A 134     -30.372 134.085   8.437  1.00 40.56     0.002 C 
ENDBRANCH   9  10
END_RES VAL A 134
BEGIN_RES TYR A 338
REMARK  3 active torsions:
REMARK  status: ('A' for Active; 'I' for Inactive)
REMARK    4  A    between atoms: CA   and  CB  
REMARK    5  A    between atoms: CB   and  CG  
REMARK    6  A    between atoms: CZ   and  OH  
ROOT
ATOM     13  CA  TYR A 338     -41.631 124.950   6.058  1.00 38.23     0.164 C 
ENDROOT
BRANCH  13  14
ATOM     14  CB  TYR A 338     -41.621 126.456   6.339  1.00 39.15     0.058 C 
BRANCH  14  15
ATOM     15  CG  TYR A 338     -40.419 127.212   5.821  1.00 39.03    -0.020 A 
ATOM     16  CD2 TYR A 338     -40.262 128.558   6.105  1.00 40.65    -0.002 A 
ATOM     17  CE2 TYR A 338     -39.181 129.286   5.634  1.00 40.91     0.024 A 
ATOM     18  CZ  TYR A 338     -38.223 128.665   4.853  1.00 42.33     0.089 A 
ATOM     19  CE1 TYR A 338     -38.356 127.320   4.559  1.00 40.63     0.024 A 
ATOM     20  CD1 TYR A 338     -39.452 126.612   5.030  1.00 39.27    -0.002 A 
BRANCH  18  21
ATOM     21  OH  TYR A 338     -37.151 129.373   4.386  1.00 43.36    -0.359 OA
ATOM     22  HH  TYR A 338     -37.265 130.025   3.705  1.00  0.00     0.217 HD
ENDBRANCH  18  21
ENDBRANCH  14  15
ENDBRANCH  13  14
END_RES TYR A 338
ENDMDL
MODEL 2
REMARK VINA RESULT:   -11.557      1.502     16.499
REMARK INTER + INTRA:         -11.904
REMARK INTER:                  -9.149
REMARK INTRA:                  -2.755
REMARK UNBOUND:                -0.347
REMARK  0 active torsions:
REMARK  status: ('A' for Active; 'I' for Inactive)
REMARK       I    between atoms: C3_3  and  O3_21 
REMARK       I    between atoms: C6_6  and  C7_7 
REMARK       I    between atoms: C8_8  and  C9_9 
REMARK       I    between atoms: C10_10  and  C11_11 
REMARK       I    between atoms: C12_12  and  C13_13 
REMARK       I    between atoms: C14_14  and  C15_15 
REMARK       I    between atoms: C23_25  and  O23_43 
REMARK       I    between atoms: C26_28  and  C27_29 
REMARK       I    between atoms: C28_30  and  C29_31 
REMARK       I    between atoms: C30_32  and  C31_33 
REMARK       I    between atoms: C32_34  and  C33_35 
REMARK       I    between atoms: C34_36  and  C35_37 
ROOT
HETATM    1  C1  8UH 61620     -34.484 128.104   6.531  1.00 97.95    -0.018 C 
HETATM    2  C2  8UH 61620     -33.681 127.831   5.264  1.00 97.95     0.045 C 
HETATM    3  C3  8UH 61620     -32.297 128.449   5.167  1.00 97.95     0.123 C 
HETATM    4  C4  8UH 61620     -31.597 128.462   6.508  1.00 97.95     0.066 C 
HETATM    5  C5  8UH 61620     -32.457 129.192   7.496  1.00 97.95    -0.074 C 
HETATM    6  C6  8UH 61620     -33.781 129.003   7.531  1.00 97.95    -0.048 C 
HETATM    7  C7  8UH 61620     -34.610 129.672   8.562  1.00 97.95     0.009 C 
HETATM    8  C8  8UH 61620     -35.130 130.881   8.356  1.00 97.95     0.007 C 
HETATM    9  C9  8UH 61620     -35.965 131.559   9.350  1.00 97.95    -0.062 C 
HETATM   10  C10 8UH 61620     -36.495 132.723   8.986  1.00 97.95     0.007 C 
HETATM   11  C11 8UH 61620     -37.358 133.514   9.843  1.00 97.95     0.001 C 
HETATM   12  C12 8UH 61620     -37.773 134.642   9.294  1.00 97.95     0.007 C 
HETATM   13  C13 8UH 61620     -38.676 135.586   9.961  1.00 97.95    -0.062 C 
HETATM   14  C14 8UH 61620     -39.252 136.485   9.165  1.00 97.95     0.007 C 
HETATM   15  C15 8UH 61620     -40.206 137.471   9.637  1.00 97.95     0.001 C 
HETATM   16  C16 8UH 61620     -34.822 126.747   7.141  1.00 97.95     0.020 C 
HETATM   17  C17 8UH 61620     -35.779 128.796   6.128  1.00 97.95     0.020 C 
HETATM   18  C18 8UH 61620     -31.724 130.024   8.506  1.00 97.95     0.044 C 
HETATM   19  C19 8UH 61620     -36.208 130.962  10.702  1.00 97.95     0.048 C 
HETATM   20  C20 8UH 61620     -38.948 135.532  11.434  1.00 97.95     0.048 C 
HETATM   21  O3  8UH 61620     -31.502 127.674   4.262  1.00 97.95    -0.395 OA
ATOM     22  H3  8UH 61620     -30.637 128.061   4.202  1.00  0.00     0.210 HD
HETATM   23  C21 8UH 61620     -50.073 145.153   9.131  1.00 23.68    -0.018 C 
HETATM   24  C22 8UH 61620     -50.911 145.755  10.256  1.00 23.68     0.045 C 
HETATM   25  C23 8UH 61620     -50.307 146.871  11.099  1.00 23.68     0.123 C 
HETATM   26  C24 8UH 61620     -49.268 147.662  10.328  1.00 23.68     0.066 C 
HETATM   27  C25 8UH 61620     -48.249 146.703   9.780  1.00 23.68    -0.074 C 
HETATM   28  C26 8UH 61620     -48.633 145.637   9.075  1.00 23.68    -0.048 C 
HETATM   29  C27 8UH 61620     -47.673 144.925   8.188  1.00 23.68     0.009 C 
HETATM   30  C28 8UH 61620     -46.835 143.981   8.626  1.00 23.68     0.007 C 
HETATM   31  C29 8UH 61620     -45.896 143.276   7.743  1.00 97.95    -0.062 C 
HETATM   32  C30 8UH 61620     -45.149 142.352   8.338  1.00 97.95     0.007 C 
HETATM   33  C31 8UH 61620     -44.165 141.520   7.674  1.00 97.95     0.001 C 
HETATM   34  C32 8UH 61620     -43.557 140.698   8.511  1.00 97.95     0.007 C 
HETATM   35  C33 8UH 61620     -42.532 139.747   8.090  1.00 97.95    -0.062 C 
HETATM   36  C34 8UH 61620     -41.981 138.989   9.038  1.00 97.95     0.007 C 
HETATM   37  C35 8UH 61620     -40.967 138.009   8.697  1.00 97.95     0.001 C 
HETATM   38  C36 8UH 61620     -50.810 145.463   7.839  1.00 23.68     0.020 C 
HETATM   39  C37 8UH 61620     -50.035 143.645   9.323  1.00 23.68     0.020 C 
HETATM   40  C38 8UH 61620     -46.995 147.452   9.445  1.00 23.68     0.044 C 
HETATM   41  C39 8UH 61620     -45.798 143.570   6.277  1.00 97.95     0.048 C 
HETATM   42  C40 8UH 61620     -42.128 139.641   6.654  1.00 97.95     0.048 C 
HETATM   43  O23 8UH 61620     -51.359 147.752  11.500  1.00 23.68    -0.395 OA
ATOM     44  H23 8UH 61620     -50.982 148.448  12.026  1.00  0.00     0.210 HD
ENDROOT
TORSDOF 12
BEGIN_RES PHE A  61
REMARK  2 active torsions:
REMARK  status: ('A' for Active; 'I' for Inactive)
REMARK    1  A    between atoms: CA   and  CB  
REMARK    2  A    between atoms: CB   and  CG  
ROOT
ATOM      1  CA  PHE A  61     -36.237 128.293  12.768  1.00 39.40     0.164 C 
ENDROOT
BRANCH   1   2
ATOM      2  CB  PHE A  61     -36.813 128.951  11.509  1.00 39.41     0.058 C 
BRANCH   2   3
ATOM      3  CG  PHE A  61     -37.024 128.005  10.351  1.00 39.01    -0.020 A 
ATOM      4  CD2 PHE A  61     -36.272 126.847  10.232  1.00 40.32    -0.004 A 
ATOM      5  CE2 PHE A  61     -36.465 125.979   9.165  1.00 40.20    -0.000 A 
ATOM      6  CZ  PHE A  61     -37.414 126.257   8.208  1.00 40.34    -0.000 A 
ATOM      7  CE1 PHE A  61     -38.171 127.402   8.312  1.00 41.51    -0.000 A 
ATOM      8  CD1 PHE A  61     -37.974 128.274   9.376  1.00 39.94    -0.004 A 
ENDBRANCH   2   3
ENDBRANCH   1   2
END_RES PHE A  61
BEGIN_RES VAL A 134
REMARK  1 active torsions:
REMARK  status: ('A' for Active; 'I' for Inactive)
REMARK    3  A    between atoms: CA   and  CB  
ROOT
ATOM      9  CA  VAL A 134     -29.766 132.051   9.815  1.00 40.75     0.159 C 
ENDROOT
BRANCH   9  10
ATOM     10  CB  VAL A 134     -30.864 132.765   9.009  1.00 40.76     0.029 C 
ATOM     11  CG1 VAL A 134     -30.875 132.279   7.567  1.00 41.76     0.002 C 
ATOM     12  CG2 VAL A 134     -32.233 132.590   9.648  1.00 40.56     0.002 C 
ENDBRANCH   9  10
END_RES VAL A 134
BEGIN_RES TYR A 338
REMARK  3 active torsions:
REMARK  status: ('A' for Active; 'I' for Inactive)
REMARK    4  A    between atoms: CA   and  CB  
REMARK    5  A    between atoms: CB   and  CG  
REMARK    6  A    between atoms: CZ   and  OH  
ROOT
ATOM     13  CA  TYR A 338     -41.631 124.950   6.058  1.00 38.23     0.164 C 
ENDROOT
BRANCH  13  14
ATOM     14  CB  TYR A 338     -41.621 126.456   6.339  1.00 39.15     0.058 C 
BRANCH  14  15
ATOM     15  CG  TYR A 338     -40.436 127.218   5.791  1.00 39.03    -0.020 A 
ATOM     16  CD2 TYR A 338     -40.292 128.570   6.051  1.00 40.65    -0.002 A 
ATOM     17  CE2 TYR A 338     -39.226 129.303   5.552  1.00 40.91     0.024 A 
ATOM     18  CZ  TYR A 338     -38.272 128.681   4.769  1.00 42.33     0.089 A 
ATOM     19  CE1 TYR A 338     -38.391 127.329   4.500  1.00 40.63     0.024 A 
ATOM     20  CD1 TYR A 338     -39.472 126.616   4.998  1.00 39.27    -0.002 A 
BRANCH  18  21
ATOM     21  OH  TYR A 338     -37.214 129.393   4.276  1.00 43.36    -0.359 OA
ATOM     22  HH  TYR A 338     -36.378 128.968   4.123  1.00  0.00     0.217 HD
ENDBRANCH  18  21
ENDBRANCH  14  15
ENDBRANCH  13  14
END_RES TYR A 338
ENDMDL
MODEL 3
REMARK VINA RESULT:    -8.886      1.801      2.382
REMARK INTER + INTRA:          -9.233
REMARK INTER:                  -5.427
REMARK INTRA:                  -3.806
REMARK UNBOUND:                -0.347
REMARK  0 active torsions:
REMARK  status: ('A' for Active; 'I' for Inactive)
REMARK       I    between atoms: C3_3  and  O3_21 
REMARK       I    between atoms: C6_6  and  C7_7 
REMARK       I    between atoms: C8_8  and  C9_9 
REMARK       I    between atoms: C10_10  and  C11_11 
REMARK       I    between atoms: C12_12  and  C13_13 
REMARK       I    between atoms: C14_14  and  C15_15 
REMARK       I    between atoms: C23_25  and  O23_43 
REMARK       I    between atoms: C26_28  and  C27_29 
REMARK       I    between atoms: C28_30  and  C29_31 
REMARK       I    between atoms: C30_32  and  C31_33 
REMARK       I    between atoms: C32_34  and  C33_35 
REMARK       I    between atoms: C34_36  and  C35_37 
ROOT
HETATM    1  C1  8UH 61620     -50.652 141.470  14.024  1.00 97.95    -0.018 C 
HETATM    2  C2  8UH 61620     -50.686 142.092  15.416  1.00 97.95     0.045 C 
HETATM    3  C3  8UH 61620     -50.074 143.472  15.579  1.00 97.95     0.123 C 
HETATM    4  C4  8UH 61620     -50.323 144.339  14.366  1.00 97.95     0.066 C 
HETATM    5  C5  8UH 61620     -49.787 143.641  13.152  1.00 97.95    -0.074 C 
HETATM    6  C6  8UH 61620     -49.967 142.327  12.976  1.00 97.95    -0.048 C 
HETATM    7  C7  8UH 61620     -49.498 141.662  11.737  1.00 97.95     0.009 C 
HETATM    8  C8  8UH 61620     -48.267 141.163  11.641  1.00 97.95     0.007 C 
HETATM    9  C9  8UH 61620     -47.783 140.487  10.435  1.00 97.95    -0.062 C 
HETATM   10  C10 8UH 61620     -46.566 139.955  10.500  1.00 97.95     0.007 C 
HETATM   11  C11 8UH 61620     -45.944 139.238   9.402  1.00 97.95     0.001 C 
HETATM   12  C12 8UH 61620     -44.728 138.795   9.670  1.00 97.95     0.007 C 
HETATM   13  C13 8UH 61620     -43.921 138.019   8.722  1.00 97.95    -0.062 C 
HETATM   14  C14 8UH 61620     -42.881 137.377   9.251  1.00 97.95     0.007 C 
HETATM   15  C15 8UH 61620     -41.994 136.527   8.480  1.00 97.95     0.001 C 
HETATM   16  C16 8UH 61620     -52.097 141.166  13.640  1.00 97.95     0.020 C 
HETATM   17  C17 8UH 61620     -49.883 140.158  14.113  1.00 97.95     0.020 C 
HETATM   18  C18 8UH 61620     -49.169 144.527  12.111  1.00 97.95     0.044 C 
HETATM   19  C19 8UH 61620     -48.624 140.401   9.199  1.00 97.95     0.048 C 
HETATM   20  C20 8UH 61620     -44.252 137.938   7.263  1.00 97.95     0.048 C 
HETATM   21  O3  8UH 61620     -50.670 144.115  16.712  1.00 97.95    -0.395 OA
ATOM     22  H3  8UH 61620     -50.287 144.979  16.813  1.00  0.00     0.210 HD
HETATM   23  C21 8UH 61620     -34.263 126.949   6.211  1.00 23.68    -0.018 C 
HETATM   24  C22 8UH 61620     -33.879 126.285   4.891  1.00 23.68     0.045 C 
HETATM   25  C23 8UH 61620     -32.949 127.032   3.943  1.00 23.68     0.123 C 
HETATM   26  C24 8UH 61620     -32.036 127.990   4.683  1.00 23.68     0.066 C 
HETATM   27  C25 8UH 61620     -32.883 128.895   5.533  1.00 23.68    -0.074 C 
HETATM   28  C26 8UH 61620     -33.791 128.386   6.368  1.00 23.68    -0.048 C 
HETATM   29  C27 8UH 61620     -34.331 129.197   7.493  1.00 23.68     0.009 C 
HETATM   30  C28 8UH 61620     -35.349 130.052   7.356  1.00 23.68     0.007 C 
HETATM   31  C29 8UH 61620     -35.881 130.844   8.472  1.00 97.95    -0.062 C 
HETATM   32  C30 8UH 61620     -36.908 131.629   8.167  1.00 97.95     0.007 C 
HETATM   33  C31 8UH 61620     -37.608 132.490   9.101  1.00 97.95     0.001 C 
HETATM   34  C32 8UH 61620     -38.581 133.171   8.521  1.00 97.95     0.007 C 
HETATM   35  C33 8UH 61620     -39.443 134.100   9.246  1.00 97.95    -0.062 C 
HETATM   36  C34 8UH 61620     -40.373 134.743   8.540  1.00 97.95     0.007 C 
HETATM   37  C35 8UH 61620     -41.280 135.669   9.192  1.00 97.95     0.001 C 
HETATM   38  C36 8UH 61620     -33.706 126.063   7.311  1.00 23.68     0.020 C 
HETATM   39  C37 8UH 61620     -35.781 126.960   6.313  1.00 23.68     0.020 C 
HETATM   40  C38 8UH 61620     -32.096 130.120   5.887  1.00 23.68     0.044 C 
HETATM   41  C39 8UH 61620     -35.315 130.761   9.857  1.00 97.95     0.048 C 
HETATM   42  C40 8UH 61620     -39.278 134.311  10.718  1.00 97.95     0.048 C 
HETATM   43  O23 8UH 61620     -32.152 126.073   3.246  1.00 23.68    -0.395 OA
ATOM     44  H23 8UH 61620     -31.572 126.538   2.655  1.00  0.00     0.210 HD
ENDROOT
TORSDOF 12
BEGIN_RES PHE A  61
REMARK  2 active torsions:
REMARK  status: ('A' for Active; 'I' for Inactive)
REMARK    1  A    between atoms: CA   and  CB  
REMARK    2  A    between atoms: CB   and  CG  
ROOT
ATOM      1  CA  PHE A  61     -36.237 128.293  12.768  1.00 39.40     0.164 C 
ENDROOT
BRANCH   1   2
ATOM      2  CB  PHE A  61     -36.813 128.951  11.509  1.00 39.41     0.058 C 
BRANCH   2   3
ATOM      3  CG  PHE A  61     -36.991 128.012  10.340  1.00 39.01    -0.020 A 
ATOM      4  CD2 PHE A  61     -38.059 128.156   9.468  1.00 40.32    -0.004 A 
ATOM      5  CE2 PHE A  61     -38.223 127.289   8.395  1.00 40.20    -0.000 A 
ATOM      6  CZ  PHE A  61     -37.322 126.272   8.179  1.00 40.34    -0.000 A 
ATOM      7  CE1 PHE A  61     -36.254 126.117   9.036  1.00 41.51    -0.000 A 
ATOM      8  CD1 PHE A  61     -36.093 126.979  10.113  1.00 39.94    -0.004 A 
ENDBRANCH   2   3
ENDBRANCH   1   2
END_RES PHE A  61
BEGIN_RES VAL A 134
REMARK  1 active torsions:
REMARK  status: ('A' for Active; 'I' for Inactive)
REMARK    3  A    between atoms: CA   and  CB  
ROOT
ATOM      9  CA  VAL A 134     -29.766 132.051   9.815  1.00 40.75     0.159 C 
ENDROOT
BRANCH   9  10
ATOM     10  CB  VAL A 134     -30.864 132.765   9.009  1.00 40.76     0.029 C 
ATOM     11  CG1 VAL A 134     -30.956 132.194   7.601  1.00 41.76     0.002 C 
ATOM     12  CG2 VAL A 134     -32.212 132.693   9.710  1.00 40.56     0.002 C 
ENDBRANCH   9  10
END_RES VAL A 134
BEGIN_RES TYR A 338
REMARK  3 active torsions:
REMARK  status: ('A' for Active; 'I' for Inactive)
REMARK    4  A    between atoms: CA   and  CB  
REMARK    5  A    between atoms: CB   and  CG  
REMARK    6  A    between atoms: CZ   and  OH  
ROOT
ATOM     13  CA  TYR A 338     -41.631 124.950   6.058  1.00 38.23     0.164 C 
ENDROOT
BRANCH  13  14
ATOM     14  CB  TYR A 338     -41.621 126.456   6.339  1.00 39.15     0.058 C 
BRANCH  14  15
ATOM     15  CG  TYR A 338     -40.406 127.208   5.845  1.00 39.03    -0.020 A 
ATOM     16  CD2 TYR A 338     -39.489 126.588   5.014  1.00 40.65    -0.002 A 
ATOM     17  CE2 TYR A 338     -38.356 127.242   4.554  1.00 40.91     0.024 A 
ATOM     18  CZ  TYR A 338     -38.120 128.551   4.929  1.00 42.33     0.089 A 
ATOM     19  CE1 TYR A 338     -39.025 129.194   5.755  1.00 40.63     0.024 A 
ATOM     20  CD1 TYR A 338     -40.145 128.518   6.214  1.00 39.27    -0.002 A 
BRANCH  18  21
ATOM     21  OH  TYR A 338     -37.009 129.207   4.478  1.00 43.36    -0.359 OA
ATOM     22  HH  TYR A 338     -37.046 129.725   3.683  1.00  0.00     0.217 HD
ENDBRANCH  18  21
ENDBRANCH  14  15
ENDBRANCH  13  14
END_RES TYR A 338
ENDMDL
