MODEL 1
REMARK VINA RESULT:   -11.201      0.000      0.000
REMARK INTER + INTRA:         -13.816
REMARK INTER:                 -11.201
REMARK INTRA:                  -2.615
REMARK UNBOUND:                -2.615
REMARK  0 active torsions:
REMARK  status: ('A' for Active; 'I' for Inactive)
REMARK       I    between atoms: C3_3  and  O3_21 
REMARK       I    between atoms: C6_6  and  C7_7 
REMARK       I    between atoms: C8_8  and  C9_9 
REMARK       I    between atoms: C10_10  and  C11_11 
REMARK       I    between atoms: C12_12  and  C13_13 
REMARK       I    between atoms: C14_14  and  C15_15 
REMARK       I    between atoms: C23_25  and  O23_43 
REMARK       I    between atoms: C26_28  and  C27_29 
REMARK       I    between atoms: C28_30  and  C29_31 
REMARK       I    between atoms: C30_32  and  C31_33 
REMARK       I    between atoms: C32_34  and  C33_35 
REMARK       I    between atoms: C34_36  and  C35_37 
ROOT
HETATM    1  C1  8UH y1620     -34.274 127.297   6.647  1.00 33.20    -0.018 C 
HETATM    2  C2  8UH y1620     -33.848 126.981   5.220  1.00 33.20     0.045 C 
HETATM    3  C3  8UH y1620     -32.638 127.722   4.678  1.00 33.20     0.123 C 
HETATM    4  C4  8UH y1620     -31.617 127.955   5.751  1.00 33.20     0.066 C 
HETATM    5  C5  8UH y1620     -32.233 128.705   6.881  1.00 33.20    -0.074 C 
HETATM    6  C6  8UH y1620     -33.455 128.393   7.305  1.00 33.20    -0.048 C 
HETATM    7  C7  8UH y1620     -34.025 129.125   8.450  1.00 33.20     0.009 C 
HETATM    8  C8  8UH y1620     -34.782 130.189   8.235  1.00 33.20     0.007 C 
HETATM    9  C9  8UH y1620     -35.391 130.963   9.309  1.00 33.20    -0.062 C 
HETATM   10  C10 8UH y1620     -35.937 132.107   8.916  1.00 33.20     0.007 C 
HETATM   11  C11 8UH y1620     -36.626 133.043   9.771  1.00 33.20     0.001 C 
HETATM   12  C12 8UH y1620     -37.359 133.882   9.070  1.00 33.20     0.007 C 
HETATM   13  C13 8UH y1620     -38.196 134.892   9.693  1.00 33.20    -0.062 C 
HETATM   14  C14 8UH y1620     -38.948 135.628   8.887  1.00 33.20     0.007 C 
HETATM   15  C15 8UH y1620     -39.860 136.609   9.431  1.00 33.20     0.001 C 
HETATM   16  C16 8UH y1620     -34.228 125.982   7.419  1.00 33.20     0.020 C 
HETATM   17  C17 8UH y1620     -35.717 127.766   6.588  1.00 33.20     0.020 C 
HETATM   18  C18 8UH y1620     -31.367 129.747   7.519  1.00 33.20     0.044 C 
HETATM   19  C19 8UH y1620     -35.375 130.486  10.725  1.00 33.20     0.048 C 
HETATM   20  C20 8UH y1620     -38.227 135.049  11.175  1.00 33.20     0.048 C 
HETATM   21  O3  8UH y1620     -32.008 126.924   3.677  1.00 33.20    -0.395 OA
ATOM     22  H3  8UH y1620     -32.655 126.776   2.997  1.00  0.00     0.210 HD
HETATM   23  C21 8UH y1620     -49.892 144.115   9.865  1.00 37.79    -0.018 C 
HETATM   24  C22 8UH y1620     -50.860 144.919  10.717  1.00 37.79     0.045 C 
HETATM   25  C23 8UH y1620     -50.252 145.707  11.854  1.00 37.79     0.123 C 
HETATM   26  C24 8UH y1620     -49.095 146.519  11.335  1.00 37.79     0.066 C 
HETATM   27  C25 8UH y1620     -48.100 145.686  10.584  1.00 37.79    -0.074 C 
HETATM   28  C26 8UH y1620     -48.466 144.628   9.846  1.00 37.79    -0.048 C 
HETATM   29  C27 8UH y1620     -47.499 143.946   8.943  1.00 37.79     0.009 C 
HETATM   30  C28 8UH y1620     -46.624 143.025   9.360  1.00 37.79     0.007 C 
HETATM   31  C29 8UH y1620     -45.702 142.369   8.447  1.00 33.20    -0.062 C 
HETATM   32  C30 8UH y1620     -45.101 141.283   8.910  1.00 33.20     0.007 C 
HETATM   33  C31 8UH y1620     -44.163 140.499   8.140  1.00 33.20     0.001 C 
HETATM   34  C32 8UH y1620     -43.388 139.732   8.875  1.00 33.20     0.007 C 
HETATM   35  C33 8UH y1620     -42.402 138.848   8.270  1.00 33.20    -0.062 C 
HETATM   36  C34 8UH y1620     -41.668 138.113   9.096  1.00 33.20     0.007 C 
HETATM   37  C35 8UH y1620     -40.700 137.169   8.586  1.00 33.20     0.001 C 
HETATM   38  C36 8UH y1620     -50.516 144.043   8.479  1.00 37.79     0.020 C 
HETATM   39  C37 8UH y1620     -49.820 142.712  10.419  1.00 37.79     0.020 C 
HETATM   40  C38 8UH y1620     -46.757 146.336  10.472  1.00 37.79     0.044 C 
HETATM   41  C39 8UH y1620     -45.437 142.898   7.072  1.00 33.20     0.048 C 
HETATM   42  C40 8UH y1620     -42.258 138.760   6.787  1.00 33.20     0.048 C 
HETATM   43  O23 8UH y1620     -51.230 146.631  12.329  1.00 37.79    -0.395 OA
ATOM     44  H23 8UH y1620     -50.847 147.126  13.044  1.00  0.00     0.210 HD
ENDROOT
TORSDOF 12
BEGIN_RES PHE A  61
REMARK  2 active torsions:
REMARK  status: ('A' for Active; 'I' for Inactive)
REMARK    1  A    between atoms: CA   and  CB  
REMARK    2  A    between atoms: CB   and  CG  
ROOT
ATOM      1  CA  PHE A  61     -36.237 128.293  12.768  1.00 39.40     0.164 C 
ENDROOT
BRANCH   1   2
ATOM      2  CB  PHE A  61     -36.813 128.951  11.509  1.00 39.41     0.058 C 
BRANCH   2   3
ATOM      3  CG  PHE A  61     -37.071 127.996  10.368  1.00 39.01    -0.020 A 
ATOM      4  CD2 PHE A  61     -36.338 126.827  10.239  1.00 40.32    -0.004 A 
ATOM      5  CE2 PHE A  61     -36.574 125.951   9.187  1.00 40.20    -0.000 A 
ATOM      6  CZ  PHE A  61     -37.548 126.231   8.256  1.00 40.34    -0.000 A 
ATOM      7  CE1 PHE A  61     -38.287 127.388   8.371  1.00 41.51    -0.000 A 
ATOM      8  CD1 PHE A  61     -38.046 128.267   9.419  1.00 39.94    -0.004 A 
ENDBRANCH   2   3
ENDBRANCH   1   2
END_RES PHE A  61
BEGIN_RES VAL A 134
REMARK  1 active torsions:
REMARK  status: ('A' for Active; 'I' for Inactive)
REMARK    3  A    between atoms: CA   and  CB  
ROOT
ATOM      9  CA  VAL A 134     -29.766 132.051   9.815  1.00 40.75     0.159 C 
ENDROOT
BRANCH   9  10
ATOM     10  CB  VAL A 134     -30.864 132.765   9.009  1.00 40.76     0.029 C 
ATOM     11  CG1 VAL A 134     -30.881 132.273   7.569  1.00 41.76     0.002 C 
ATOM     12  CG2 VAL A 134     -32.232 132.598   9.653  1.00 40.56     0.002 C 
ENDBRANCH   9  10
END_RES VAL A 134
BEGIN_RES TYR A 338
REMARK  3 active torsions:
REMARK  status: ('A' for Active; 'I' for Inactive)
REMARK    4  A    between atoms: CA   and  CB  
REMARK    5  A    between atoms: CB   and  CG  
REMARK    6  A    between atoms: CZ   and  OH  
ROOT
ATOM     13  CA  TYR A 338     -41.631 124.950   6.058  1.00 38.23     0.164 C 
ENDROOT
BRANCH  13  14
ATOM     14  CB  TYR A 338     -41.621 126.456   6.339  1.00 39.15     0.058 C 
BRANCH  14  15
ATOM     15  CG  TYR A 338     -40.416 127.211   5.828  1.00 39.03    -0.020 A 
ATOM     16  CD2 TYR A 338     -40.255 128.555   6.118  1.00 40.65    -0.002 A 
ATOM     17  CE2 TYR A 338     -39.171 129.282   5.653  1.00 40.91     0.024 A 
ATOM     18  CZ  TYR A 338     -38.212 128.662   4.873  1.00 42.33     0.089 A 
ATOM     19  CE1 TYR A 338     -38.348 127.318   4.574  1.00 40.63     0.024 A 
ATOM     20  CD1 TYR A 338     -39.447 126.612   5.038  1.00 39.27    -0.002 A 
BRANCH  18  21
ATOM     21  OH  TYR A 338     -37.136 129.368   4.413  1.00 43.36    -0.359 OA
ATOM     22  HH  TYR A 338     -37.104 130.312   4.510  1.00  0.00     0.217 HD
ENDBRANCH  18  21
ENDBRANCH  14  15
ENDBRANCH  13  14
END_RES TYR A 338
ENDMDL
