MODEL 1
REMARK VINA RESULT:   -10.133      0.000      0.000
REMARK INTER + INTRA:         -13.150
REMARK INTER:                 -10.133
REMARK INTRA:                  -3.017
REMARK UNBOUND:                -3.017
REMARK  0 active torsions:
REMARK  status: ('A' for Active; 'I' for Inactive)
REMARK       I    between atoms: C3_3  and  O3_21 
REMARK       I    between atoms: C6_6  and  C7_7 
REMARK       I    between atoms: C8_8  and  C9_9 
REMARK       I    between atoms: C10_10  and  C11_11 
REMARK       I    between atoms: C12_12  and  C13_13 
REMARK       I    between atoms: C14_14  and  C15_15 
REMARK       I    between atoms: C23_25  and  O23_43 
REMARK       I    between atoms: C26_28  and  C27_29 
REMARK       I    between atoms: C28_30  and  C29_31 
REMARK       I    between atoms: C30_32  and  C31_33 
REMARK       I    between atoms: C32_34  and  C33_35 
REMARK       I    between atoms: C34_36  and  C35_37 
ROOT
HETATM    1  C1  8UH Y1621     -48.416 144.864  11.441  1.00 30.42    -0.018 C 
HETATM    2  C2  8UH Y1621     -49.155 144.806  12.782  1.00 30.42     0.045 C 
HETATM    3  C3  8UH Y1621     -48.505 145.516  13.963  1.00 30.42     0.123 C 
HETATM    4  C4  8UH Y1621     -47.468 146.534  13.509  1.00 30.42     0.066 C 
HETATM    5  C5  8UH Y1621     -46.494 145.798  12.639  1.00 30.42    -0.074 C 
HETATM    6  C6  8UH Y1621     -46.941 145.199  11.538  1.00 30.42    -0.048 C 
HETATM    7  C7  8UH Y1621     -46.038 144.673  10.493  1.00 30.42     0.009 C 
HETATM    8  C8  8UH Y1621     -44.838 144.204  10.847  1.00 30.42     0.007 C 
HETATM    9  C9  8UH Y1621     -44.043 143.466   9.838  1.00 30.42    -0.062 C 
HETATM   10  C10 8UH Y1621     -43.144 142.577  10.304  1.00 30.42     0.007 C 
HETATM   11  C11 8UH Y1621     -42.405 141.655   9.442  1.00 30.42     0.001 C 
HETATM   12  C12 8UH Y1621     -41.748 140.635   9.992  1.00 30.42     0.007 C 
HETATM   13  C13 8UH Y1621     -41.061 139.622   9.161  1.00 30.42    -0.062 C 
HETATM   14  C14 8UH Y1621     -40.549 138.548   9.795  1.00 30.42     0.007 C 
HETATM   15  C15 8UH Y1621     -39.861 137.444   9.119  1.00 30.42     0.001 C 
HETATM   16  C16 8UH Y1621     -49.020 145.976  10.586  1.00 30.42     0.020 C 
HETATM   17  C17 8UH Y1621     -48.634 143.542  10.725  1.00 30.42     0.020 C 
HETATM   18  C18 8UH Y1621     -45.274 146.677  12.631  1.00 30.42     0.044 C 
HETATM   19  C19 8UH Y1621     -44.329 143.658   8.365  1.00 30.42     0.048 C 
HETATM   20  C20 8UH Y1621     -40.997 139.825   7.668  1.00 30.42     0.048 C 
HETATM   21  O3  8UH Y1621     -49.557 146.173  14.665  1.00 30.42    -0.395 OA
ATOM     22  H3  8UH Y1621     -49.152 146.615  15.401  1.00  0.00     0.210 HD
HETATM   23  C21 8UH Y1621     -33.465 126.601   6.890  1.00 15.23    -0.018 C 
HETATM   24  C22 8UH Y1621     -33.929 126.099   5.536  1.00 15.23     0.045 C 
HETATM   25  C23 8UH Y1621     -34.028 127.160   4.472  1.00 15.23     0.123 C 
HETATM   26  C24 8UH Y1621     -32.768 127.973   4.519  1.00 15.23     0.066 C 
HETATM   27  C25 8UH Y1621     -32.643 128.665   5.840  1.00 15.23    -0.074 C 
HETATM   28  C26 8UH Y1621     -33.078 128.056   6.945  1.00 15.23    -0.048 C 
HETATM   29  C27 8UH Y1621     -33.481 128.811   8.136  1.00 15.23     0.009 C 
HETATM   30  C28 8UH Y1621     -34.404 129.734   7.851  1.00 15.23     0.007 C 
HETATM   31  C29 8UH Y1621     -35.110 130.477   8.913  1.00 30.42    -0.062 C 
HETATM   32  C30 8UH Y1621     -35.971 131.435   8.505  1.00 30.42     0.007 C 
HETATM   33  C31 8UH Y1621     -36.718 132.306   9.411  1.00 30.42     0.001 C 
HETATM   34  C32 8UH Y1621     -37.431 133.308   8.899  1.00 30.42     0.007 C 
HETATM   35  C33 8UH Y1621     -38.148 134.271   9.762  1.00 30.42    -0.062 C 
HETATM   36  C34 8UH Y1621     -38.705 135.336   9.145  1.00 30.42     0.007 C 
HETATM   37  C35 8UH Y1621     -39.406 136.421   9.835  1.00 30.42     0.001 C 
HETATM   38  C36 8UH Y1621     -32.186 125.851   7.207  1.00 15.23     0.020 C 
HETATM   39  C37 8UH Y1621     -34.548 126.287   7.906  1.00 15.23     0.020 C 
HETATM   40  C38 8UH Y1621     -32.335 130.130   5.743  1.00 15.23     0.044 C 
HETATM   41  C39 8UH Y1621     -34.844 130.130  10.356  1.00 30.42     0.048 C 
HETATM   42  C40 8UH Y1621     -38.173 134.055  11.253  1.00 30.42     0.048 C 
HETATM   43  O23 8UH Y1621     -34.073 126.538   3.192  1.00 15.23    -0.395 OA
ATOM     44  H23 8UH Y1621     -34.872 126.023   3.163  1.00  0.00     0.210 HD
ENDROOT
TORSDOF 12
BEGIN_RES PHE A  61
REMARK  2 active torsions:
REMARK  status: ('A' for Active; 'I' for Inactive)
REMARK    1  A    between atoms: CA   and  CB  
REMARK    2  A    between atoms: CB   and  CG  
ROOT
ATOM      1  CA  PHE A  61     -36.237 128.293  12.768  1.00 39.40     0.164 C 
ENDROOT
BRANCH   1   2
ATOM      2  CB  PHE A  61     -36.813 128.951  11.509  1.00 39.41     0.058 C 
BRANCH   2   3
ATOM      3  CG  PHE A  61     -37.041 128.001  10.357  1.00 39.01    -0.020 A 
ATOM      4  CD2 PHE A  61     -36.317 126.824  10.251  1.00 40.32    -0.004 A 
ATOM      5  CE2 PHE A  61     -36.525 125.953   9.189  1.00 40.20    -0.000 A 
ATOM      6  CZ  PHE A  61     -37.462 126.247   8.224  1.00 40.34    -0.000 A 
ATOM      7  CE1 PHE A  61     -38.191 127.412   8.316  1.00 41.51    -0.000 A 
ATOM      8  CD1 PHE A  61     -37.978 128.286   9.374  1.00 39.94    -0.004 A 
ENDBRANCH   2   3
ENDBRANCH   1   2
END_RES PHE A  61
BEGIN_RES VAL A 134
REMARK  1 active torsions:
REMARK  status: ('A' for Active; 'I' for Inactive)
REMARK    3  A    between atoms: CA   and  CB  
ROOT
ATOM      9  CA  VAL A 134     -29.766 132.051   9.815  1.00 40.75     0.159 C 
ENDROOT
BRANCH   9  10
ATOM     10  CB  VAL A 134     -30.864 132.765   9.009  1.00 40.76     0.029 C 
ATOM     11  CG1 VAL A 134     -30.901 132.251   7.577  1.00 41.76     0.002 C 
ATOM     12  CG2 VAL A 134     -32.227 132.623   9.669  1.00 40.56     0.002 C 
ENDBRANCH   9  10
END_RES VAL A 134
BEGIN_RES TYR A 338
REMARK  3 active torsions:
REMARK  status: ('A' for Active; 'I' for Inactive)
REMARK    4  A    between atoms: CA   and  CB  
REMARK    5  A    between atoms: CB   and  CG  
REMARK    6  A    between atoms: CZ   and  OH  
ROOT
ATOM     13  CA  TYR A 338     -41.631 124.950   6.058  1.00 38.23     0.164 C 
ENDROOT
BRANCH  13  14
ATOM     14  CB  TYR A 338     -41.621 126.456   6.339  1.00 39.15     0.058 C 
BRANCH  14  15
ATOM     15  CG  TYR A 338     -40.400 127.205   5.857  1.00 39.03    -0.020 A 
ATOM     16  CD2 TYR A 338     -39.416 126.551   5.136  1.00 40.65    -0.002 A 
ATOM     17  CE2 TYR A 338     -38.276 127.203   4.692  1.00 40.91     0.024 A 
ATOM     18  CZ  TYR A 338     -38.101 128.546   4.970  1.00 42.33     0.089 A 
ATOM     19  CE1 TYR A 338     -39.073 129.223   5.685  1.00 40.63     0.024 A 
ATOM     20  CD1 TYR A 338     -40.200 128.549   6.132  1.00 39.27    -0.002 A 
BRANCH  18  21
ATOM     21  OH  TYR A 338     -36.983 129.200   4.534  1.00 43.36    -0.359 OA
ATOM     22  HH  TYR A 338     -36.256 129.358   5.126  1.00  0.00     0.217 HD
ENDBRANCH  18  21
ENDBRANCH  14  15
ENDBRANCH  13  14
END_RES TYR A 338
ENDMDL
MODEL 2
REMARK VINA RESULT:    -9.555      1.668     16.473
REMARK INTER + INTRA:         -12.572
REMARK INTER:                 -12.441
REMARK INTRA:                  -0.131
REMARK UNBOUND:                -3.017
REMARK  0 active torsions:
REMARK  status: ('A' for Active; 'I' for Inactive)
REMARK       I    between atoms: C3_3  and  O3_21 
REMARK       I    between atoms: C6_6  and  C7_7 
REMARK       I    between atoms: C8_8  and  C9_9 
REMARK       I    between atoms: C10_10  and  C11_11 
REMARK       I    between atoms: C12_12  and  C13_13 
REMARK       I    between atoms: C14_14  and  C15_15 
REMARK       I    between atoms: C23_25  and  O23_43 
REMARK       I    between atoms: C26_28  and  C27_29 
REMARK       I    between atoms: C28_30  and  C29_31 
REMARK       I    between atoms: C30_32  and  C31_33 
REMARK       I    between atoms: C32_34  and  C33_35 
REMARK       I    between atoms: C34_36  and  C35_37 
ROOT
HETATM    1  C1  8UH Y1621     -34.188 127.968   6.930  1.00 30.42    -0.018 C 
HETATM    2  C2  8UH Y1621     -33.599 127.765   5.530  1.00 30.42     0.045 C 
HETATM    3  C3  8UH Y1621     -32.313 128.513   5.204  1.00 30.42     0.123 C 
HETATM    4  C4  8UH Y1621     -31.594 128.975   6.464  1.00 30.42     0.066 C 
HETATM    5  C5  8UH Y1621     -32.579 129.787   7.250  1.00 30.42    -0.074 C 
HETATM    6  C6  8UH Y1621     -33.710 129.212   7.651  1.00 30.42    -0.048 C 
HETATM    7  C7  8UH Y1621     -34.618 129.839   8.634  1.00 30.42     0.009 C 
HETATM    8  C8  8UH Y1621     -34.709 131.171   8.679  1.00 30.42     0.007 C 
HETATM    9  C9  8UH Y1621     -35.787 131.777   9.494  1.00 30.42    -0.062 C 
HETATM   10  C10 8UH Y1621     -36.202 133.008   9.133  1.00 30.42     0.007 C 
HETATM   11  C11 8UH Y1621     -37.363 133.670   9.727  1.00 30.42     0.001 C 
HETATM   12  C12 8UH Y1621     -37.868 134.751   9.138  1.00 30.42     0.007 C 
HETATM   13  C13 8UH Y1621     -39.094 135.406   9.644  1.00 30.42    -0.062 C 
HETATM   14  C14 8UH Y1621     -39.614 136.403   8.901  1.00 30.42     0.007 C 
HETATM   15  C15 8UH Y1621     -40.836 137.137   9.246  1.00 30.42     0.001 C 
HETATM   16  C16 8UH Y1621     -33.762 126.804   7.823  1.00 30.42     0.020 C 
HETATM   17  C17 8UH Y1621     -35.703 127.946   6.812  1.00 30.42     0.020 C 
HETATM   18  C18 8UH Y1621     -31.723 130.602   8.179  1.00 30.42     0.044 C 
HETATM   19  C19 8UH Y1621     -36.432 130.980  10.605  1.00 30.42     0.048 C 
HETATM   20  C20 8UH Y1621     -39.707 134.910  10.930  1.00 30.42     0.048 C 
HETATM   21  O3  8UH Y1621     -31.491 127.602   4.481  1.00 30.42    -0.395 OA
ATOM     22  H3  8UH Y1621     -30.689 128.068   4.278  1.00  0.00     0.210 HD
HETATM   23  C21 8UH Y1621     -50.530 145.468   9.033  1.00 15.23    -0.018 C 
HETATM   24  C22 8UH Y1621     -51.715 144.766   9.667  1.00 15.23     0.045 C 
HETATM   25  C23 8UH Y1621     -51.393 144.000  10.924  1.00 15.23     0.123 C 
HETATM   26  C24 8UH Y1621     -50.560 144.888  11.800  1.00 15.23     0.066 C 
HETATM   27  C25 8UH Y1621     -49.266 145.219  11.126  1.00 15.23    -0.074 C 
HETATM   28  C26 8UH Y1621     -49.237 145.382   9.800  1.00 15.23    -0.048 C 
HETATM   29  C27 8UH Y1621     -48.010 145.179   9.023  1.00 15.23     0.009 C 
HETATM   30  C28 8UH Y1621     -47.472 143.977   9.247  1.00 15.23     0.007 C 
HETATM   31  C29 8UH Y1621     -46.353 143.464   8.432  1.00 30.42    -0.062 C 
HETATM   32  C30 8UH Y1621     -45.846 142.266   8.793  1.00 30.42     0.007 C 
HETATM   33  C31 8UH Y1621     -44.706 141.627   8.139  1.00 30.42     0.001 C 
HETATM   34  C32 8UH Y1621     -44.201 140.513   8.667  1.00 30.42     0.007 C 
HETATM   35  C33 8UH Y1621     -43.003 139.858   8.101  1.00 30.42    -0.062 C 
HETATM   36  C34 8UH Y1621     -42.485 138.829   8.807  1.00 30.42     0.007 C 
HETATM   37  C35 8UH Y1621     -41.275 138.094   8.436  1.00 30.42     0.001 C 
HETATM   38  C36 8UH Y1621     -50.870 146.946   9.018  1.00 15.23     0.020 C 
HETATM   39  C37 8UH Y1621     -50.363 144.932   7.623  1.00 15.23     0.020 C 
HETATM   40  C38 8UH Y1621     -48.052 145.009  11.981  1.00 15.23     0.044 C 
HETATM   41  C39 8UH Y1621     -45.857 144.282   7.267  1.00 30.42     0.048 C 
HETATM   42  C40 8UH Y1621     -42.399 140.392   6.828  1.00 30.42     0.048 C 
HETATM   43  O23 8UH Y1621     -52.599 143.732  11.632  1.00 15.23    -0.395 OA
ATOM     44  H23 8UH Y1621     -53.127 143.169  11.077  1.00  0.00     0.210 HD
ENDROOT
TORSDOF 12
BEGIN_RES PHE A  61
REMARK  2 active torsions:
REMARK  status: ('A' for Active; 'I' for Inactive)
REMARK    1  A    between atoms: CA   and  CB  
REMARK    2  A    between atoms: CB   and  CG  
ROOT
ATOM      1  CA  PHE A  61     -36.237 128.293  12.768  1.00 39.40     0.164 C 
ENDROOT
BRANCH   1   2
ATOM      2  CB  PHE A  61     -36.813 128.951  11.509  1.00 39.41     0.058 C 
BRANCH   2   3
ATOM      3  CG  PHE A  61     -37.056 127.999  10.363  1.00 39.01    -0.020 A 
ATOM      4  CD2 PHE A  61     -36.283 126.859  10.208  1.00 40.32    -0.004 A 
ATOM      5  CE2 PHE A  61     -36.506 125.985   9.151  1.00 40.20    -0.000 A 
ATOM      6  CZ  PHE A  61     -37.506 126.239   8.240  1.00 40.34    -0.000 A 
ATOM      7  CE1 PHE A  61     -38.285 127.366   8.381  1.00 41.51    -0.000 A 
ATOM      8  CD1 PHE A  61     -38.058 128.243   9.434  1.00 39.94    -0.004 A 
ENDBRANCH   2   3
ENDBRANCH   1   2
END_RES PHE A  61
BEGIN_RES VAL A 134
REMARK  1 active torsions:
REMARK  status: ('A' for Active; 'I' for Inactive)
REMARK    3  A    between atoms: CA   and  CB  
ROOT
ATOM      9  CA  VAL A 134     -29.766 132.051   9.815  1.00 40.75     0.159 C 
ENDROOT
BRANCH   9  10
ATOM     10  CB  VAL A 134     -30.864 132.765   9.009  1.00 40.76     0.029 C 
ATOM     11  CG1 VAL A 134     -32.079 133.042   9.883  1.00 41.76     0.002 C 
ATOM     12  CG2 VAL A 134     -30.350 134.048   8.375  1.00 40.56     0.002 C 
ENDBRANCH   9  10
END_RES VAL A 134
BEGIN_RES TYR A 338
REMARK  3 active torsions:
REMARK  status: ('A' for Active; 'I' for Inactive)
REMARK    4  A    between atoms: CA   and  CB  
REMARK    5  A    between atoms: CB   and  CG  
REMARK    6  A    between atoms: CZ   and  OH  
ROOT
ATOM     13  CA  TYR A 338     -41.631 124.950   6.058  1.00 38.23     0.164 C 
ENDROOT
BRANCH  13  14
ATOM     14  CB  TYR A 338     -41.621 126.456   6.339  1.00 39.15     0.058 C 
BRANCH  14  15
ATOM     15  CG  TYR A 338     -40.412 127.210   5.834  1.00 39.03    -0.020 A 
ATOM     16  CD2 TYR A 338     -40.255 128.555   6.120  1.00 40.65    -0.002 A 
ATOM     17  CE2 TYR A 338     -39.167 129.281   5.660  1.00 40.91     0.024 A 
ATOM     18  CZ  TYR A 338     -38.203 128.658   4.890  1.00 42.33     0.089 A 
ATOM     19  CE1 TYR A 338     -38.335 127.313   4.594  1.00 40.63     0.024 A 
ATOM     20  CD1 TYR A 338     -39.437 126.608   5.053  1.00 39.27    -0.002 A 
BRANCH  18  21
ATOM     21  OH  TYR A 338     -37.124 129.363   4.435  1.00 43.36    -0.359 OA
ATOM     22  HH  TYR A 338     -37.168 129.828   3.607  1.00  0.00     0.217 HD
ENDBRANCH  18  21
ENDBRANCH  14  15
ENDBRANCH  13  14
END_RES TYR A 338
ENDMDL
