MODEL 1
REMARK VINA RESULT:   -10.262      0.000      0.000
REMARK INTER + INTRA:         -12.654
REMARK INTER:                 -10.262
REMARK INTRA:                  -2.392
REMARK UNBOUND:                -2.392
REMARK  0 active torsions:
REMARK  status: ('A' for Active; 'I' for Inactive)
REMARK       I    between atoms: C3_3  and  O3_21 
REMARK       I    between atoms: C6_6  and  C7_7 
REMARK       I    between atoms: C8_8  and  C9_9 
REMARK       I    between atoms: C10_10  and  C11_11 
REMARK       I    between atoms: C12_12  and  C13_13 
REMARK       I    between atoms: C14_14  and  C15_15 
REMARK       I    between atoms: C23_25  and  O23_43 
REMARK       I    between atoms: C26_28  and  C27_29 
REMARK       I    between atoms: C28_30  and  C29_31 
REMARK       I    between atoms: C30_32  and  C31_33 
REMARK       I    between atoms: C32_34  and  C33_35 
REMARK       I    between atoms: C34_36  and  C35_37 
ROOT
HETATM    1  C1  8UH 3 316     -34.309 127.419   6.722  1.00 78.71    -0.018 C 
HETATM    2  C2  8UH 3 316     -33.681 126.950   5.408  1.00 77.73     0.045 C 
HETATM    3  C3  8UH 3 316     -32.495 127.765   4.906  1.00 76.79     0.123 C 
HETATM    4  C4  8UH 3 316     -31.567 128.087   6.061  1.00 76.86     0.066 C 
HETATM    5  C5  8UH 3 316     -32.336 128.915   7.053  1.00 77.66    -0.074 C 
HETATM    6  C6  8UH 3 316     -33.581 128.572   7.391  1.00 78.84    -0.048 C 
HETATM    7  C7  8UH 3 316     -34.295 129.342   8.435  1.00 78.35     0.009 C 
HETATM    8  C8  8UH 3 316     -34.857 130.508   8.124  1.00 77.95     0.007 C 
HETATM    9  C9  8UH 3 316     -35.592 131.318   9.113  1.00 78.35    -0.062 C 
HETATM   10  C10 8UH 3 316     -36.216 132.421   8.678  1.00 77.38     0.007 C 
HETATM   11  C11 8UH 3 316     -36.995 133.302   9.540  1.00 77.06     0.001 C 
HETATM   12  C12 8UH 3 316     -37.767 134.184   8.912  1.00 77.59     0.007 C 
HETATM   13  C13 8UH 3 316     -38.651 135.146   9.596  1.00 77.36    -0.062 C 
HETATM   14  C14 8UH 3 316     -39.431 135.921   8.828  1.00 75.86     0.007 C 
HETATM   15  C15 8UH 3 316     -40.367 136.895   9.375  1.00 74.54     0.001 C 
HETATM   16  C16 8UH 3 316     -34.343 126.244   7.693  1.00 78.56     0.020 C 
HETATM   17  C17 8UH 3 316     -35.739 127.870   6.437  1.00 78.60     0.020 C 
HETATM   18  C18 8UH 3 316     -31.585 129.976   7.804  1.00 77.80     0.044 C 
HETATM   19  C19 8UH 3 316     -35.645 130.910  10.555  1.00 79.41     0.048 C 
HETATM   20  C20 8UH 3 316     -38.685 135.244  11.093  1.00 77.68     0.048 C 
HETATM   21  O3  8UH 3 316     -31.773 127.019   3.920  1.00 76.23    -0.395 OA
ATOM     22  H3  8UH 3 316     -31.034 127.526   3.607  1.00  0.00     0.210 HD
HETATM   23  C21 8UH 3 316     -50.058 145.152   9.682  1.00 20.77    -0.018 C 
HETATM   24  C22 8UH 3 316     -50.980 145.753  10.755  1.00 19.21     0.045 C 
HETATM   25  C23 8UH 3 316     -50.556 147.000  11.527  1.00 20.68     0.123 C 
HETATM   26  C24 8UH 3 316     -49.173 147.560  11.179  1.00 17.77     0.066 C 
HETATM   27  C25 8UH 3 316     -48.228 146.808  10.299  1.00 19.05    -0.074 C 
HETATM   28  C26 8UH 3 316     -48.592 145.684   9.582  1.00 19.48    -0.048 C 
HETATM   29  C27 8UH 3 316     -47.681 144.899   8.705  1.00 16.56     0.009 C 
HETATM   30  C28 8UH 3 316     -46.775 143.981   9.136  1.00 15.55     0.007 C 
HETATM   31  C29 8UH 3 316     -45.845 143.225   8.339  1.00 87.05    -0.062 C 
HETATM   32  C30 8UH 3 316     -45.129 142.246   8.906  1.00 83.33     0.007 C 
HETATM   33  C31 8UH 3 316     -44.181 141.428   8.158  1.00 80.71     0.001 C 
HETATM   34  C32 8UH 3 316     -43.516 140.511   8.851  1.00 78.86     0.007 C 
HETATM   35  C33 8UH 3 316     -42.529 139.594   8.253  1.00 77.40    -0.062 C 
HETATM   36  C34 8UH 3 316     -41.984 138.655   9.039  1.00 76.14     0.007 C 
HETATM   37  C35 8UH 3 316     -41.016 137.691   8.531  1.00 74.61     0.001 C 
HETATM   38  C36 8UH 3 316     -50.810 145.428   8.355  1.00 20.67     0.020 C 
HETATM   39  C37 8UH 3 316     -50.069 143.627   9.921  1.00 19.98     0.020 C 
HETATM   40  C38 8UH 3 316     -46.899 147.480  10.341  1.00 17.40     0.044 C 
HETATM   41  C39 8UH 3 316     -45.702 143.539   6.878  1.00 86.53     0.048 C 
HETATM   42  C40 8UH 3 316     -42.145 139.711   6.808  1.00 77.09     0.048 C 
HETATM   43  O23 8UH 3 316     -51.548 148.017  11.418  1.00 20.33    -0.395 OA
ATOM     44  H23 8UH 3 316     -52.406 147.670  11.634  1.00  0.00     0.210 HD
ENDROOT
TORSDOF 12
BEGIN_RES PHE A  61
REMARK  2 active torsions:
REMARK  status: ('A' for Active; 'I' for Inactive)
REMARK    1  A    between atoms: CA   and  CB  
REMARK    2  A    between atoms: CB   and  CG  
ROOT
ATOM      1  CA  PHE A  61     -36.237 128.293  12.768  1.00 39.40     0.164 C 
ENDROOT
BRANCH   1   2
ATOM      2  CB  PHE A  61     -36.813 128.951  11.509  1.00 39.41     0.058 C 
BRANCH   2   3
ATOM      3  CG  PHE A  61     -37.079 127.995  10.371  1.00 39.01    -0.020 A 
ATOM      4  CD2 PHE A  61     -36.383 126.801  10.267  1.00 40.32    -0.004 A 
ATOM      5  CE2 PHE A  61     -36.626 125.923   9.218  1.00 40.20    -0.000 A 
ATOM      6  CZ  PHE A  61     -37.571 126.227   8.264  1.00 40.34    -0.000 A 
ATOM      7  CE1 PHE A  61     -38.273 127.409   8.355  1.00 41.51    -0.000 A 
ATOM      8  CD1 PHE A  61     -38.025 128.289   9.400  1.00 39.94    -0.004 A 
ENDBRANCH   2   3
ENDBRANCH   1   2
END_RES PHE A  61
BEGIN_RES VAL A 134
REMARK  1 active torsions:
REMARK  status: ('A' for Active; 'I' for Inactive)
REMARK    3  A    between atoms: CA   and  CB  
ROOT
ATOM      9  CA  VAL A 134     -29.766 132.051   9.815  1.00 40.75     0.159 C 
ENDROOT
BRANCH   9  10
ATOM     10  CB  VAL A 134     -30.864 132.765   9.009  1.00 40.76     0.029 C 
ATOM     11  CG1 VAL A 134     -30.907 132.244   7.580  1.00 41.76     0.002 C 
ATOM     12  CG2 VAL A 134     -32.225 132.632   9.674  1.00 40.56     0.002 C 
ENDBRANCH   9  10
END_RES VAL A 134
BEGIN_RES TYR A 338
REMARK  3 active torsions:
REMARK  status: ('A' for Active; 'I' for Inactive)
REMARK    4  A    between atoms: CA   and  CB  
REMARK    5  A    between atoms: CB   and  CG  
REMARK    6  A    between atoms: CZ   and  OH  
ROOT
ATOM     13  CA  TYR A 338     -41.631 124.950   6.058  1.00 38.23     0.164 C 
ENDROOT
BRANCH  13  14
ATOM     14  CB  TYR A 338     -41.621 126.456   6.339  1.00 39.15     0.058 C 
BRANCH  14  15
ATOM     15  CG  TYR A 338     -40.421 127.213   5.818  1.00 39.03    -0.020 A 
ATOM     16  CD2 TYR A 338     -40.247 128.551   6.128  1.00 40.65    -0.002 A 
ATOM     17  CE2 TYR A 338     -39.167 129.280   5.655  1.00 40.91     0.024 A 
ATOM     18  CZ  TYR A 338     -38.227 128.667   4.847  1.00 42.33     0.089 A 
ATOM     19  CE1 TYR A 338     -38.376 127.329   4.528  1.00 40.63     0.024 A 
ATOM     20  CD1 TYR A 338     -39.470 126.621   5.000  1.00 39.27    -0.002 A 
BRANCH  18  21
ATOM     21  OH  TYR A 338     -37.156 129.375   4.379  1.00 43.36    -0.359 OA
ATOM     22  HH  TYR A 338     -37.225 130.311   4.230  1.00  0.00     0.217 HD
ENDBRANCH  18  21
ENDBRANCH  14  15
ENDBRANCH  13  14
END_RES TYR A 338
ENDMDL
