MODEL 1
REMARK VINA RESULT:   -11.636      0.000      0.000
REMARK INTER + INTRA:         -12.349
REMARK INTER:                 -11.636
REMARK INTRA:                  -0.713
REMARK UNBOUND:                -0.713
REMARK  0 active torsions:
REMARK  status: ('A' for Active; 'I' for Inactive)
REMARK       I    between atoms: C3_3  and  O3_21 
REMARK       I    between atoms: C6_6  and  C7_7 
REMARK       I    between atoms: C8_8  and  C9_9 
REMARK       I    between atoms: C10_10  and  C11_11 
REMARK       I    between atoms: C12_12  and  C13_13 
REMARK       I    between atoms: C14_14  and  C15_15 
REMARK       I    between atoms: C23_25  and  O23_43 
REMARK       I    between atoms: C26_28  and  C27_29 
REMARK       I    between atoms: C28_30  and  C29_31 
REMARK       I    between atoms: C30_32  and  C31_33 
REMARK       I    between atoms: C32_34  and  C33_35 
REMARK       I    between atoms: C34_36  and  C35_37 
ROOT
HETATM    1  C1  8UH r 620     -34.190 128.367   6.910  1.00 48.79    -0.018 C 
HETATM    2  C2  8UH r 620     -33.526 128.179   5.552  1.00 49.38     0.045 C 
HETATM    3  C3  8UH r 620     -31.999 128.163   5.519  1.00 51.85     0.123 C 
HETATM    4  C4  8UH r 620     -31.367 129.248   6.372  1.00 54.16     0.066 C 
HETATM    5  C5  8UH r 620     -32.171 129.692   7.563  1.00 52.93    -0.074 C 
HETATM    6  C6  8UH r 620     -33.475 129.418   7.742  1.00 53.44    -0.048 C 
HETATM    7  C7  8UH r 620     -34.246 130.134   8.794  1.00 56.18     0.009 C 
HETATM    8  C8  8UH r 620     -35.027 131.181   8.515  1.00 54.04     0.007 C 
HETATM    9  C9  8UH r 620     -35.815 131.895   9.527  1.00 57.87    -0.062 C 
HETATM   10  C10 8UH r 620     -36.449 132.988   9.113  1.00 59.37     0.007 C 
HETATM   11  C11 8UH r 620     -37.299 133.815   9.953  1.00 54.77     0.001 C 
HETATM   12  C12 8UH r 620     -37.969 134.729   9.275  1.00 53.15     0.007 C 
HETATM   13  C13 8UH r 620     -38.917 135.660   9.886  1.00 52.91    -0.062 C 
HETATM   14  C14 8UH r 620     -39.620 136.400   9.036  1.00 56.79     0.007 C 
HETATM   15  C15 8UH r 620     -40.632 137.341   9.470  1.00 60.51     0.001 C 
HETATM   16  C16 8UH r 620     -34.228 127.039   7.648  1.00 50.92     0.020 C 
HETATM   17  C17 8UH r 620     -35.634 128.796   6.670  1.00 48.05     0.020 C 
HETATM   18  C18 8UH r 620     -31.521 130.894   8.167  1.00 55.82     0.044 C 
HETATM   19  C19 8UH r 620     -35.915 131.417  10.941  1.00 58.46     0.048 C 
HETATM   20  C20 8UH r 620     -39.103 135.751  11.369  1.00 55.54     0.048 C 
HETATM   21  O3  8UH r 620     -31.469 126.879   5.877  1.00 50.70    -0.395 OA
ATOM     22  H3  8UH r 620     -31.865 126.200   5.343  1.00  0.00     0.210 HD
HETATM   23  C21 8UH r 620     -50.539 144.573   9.782  1.00 20.77    -0.018 C 
HETATM   24  C22 8UH r 620     -51.494 144.913  10.937  1.00 19.21     0.045 C 
HETATM   25  C23 8UH r 620     -51.175 146.062  11.890  1.00 20.68     0.123 C 
HETATM   26  C24 8UH r 620     -49.857 146.799  11.627  1.00 17.77     0.066 C 
HETATM   27  C25 8UH r 620     -48.862 146.284  10.638  1.00 19.05    -0.074 C 
HETATM   28  C26 8UH r 620     -49.131 145.252   9.759  1.00 19.48    -0.048 C 
HETATM   29  C27 8UH r 620     -48.167 144.701   8.768  1.00 16.56     0.009 C 
HETATM   30  C28 8UH r 620     -47.170 143.820   9.052  1.00 15.55     0.007 C 
HETATM   31  C29 8UH r 620     -46.190 143.286   8.152  1.00 46.41    -0.062 C 
HETATM   32  C30 8UH r 620     -45.637 142.142   8.527  1.00 51.67     0.007 C 
HETATM   33  C31 8UH r 620     -44.637 141.419   7.778  1.00 48.57     0.001 C 
HETATM   34  C32 8UH r 620     -44.007 140.547   8.537  1.00 50.80     0.007 C 
HETATM   35  C33 8UH r 620     -42.949 139.683   8.025  1.00 54.69    -0.062 C 
HETATM   36  C34 8UH r 620     -42.388 138.847   8.894  1.00 55.71     0.007 C 
HETATM   37  C35 8UH r 620     -41.341 137.923   8.514  1.00 57.66     0.001 C 
HETATM   38  C36 8UH r 620     -51.337 144.974   8.516  1.00 20.67     0.020 C 
HETATM   39  C37 8UH r 620     -50.402 143.036   9.785  1.00 19.98     0.020 C 
HETATM   40  C38 8UH r 620     -47.603 147.065  10.779  1.00 17.40     0.044 C 
HETATM   41  C39 8UH r 620     -45.835 143.975   6.873  1.00 47.78     0.048 C 
HETATM   42  C40 8UH r 620     -42.530 139.775   6.592  1.00 56.30     0.048 C 
HETATM   43  O23 8UH r 620     -52.261 146.984  11.941  1.00 20.33    -0.395 OA
ATOM     44  H23 8UH r 620     -52.062 147.700  12.534  1.00  0.00     0.210 HD
ENDROOT
TORSDOF 12
BEGIN_RES PHE A  61
REMARK  2 active torsions:
REMARK  status: ('A' for Active; 'I' for Inactive)
REMARK    1  A    between atoms: CA   and  CB  
REMARK    2  A    between atoms: CB   and  CG  
ROOT
ATOM      1  CA  PHE A  61     -36.237 128.293  12.768  1.00 39.40     0.164 C 
ENDROOT
BRANCH   1   2
ATOM      2  CB  PHE A  61     -36.813 128.951  11.509  1.00 39.41     0.058 C 
BRANCH   2   3
ATOM      3  CG  PHE A  61     -37.000 128.010  10.343  1.00 39.01    -0.020 A 
ATOM      4  CD2 PHE A  61     -36.200 126.887  10.199  1.00 40.32    -0.004 A 
ATOM      5  CE2 PHE A  61     -36.371 126.024   9.124  1.00 40.20    -0.000 A 
ATOM      6  CZ  PHE A  61     -37.346 126.271   8.184  1.00 40.34    -0.000 A 
ATOM      7  CE1 PHE A  61     -38.151 127.381   8.314  1.00 41.51    -0.000 A 
ATOM      8  CD1 PHE A  61     -37.976 128.248   9.385  1.00 39.94    -0.004 A 
ENDBRANCH   2   3
ENDBRANCH   1   2
END_RES PHE A  61
BEGIN_RES VAL A 134
REMARK  1 active torsions:
REMARK  status: ('A' for Active; 'I' for Inactive)
REMARK    3  A    between atoms: CA   and  CB  
ROOT
ATOM      9  CA  VAL A 134     -29.766 132.051   9.815  1.00 40.75     0.159 C 
ENDROOT
BRANCH   9  10
ATOM     10  CB  VAL A 134     -30.864 132.765   9.009  1.00 40.76     0.029 C 
ATOM     11  CG1 VAL A 134     -32.100 132.991   9.867  1.00 41.76     0.002 C 
ATOM     12  CG2 VAL A 134     -30.366 134.077   8.422  1.00 40.56     0.002 C 
ENDBRANCH   9  10
END_RES VAL A 134
BEGIN_RES TYR A 338
REMARK  3 active torsions:
REMARK  status: ('A' for Active; 'I' for Inactive)
REMARK    4  A    between atoms: CA   and  CB  
REMARK    5  A    between atoms: CB   and  CG  
REMARK    6  A    between atoms: CZ   and  OH  
ROOT
ATOM     13  CA  TYR A 338     -41.631 124.950   6.058  1.00 38.23     0.164 C 
ENDROOT
BRANCH  13  14
ATOM     14  CB  TYR A 338     -41.621 126.456   6.339  1.00 39.15     0.058 C 
BRANCH  14  15
ATOM     15  CG  TYR A 338     -40.420 127.212   5.820  1.00 39.03    -0.020 A 
ATOM     16  CD2 TYR A 338     -40.271 128.562   6.090  1.00 40.65    -0.002 A 
ATOM     17  CE2 TYR A 338     -39.191 129.290   5.616  1.00 40.91     0.024 A 
ATOM     18  CZ  TYR A 338     -38.226 128.666   4.849  1.00 42.33     0.089 A 
ATOM     19  CE1 TYR A 338     -38.349 127.316   4.570  1.00 40.63     0.024 A 
ATOM     20  CD1 TYR A 338     -39.444 126.609   5.041  1.00 39.27    -0.002 A 
BRANCH  18  21
ATOM     21  OH  TYR A 338     -37.154 129.373   4.381  1.00 43.36    -0.359 OA
ATOM     22  HH  TYR A 338     -36.281 128.998   4.409  1.00  0.00     0.217 HD
ENDBRANCH  18  21
ENDBRANCH  14  15
ENDBRANCH  13  14
END_RES TYR A 338
ENDMDL
MODEL 2
REMARK VINA RESULT:   -11.160      0.450     16.509
REMARK INTER + INTRA:         -11.873
REMARK INTER:                 -11.382
REMARK INTRA:                  -0.492
REMARK UNBOUND:                -0.713
REMARK  0 active torsions:
REMARK  status: ('A' for Active; 'I' for Inactive)
REMARK       I    between atoms: C3_3  and  O3_21 
REMARK       I    between atoms: C6_6  and  C7_7 
REMARK       I    between atoms: C8_8  and  C9_9 
REMARK       I    between atoms: C10_10  and  C11_11 
REMARK       I    between atoms: C12_12  and  C13_13 
REMARK       I    between atoms: C14_14  and  C15_15 
REMARK       I    between atoms: C23_25  and  O23_43 
REMARK       I    between atoms: C26_28  and  C27_29 
REMARK       I    between atoms: C28_30  and  C29_31 
REMARK       I    between atoms: C30_32  and  C31_33 
REMARK       I    between atoms: C32_34  and  C33_35 
REMARK       I    between atoms: C34_36  and  C35_37 
ROOT
HETATM    1  C1  8UH r 620     -50.284 144.755   9.986  1.00 48.79    -0.018 C 
HETATM    2  C2  8UH r 620     -50.956 144.938  11.340  1.00 49.38     0.045 C 
HETATM    3  C3  8UH r 620     -50.987 146.351  11.919  1.00 51.85     0.123 C 
HETATM    4  C4  8UH r 620     -49.666 147.088  11.779  1.00 54.16     0.066 C 
HETATM    5  C5  8UH r 620     -48.817 146.684  10.605  1.00 52.93    -0.074 C 
HETATM    6  C6  8UH r 620     -49.004 145.567   9.883  1.00 53.44    -0.048 C 
HETATM    7  C7  8UH r 620     -47.951 145.112   8.933  1.00 56.18     0.009 C 
HETATM    8  C8  8UH r 620     -47.077 144.153   9.248  1.00 54.04     0.007 C 
HETATM    9  C9  8UH r 620     -46.041 143.669   8.327  1.00 57.87    -0.062 C 
HETATM   10  C10 8UH r 620     -45.173 142.795   8.827  1.00 59.37     0.007 C 
HETATM   11  C11 8UH r 620     -44.095 142.181   8.071  1.00 54.77     0.001 C 
HETATM   12  C12 8UH r 620     -43.489 141.207   8.726  1.00 53.15     0.007 C 
HETATM   13  C13 8UH r 620     -42.398 140.410   8.169  1.00 52.91    -0.062 C 
HETATM   14  C14 8UH r 620     -42.017 139.369   8.902  1.00 56.79     0.007 C 
HETATM   15  C15 8UH r 620     -40.980 138.450   8.477  1.00 60.51     0.001 C 
HETATM   16  C16 8UH r 620     -51.252 145.145   8.880  1.00 50.92     0.020 C 
HETATM   17  C17 8UH r 620     -49.969 143.273   9.814  1.00 48.05     0.020 C 
HETATM   18  C18 8UH r 620     -47.478 147.338  10.727  1.00 55.82     0.044 C 
HETATM   19  C19 8UH r 620     -45.970 144.119   6.901  1.00 58.46     0.048 C 
HETATM   20  C20 8UH r 620     -41.771 140.728   6.846  1.00 55.54     0.048 C 
HETATM   21  O3  8UH r 620     -52.052 147.134  11.364  1.00 50.70    -0.395 OA
ATOM     22  H3  8UH r 620     -52.879 146.673  11.452  1.00  0.00     0.210 HD
HETATM   23  C21 8UH r 620     -34.111 128.383   7.064  1.00 20.77    -0.018 C 
HETATM   24  C22 8UH r 620     -33.371 127.841   5.831  1.00 19.21     0.045 C 
HETATM   25  C23 8UH r 620     -31.954 128.311   5.512  1.00 20.68     0.123 C 
HETATM   26  C24 8UH r 620     -31.367 129.354   6.471  1.00 17.77     0.066 C 
HETATM   27  C25 8UH r 620     -32.209 130.012   7.515  1.00 19.05    -0.074 C 
HETATM   28  C26 8UH r 620     -33.490 129.598   7.827  1.00 19.48    -0.048 C 
HETATM   29  C27 8UH r 620     -34.367 130.232   8.850  1.00 16.56     0.009 C 
HETATM   30  C28 8UH r 620     -35.086 131.372   8.666  1.00 15.55     0.007 C 
HETATM   31  C29 8UH r 620     -35.914 132.049   9.622  1.00 46.41    -0.062 C 
HETATM   32  C30 8UH r 620     -36.843 132.841   9.108  1.00 51.67     0.007 C 
HETATM   33  C31 8UH r 620     -37.792 133.612   9.875  1.00 48.57     0.001 C 
HETATM   34  C32 8UH r 620     -38.328 134.571   9.150  1.00 50.80     0.007 C 
HETATM   35  C33 8UH r 620     -39.321 135.495   9.684  1.00 54.69    -0.062 C 
HETATM   36  C34 8UH r 620     -39.784 136.423   8.850  1.00 55.71     0.007 C 
HETATM   37  C35 8UH r 620     -40.786 137.389   9.246  1.00 57.66     0.001 C 
HETATM   38  C36 8UH r 620     -34.197 127.157   8.008  1.00 20.67     0.020 C 
HETATM   39  C37 8UH r 620     -35.541 128.712   6.588  1.00 19.98     0.020 C 
HETATM   40  C38 8UH r 620     -31.433 131.131   8.117  1.00 17.40     0.044 C 
HETATM   41  C39 8UH r 620     -35.739 131.855  11.094  1.00 47.78     0.048 C 
HETATM   42  C40 8UH r 620     -39.759 135.388  11.110  1.00 56.30     0.048 C 
HETATM   43  O23 8UH r 620     -31.074 127.197   5.387  1.00 20.33    -0.395 OA
ATOM     44  H23 8UH r 620     -30.192 127.490   5.189  1.00  0.00     0.210 HD
ENDROOT
TORSDOF 12
BEGIN_RES PHE A  61
REMARK  2 active torsions:
REMARK  status: ('A' for Active; 'I' for Inactive)
REMARK    1  A    between atoms: CA   and  CB  
REMARK    2  A    between atoms: CB   and  CG  
ROOT
ATOM      1  CA  PHE A  61     -36.237 128.293  12.768  1.00 39.40     0.164 C 
ENDROOT
BRANCH   1   2
ATOM      2  CB  PHE A  61     -36.813 128.951  11.509  1.00 39.41     0.058 C 
BRANCH   2   3
ATOM      3  CG  PHE A  61     -37.007 128.008  10.346  1.00 39.01    -0.020 A 
ATOM      4  CD2 PHE A  61     -36.249 126.854  10.230  1.00 40.32    -0.004 A 
ATOM      5  CE2 PHE A  61     -36.426 125.989   9.158  1.00 40.20    -0.000 A 
ATOM      6  CZ  PHE A  61     -37.366 126.267   8.191  1.00 40.34    -0.000 A 
ATOM      7  CE1 PHE A  61     -38.129 127.409   8.292  1.00 41.51    -0.000 A 
ATOM      8  CD1 PHE A  61     -37.948 128.277   9.361  1.00 39.94    -0.004 A 
ENDBRANCH   2   3
ENDBRANCH   1   2
END_RES PHE A  61
BEGIN_RES VAL A 134
REMARK  1 active torsions:
REMARK  status: ('A' for Active; 'I' for Inactive)
REMARK    3  A    between atoms: CA   and  CB  
ROOT
ATOM      9  CA  VAL A 134     -29.766 132.051   9.815  1.00 40.75     0.159 C 
ENDROOT
BRANCH   9  10
ATOM     10  CB  VAL A 134     -30.864 132.765   9.009  1.00 40.76     0.029 C 
ATOM     11  CG1 VAL A 134     -32.096 133.003   9.871  1.00 41.76     0.002 C 
ATOM     12  CG2 VAL A 134     -30.362 134.071   8.412  1.00 40.56     0.002 C 
ENDBRANCH   9  10
END_RES VAL A 134
BEGIN_RES TYR A 338
REMARK  3 active torsions:
REMARK  status: ('A' for Active; 'I' for Inactive)
REMARK    4  A    between atoms: CA   and  CB  
REMARK    5  A    between atoms: CB   and  CG  
REMARK    6  A    between atoms: CZ   and  OH  
ROOT
ATOM     13  CA  TYR A 338     -41.631 124.950   6.058  1.00 38.23     0.164 C 
ENDROOT
BRANCH  13  14
ATOM     14  CB  TYR A 338     -41.621 126.456   6.339  1.00 39.15     0.058 C 
BRANCH  14  15
ATOM     15  CG  TYR A 338     -40.423 127.213   5.815  1.00 39.03    -0.020 A 
ATOM     16  CD2 TYR A 338     -40.271 128.562   6.089  1.00 40.65    -0.002 A 
ATOM     17  CE2 TYR A 338     -39.193 129.291   5.612  1.00 40.91     0.024 A 
ATOM     18  CZ  TYR A 338     -38.233 128.668   4.836  1.00 42.33     0.089 A 
ATOM     19  CE1 TYR A 338     -38.360 127.320   4.552  1.00 40.63     0.024 A 
ATOM     20  CD1 TYR A 338     -39.453 126.612   5.028  1.00 39.27    -0.002 A 
BRANCH  18  21
ATOM     21  OH  TYR A 338     -37.163 129.377   4.364  1.00 43.36    -0.359 OA
ATOM     22  HH  TYR A 338     -36.885 129.281   3.460  1.00  0.00     0.217 HD
ENDBRANCH  18  21
ENDBRANCH  14  15
ENDBRANCH  13  14
END_RES TYR A 338
ENDMDL
MODEL 3
REMARK VINA RESULT:   -10.119      1.353      1.623
REMARK INTER + INTRA:         -10.832
REMARK INTER:                  -8.295
REMARK INTRA:                  -2.537
REMARK UNBOUND:                -0.713
REMARK  0 active torsions:
REMARK  status: ('A' for Active; 'I' for Inactive)
REMARK       I    between atoms: C3_3  and  O3_21 
REMARK       I    between atoms: C6_6  and  C7_7 
REMARK       I    between atoms: C8_8  and  C9_9 
REMARK       I    between atoms: C10_10  and  C11_11 
REMARK       I    between atoms: C12_12  and  C13_13 
REMARK       I    between atoms: C14_14  and  C15_15 
REMARK       I    between atoms: C23_25  and  O23_43 
REMARK       I    between atoms: C26_28  and  C27_29 
REMARK       I    between atoms: C28_30  and  C29_31 
REMARK       I    between atoms: C30_32  and  C31_33 
REMARK       I    between atoms: C32_34  and  C33_35 
REMARK       I    between atoms: C34_36  and  C35_37 
ROOT
HETATM    1  C1  8UH r 620     -34.694 127.571   6.174  1.00 48.79    -0.018 C 
HETATM    2  C2  8UH r 620     -34.302 127.359   4.718  1.00 49.38     0.045 C 
HETATM    3  C3  8UH r 620     -32.811 127.235   4.408  1.00 51.85     0.123 C 
HETATM    4  C4  8UH r 620     -31.958 128.259   5.136  1.00 54.16     0.066 C 
HETATM    5  C5  8UH r 620     -32.500 128.739   6.454  1.00 52.93    -0.074 C 
HETATM    6  C6  8UH r 620     -33.766 128.555   6.865  1.00 53.44    -0.048 C 
HETATM    7  C7  8UH r 620     -34.280 129.306   8.043  1.00 56.18     0.009 C 
HETATM    8  C8  8UH r 620     -35.020 130.410   7.914  1.00 54.04     0.007 C 
HETATM    9  C9  8UH r 620     -35.559 131.161   9.054  1.00 57.87    -0.062 C 
HETATM   10  C10 8UH r 620     -36.177 132.303   8.766  1.00 59.37     0.007 C 
HETATM   11  C11 8UH r 620     -36.798 133.173   9.749  1.00 54.77     0.001 C 
HETATM   12  C12 8UH r 620     -37.512 134.144   9.208  1.00 53.15     0.007 C 
HETATM   13  C13 8UH r 620     -38.263 135.129   9.984  1.00 52.91    -0.062 C 
HETATM   14  C14 8UH r 620     -39.053 135.931   9.278  1.00 56.79     0.007 C 
HETATM   15  C15 8UH r 620     -39.900 136.934   9.892  1.00 60.51     0.001 C 
HETATM   16  C16 8UH r 620     -34.694 126.236   6.902  1.00 50.92     0.020 C 
HETATM   17  C17 8UH r 620     -36.123 128.105   6.202  1.00 48.05     0.020 C 
HETATM   18  C18 8UH r 620     -31.666 129.882   6.934  1.00 55.82     0.044 C 
HETATM   19  C19 8UH r 620     -35.436 130.668  10.462  1.00 58.46     0.048 C 
HETATM   20  C20 8UH r 620     -38.171 135.209  11.477  1.00 55.54     0.048 C 
HETATM   21  O3  8UH r 620     -32.320 125.912   4.659  1.00 50.70    -0.395 OA
ATOM     22  H3  8UH r 620     -32.853 125.271   4.203  1.00  0.00     0.210 HD
HETATM   23  C21 8UH r 620     -49.036 144.841  12.022  1.00 20.77    -0.018 C 
HETATM   24  C22 8UH r 620     -49.739 145.229  13.333  1.00 19.21     0.045 C 
HETATM   25  C23 8UH r 620     -49.171 146.337  14.216  1.00 20.68     0.123 C 
HETATM   26  C24 8UH r 620     -47.872 146.982  13.720  1.00 17.77     0.066 C 
HETATM   27  C25 8UH r 620     -47.113 146.415  12.566  1.00 19.05    -0.074 C 
HETATM   28  C26 8UH r 620     -47.610 145.419  11.747  1.00 19.48    -0.048 C 
HETATM   29  C27 8UH r 620     -46.883 144.818  10.595  1.00 16.56     0.009 C 
HETATM   30  C28 8UH r 620     -45.918 143.864  10.690  1.00 15.55     0.007 C 
HETATM   31  C29 8UH r 620     -45.159 143.277   9.625  1.00 46.41    -0.062 C 
HETATM   32  C30 8UH r 620     -44.631 142.091   9.890  1.00 51.67     0.007 C 
HETATM   33  C31 8UH r 620     -43.838 141.311   8.969  1.00 48.57     0.001 C 
HETATM   34  C32 8UH r 620     -43.146 140.385   9.598  1.00 50.80     0.007 C 
HETATM   35  C33 8UH r 620     -42.264 139.458   8.900  1.00 54.69    -0.062 C 
HETATM   36  C34 8UH r 620     -41.616 138.569   9.650  1.00 55.71     0.007 C 
HETATM   37  C35 8UH r 620     -40.726 137.580   9.082  1.00 57.66     0.001 C 
HETATM   38  C36 8UH r 620     -50.019 145.319  10.924  1.00 20.67     0.020 C 
HETATM   39  C37 8UH r 620     -49.013 143.299  11.995  1.00 19.98     0.020 C 
HETATM   40  C38 8UH r 620     -45.795 147.103  12.478  1.00 17.40     0.044 C 
HETATM   41  C39 8UH r 620     -44.992 143.961   8.306  1.00 47.78     0.048 C 
HETATM   42  C40 8UH r 620     -42.105 139.543   7.415  1.00 56.30     0.048 C 
HETATM   43  O23 8UH r 620     -50.160 147.332  14.466  1.00 20.33    -0.395 OA
ATOM     44  H23 8UH r 620     -49.806 148.022  15.016  1.00  0.00     0.210 HD
ENDROOT
TORSDOF 12
BEGIN_RES PHE A  61
REMARK  2 active torsions:
REMARK  status: ('A' for Active; 'I' for Inactive)
REMARK    1  A    between atoms: CA   and  CB  
REMARK    2  A    between atoms: CB   and  CG  
ROOT
ATOM      1  CA  PHE A  61     -36.237 128.293  12.768  1.00 39.40     0.164 C 
ENDROOT
BRANCH   1   2
ATOM      2  CB  PHE A  61     -36.813 128.951  11.509  1.00 39.41     0.058 C 
BRANCH   2   3
ATOM      3  CG  PHE A  61     -37.037 128.002  10.356  1.00 39.01    -0.020 A 
ATOM      4  CD2 PHE A  61     -36.226 126.892  10.179  1.00 40.32    -0.004 A 
ATOM      5  CE2 PHE A  61     -36.432 126.022   9.116  1.00 40.20    -0.000 A 
ATOM      6  CZ  PHE A  61     -37.452 126.249   8.221  1.00 40.34    -0.000 A 
ATOM      7  CE1 PHE A  61     -38.268 127.346   8.384  1.00 41.51    -0.000 A 
ATOM      8  CD1 PHE A  61     -38.059 128.220   9.443  1.00 39.94    -0.004 A 
ENDBRANCH   2   3
ENDBRANCH   1   2
END_RES PHE A  61
BEGIN_RES VAL A 134
REMARK  1 active torsions:
REMARK  status: ('A' for Active; 'I' for Inactive)
REMARK    3  A    between atoms: CA   and  CB  
ROOT
ATOM      9  CA  VAL A 134     -29.766 132.051   9.815  1.00 40.75     0.159 C 
ENDROOT
BRANCH   9  10
ATOM     10  CB  VAL A 134     -30.864 132.765   9.009  1.00 40.76     0.029 C 
ATOM     11  CG1 VAL A 134     -30.864 132.292   7.563  1.00 41.76     0.002 C 
ATOM     12  CG2 VAL A 134     -32.235 132.577   9.639  1.00 40.56     0.002 C 
ENDBRANCH   9  10
END_RES VAL A 134
BEGIN_RES TYR A 338
REMARK  3 active torsions:
REMARK  status: ('A' for Active; 'I' for Inactive)
REMARK    4  A    between atoms: CA   and  CB  
REMARK    5  A    between atoms: CB   and  CG  
REMARK    6  A    between atoms: CZ   and  OH  
ROOT
ATOM     13  CA  TYR A 338     -41.631 124.950   6.058  1.00 38.23     0.164 C 
ENDROOT
BRANCH  13  14
ATOM     14  CB  TYR A 338     -41.621 126.456   6.339  1.00 39.15     0.058 C 
BRANCH  14  15
ATOM     15  CG  TYR A 338     -40.441 127.219   5.783  1.00 39.03    -0.020 A 
ATOM     16  CD2 TYR A 338     -40.279 128.564   6.068  1.00 40.65    -0.002 A 
ATOM     17  CE2 TYR A 338     -39.218 129.299   5.562  1.00 40.91     0.024 A 
ATOM     18  CZ  TYR A 338     -38.286 128.686   4.746  1.00 42.33     0.089 A 
ATOM     19  CE1 TYR A 338     -38.424 127.341   4.450  1.00 40.63     0.024 A 
ATOM     20  CD1 TYR A 338     -39.499 126.627   4.955  1.00 39.27    -0.002 A 
BRANCH  18  21
ATOM     21  OH  TYR A 338     -37.233 129.400   4.245  1.00 43.36    -0.359 OA
ATOM     22  HH  TYR A 338     -37.375 130.252   3.851  1.00  0.00     0.217 HD
ENDBRANCH  18  21
ENDBRANCH  14  15
ENDBRANCH  13  14
END_RES TYR A 338
ENDMDL
