MODEL 1
REMARK VINA RESULT:   -10.675      0.000      0.000
REMARK INTER + INTRA:         -13.338
REMARK INTER:                 -10.675
REMARK INTRA:                  -2.663
REMARK UNBOUND:                -2.663
REMARK  0 active torsions:
REMARK  status: ('A' for Active; 'I' for Inactive)
REMARK       I    between atoms: C3_3  and  O3_21 
REMARK       I    between atoms: C6_6  and  C7_7 
REMARK       I    between atoms: C8_8  and  C9_9 
REMARK       I    between atoms: C10_10  and  C11_11 
REMARK       I    between atoms: C12_12  and  C13_13 
REMARK       I    between atoms: C14_14  and  C15_15 
REMARK       I    between atoms: C23_25  and  O23_43 
REMARK       I    between atoms: C26_28  and  C27_29 
REMARK       I    between atoms: C28_30  and  C29_31 
REMARK       I    between atoms: C30_32  and  C31_33 
REMARK       I    between atoms: C32_34  and  C33_35 
REMARK       I    between atoms: C34_36  and  C35_37 
ROOT
HETATM    1  C1  8UH 6 621     -49.396 145.547   8.859  1.00 27.76    -0.018 C 
HETATM    2  C2  8UH 6 621     -50.864 145.387   9.244  1.00 27.76     0.045 C 
HETATM    3  C3  8UH 6 621     -51.272 145.511  10.707  1.00 27.76     0.123 C 
HETATM    4  C4  8UH 6 621     -50.315 146.373  11.502  1.00 27.76     0.066 C 
HETATM    5  C5  8UH 6 621     -48.912 145.881  11.277  1.00 27.76    -0.074 C 
HETATM    6  C6  8UH 6 621     -48.460 145.616  10.049  1.00 27.76    -0.048 C 
HETATM    7  C7  8UH 6 621     -47.005 145.407   9.843  1.00 27.76     0.009 C 
HETATM    8  C8  8UH 6 621     -46.435 144.198   9.868  1.00 27.76     0.007 C 
HETATM    9  C9  8UH 6 621     -44.984 144.028   9.672  1.00 27.76    -0.062 C 
HETATM   10  C10 8UH 6 621     -44.479 142.780   9.668  1.00 27.76     0.007 C 
HETATM   11  C11 8UH 6 621     -43.073 142.408   9.510  1.00 27.76     0.001 C 
HETATM   12  C12 8UH 6 621     -42.786 141.125   9.710  1.00 27.76     0.007 C 
HETATM   13  C13 8UH 6 621     -41.469 140.469   9.601  1.00 27.76    -0.062 C 
HETATM   14  C14 8UH 6 621     -41.475 139.131   9.520  1.00 27.76     0.007 C 
HETATM   15  C15 8UH 6 621     -40.285 138.301   9.370  1.00 27.76     0.001 C 
HETATM   16  C16 8UH 6 621     -49.291 146.792   7.982  1.00 27.76     0.020 C 
HETATM   17  C17 8UH 6 621     -48.982 144.340   8.032  1.00 27.76     0.020 C 
HETATM   18  C18 8UH 6 621     -47.974 146.203  12.404  1.00 27.76     0.044 C 
HETATM   19  C19 8UH 6 621     -44.132 145.242   9.490  1.00 27.76     0.048 C 
HETATM   20  C20 8UH 6 621     -40.189 141.241   9.575  1.00 27.76     0.048 C 
HETATM   21  O3  8UH 6 621     -52.578 146.089  10.789  1.00 27.76    -0.395 OA
ATOM     22  H3  8UH 6 621     -52.832 146.167  11.701  1.00  0.00     0.210 HD
HETATM   23  C21 8UH 6 621     -34.558 127.038   6.106  1.00 20.50    -0.018 C 
HETATM   24  C22 8UH 6 621     -33.567 127.002   4.949  1.00 20.50     0.045 C 
HETATM   25  C23 8UH 6 621     -32.367 127.921   5.047  1.00 20.50     0.123 C 
HETATM   26  C24 8UH 6 621     -32.083 128.242   6.493  1.00 20.50     0.066 C 
HETATM   27  C25 8UH 6 621     -33.313 128.903   7.018  1.00 20.50    -0.074 C 
HETATM   28  C26 8UH 6 621     -34.454 128.238   7.002  1.00 20.50    -0.048 C 
HETATM   29  C27 8UH 6 621     -35.680 128.723   7.647  1.00 20.50     0.009 C 
HETATM   30  C28 8UH 6 621     -35.921 130.031   7.673  1.00 20.50     0.007 C 
HETATM   31  C29 8UH 6 621     -37.259 130.524   8.098  1.00 27.76    -0.062 C 
HETATM   32  C30 8UH 6 621     -37.455 131.832   7.913  1.00 27.76     0.007 C 
HETATM   33  C31 8UH 6 621     -38.677 132.559   8.225  1.00 27.76     0.001 C 
HETATM   34  C32 8UH 6 621     -38.546 133.879   8.248  1.00 27.76     0.007 C 
HETATM   35  C33 8UH 6 621     -39.652 134.807   8.508  1.00 27.76    -0.062 C 
HETATM   36  C34 8UH 6 621     -39.395 136.111   8.705  1.00 27.76     0.007 C 
HETATM   37  C35 8UH 6 621     -40.484 137.058   8.935  1.00 27.76     0.001 C 
HETATM   38  C36 8UH 6 621     -34.315 125.850   7.018  1.00 20.50     0.020 C 
HETATM   39  C37 8UH 6 621     -35.946 126.918   5.525  1.00 20.50     0.020 C 
HETATM   40  C38 8UH 6 621     -32.907 129.726   8.187  1.00 20.50     0.044 C 
HETATM   41  C39 8UH 6 621     -38.309 129.629   8.683  1.00 27.76     0.048 C 
HETATM   42  C40 8UH 6 621     -41.049 134.282   8.513  1.00 27.76     0.048 C 
HETATM   43  O23 8UH 6 621     -31.270 127.219   4.479  1.00 20.50    -0.395 OA
ATOM     44  H23 8UH 6 621     -30.516 127.796   4.540  1.00  0.00     0.210 HD
ENDROOT
TORSDOF 12
BEGIN_RES PHE A  61
REMARK  2 active torsions:
REMARK  status: ('A' for Active; 'I' for Inactive)
REMARK    1  A    between atoms: CA   and  CB  
REMARK    2  A    between atoms: CB   and  CG  
ROOT
ATOM      1  CA  PHE A  61     -36.237 128.293  12.768  1.00 39.40     0.164 C 
ENDROOT
BRANCH   1   2
ATOM      2  CB  PHE A  61     -36.813 128.951  11.509  1.00 39.41     0.058 C 
BRANCH   2   3
ATOM      3  CG  PHE A  61     -36.369 130.378  11.292  1.00 39.01    -0.020 A 
ATOM      4  CD2 PHE A  61     -35.096 130.663  10.823  1.00 40.32    -0.004 A 
ATOM      5  CE2 PHE A  61     -34.687 131.976  10.627  1.00 40.20    -0.000 A 
ATOM      6  CZ  PHE A  61     -35.547 133.018  10.892  1.00 40.34    -0.000 A 
ATOM      7  CE1 PHE A  61     -36.816 132.751  11.356  1.00 41.51    -0.000 A 
ATOM      8  CD1 PHE A  61     -37.223 131.438  11.559  1.00 39.94    -0.004 A 
ENDBRANCH   2   3
ENDBRANCH   1   2
END_RES PHE A  61
BEGIN_RES VAL A 134
REMARK  1 active torsions:
REMARK  status: ('A' for Active; 'I' for Inactive)
REMARK    3  A    between atoms: CA   and  CB  
ROOT
ATOM      9  CA  VAL A 134     -29.766 132.051   9.815  1.00 40.75     0.159 C 
ENDROOT
BRANCH   9  10
ATOM     10  CB  VAL A 134     -30.864 132.765   9.009  1.00 40.76     0.029 C 
ATOM     11  CG1 VAL A 134     -31.180 131.998   7.733  1.00 41.76     0.002 C 
ATOM     12  CG2 VAL A 134     -32.121 132.976   9.838  1.00 40.56     0.002 C 
ENDBRANCH   9  10
END_RES VAL A 134
BEGIN_RES TYR A 338
REMARK  3 active torsions:
REMARK  status: ('A' for Active; 'I' for Inactive)
REMARK    4  A    between atoms: CA   and  CB  
REMARK    5  A    between atoms: CB   and  CG  
REMARK    6  A    between atoms: CZ   and  OH  
ROOT
ATOM     13  CA  TYR A 338     -41.631 124.950   6.058  1.00 38.23     0.164 C 
ENDROOT
BRANCH  13  14
ATOM     14  CB  TYR A 338     -41.621 126.456   6.339  1.00 39.15     0.058 C 
BRANCH  14  15
ATOM     15  CG  TYR A 338     -40.416 127.211   5.826  1.00 39.03    -0.020 A 
ATOM     16  CD2 TYR A 338     -40.254 128.555   6.119  1.00 40.65    -0.002 A 
ATOM     17  CE2 TYR A 338     -39.170 129.282   5.653  1.00 40.91     0.024 A 
ATOM     18  CZ  TYR A 338     -38.215 128.663   4.869  1.00 42.33     0.089 A 
ATOM     19  CE1 TYR A 338     -38.352 127.319   4.566  1.00 40.63     0.024 A 
ATOM     20  CD1 TYR A 338     -39.450 126.613   5.032  1.00 39.27    -0.002 A 
BRANCH  18  21
ATOM     21  OH  TYR A 338     -37.139 129.369   4.407  1.00 43.36    -0.359 OA
ATOM     22  HH  TYR A 338     -36.734 130.036   4.949  1.00  0.00     0.217 HD
ENDBRANCH  18  21
ENDBRANCH  14  15
ENDBRANCH  13  14
END_RES TYR A 338
ENDMDL
MODEL 2
REMARK VINA RESULT:   -10.152      1.481     16.688
REMARK INTER + INTRA:         -12.815
REMARK INTER:                 -10.150
REMARK INTRA:                  -2.664
REMARK UNBOUND:                -2.663
REMARK  0 active torsions:
REMARK  status: ('A' for Active; 'I' for Inactive)
REMARK       I    between atoms: C3_3  and  O3_21 
REMARK       I    between atoms: C6_6  and  C7_7 
REMARK       I    between atoms: C8_8  and  C9_9 
REMARK       I    between atoms: C10_10  and  C11_11 
REMARK       I    between atoms: C12_12  and  C13_13 
REMARK       I    between atoms: C14_14  and  C15_15 
REMARK       I    between atoms: C23_25  and  O23_43 
REMARK       I    between atoms: C26_28  and  C27_29 
REMARK       I    between atoms: C28_30  and  C29_31 
REMARK       I    between atoms: C30_32  and  C31_33 
REMARK       I    between atoms: C32_34  and  C33_35 
REMARK       I    between atoms: C34_36  and  C35_37 
ROOT
HETATM    1  C1  8UH 6 621     -34.456 127.533   6.387  1.00 27.76    -0.018 C 
HETATM    2  C2  8UH 6 621     -33.862 127.096   5.051  1.00 27.76     0.045 C 
HETATM    3  C3  8UH 6 621     -32.495 127.622   4.631  1.00 27.76     0.123 C 
HETATM    4  C4  8UH 6 621     -31.633 127.998   5.816  1.00 27.76     0.066 C 
HETATM    5  C5  8UH 6 621     -32.413 128.915   6.718  1.00 27.76    -0.074 C 
HETATM    6  C6  8UH 6 621     -33.670 128.634   7.069  1.00 27.76    -0.048 C 
HETATM    7  C7  8UH 6 621     -34.302 129.404   8.170  1.00 27.76     0.009 C 
HETATM    8  C8  8UH 6 621     -35.042 130.498   7.959  1.00 27.76     0.007 C 
HETATM    9  C9  8UH 6 621     -35.645 131.245   9.076  1.00 27.76    -0.062 C 
HETATM   10  C10 8UH 6 621     -36.412 132.315   8.793  1.00 27.76     0.007 C 
HETATM   11  C11 8UH 6 621     -37.076 133.193   9.757  1.00 27.76     0.001 C 
HETATM   12  C12 8UH 6 621     -37.640 134.287   9.254  1.00 27.76     0.007 C 
HETATM   13  C13 8UH 6 621     -38.389 135.330   9.979  1.00 27.76    -0.062 C 
HETATM   14  C14 8UH 6 621     -39.140 136.152   9.234  1.00 27.76     0.007 C 
HETATM   15  C15 8UH 6 621     -39.980 137.221   9.762  1.00 27.76     0.001 C 
HETATM   16  C16 8UH 6 621     -34.564 126.287   7.262  1.00 27.76     0.020 C 
HETATM   17  C17 8UH 6 621     -35.857 128.069   6.139  1.00 27.76     0.020 C 
HETATM   18  C18 8UH 6 621     -31.550 129.818   7.550  1.00 27.76     0.044 C 
HETATM   19  C19 8UH 6 621     -35.380 130.793  10.476  1.00 27.76     0.048 C 
HETATM   20  C20 8UH 6 621     -38.326 135.473  11.466  1.00 27.76     0.048 C 
HETATM   21  O3  8UH 6 621     -31.812 126.620   3.873  1.00 27.76    -0.395 OA
ATOM     22  H3  8UH 6 621     -30.960 126.948   3.612  1.00  0.00     0.210 HD
HETATM   23  C21 8UH 6 621     -49.845 145.671   8.505  1.00 20.50    -0.018 C 
HETATM   24  C22 8UH 6 621     -51.057 145.559   9.421  1.00 20.50     0.045 C 
HETATM   25  C23 8UH 6 621     -50.799 145.634  10.911  1.00 20.50     0.123 C 
HETATM   26  C24 8UH 6 621     -49.513 146.379  11.173  1.00 20.50     0.066 C 
HETATM   27  C25 8UH 6 621     -48.441 145.609  10.476  1.00 20.50    -0.074 C 
HETATM   28  C26 8UH 6 621     -48.517 145.445   9.168  1.00 20.50    -0.048 C 
HETATM   29  C27 8UH 6 621     -47.438 144.859   8.364  1.00 20.50     0.009 C 
HETATM   30  C28 8UH 6 621     -46.686 143.899   8.896  1.00 20.50     0.007 C 
HETATM   31  C29 8UH 6 621     -45.757 143.127   8.028  1.00 27.76    -0.062 C 
HETATM   32  C30 8UH 6 621     -45.190 142.072   8.619  1.00 27.76     0.007 C 
HETATM   33  C31 8UH 6 621     -44.261 141.144   7.989  1.00 27.76     0.001 C 
HETATM   34  C32 8UH 6 621     -43.597 140.365   8.834  1.00 27.76     0.007 C 
HETATM   35  C33 8UH 6 621     -42.637 139.338   8.417  1.00 27.76    -0.062 C 
HETATM   36  C34 8UH 6 621     -41.869 138.732   9.338  1.00 27.76     0.007 C 
HETATM   37  C35 8UH 6 621     -40.928 137.684   8.949  1.00 27.76     0.001 C 
HETATM   38  C36 8UH 6 621     -49.763 147.079   7.943  1.00 20.50     0.020 C 
HETATM   39  C37 8UH 6 621     -50.045 144.711   7.358  1.00 20.50     0.020 C 
HETATM   40  C38 8UH 6 621     -47.156 145.936  11.149  1.00 20.50     0.044 C 
HETATM   41  C39 8UH 6 621     -45.478 143.495   6.602  1.00 27.76     0.048 C 
HETATM   42  C40 8UH 6 621     -42.561 138.963   6.974  1.00 27.76     0.048 C 
HETATM   43  O23 8UH 6 621     -51.894 146.338  11.480  1.00 20.50    -0.395 OA
ATOM     44  H23 8UH 6 621     -51.732 146.385  12.415  1.00  0.00     0.210 HD
ENDROOT
TORSDOF 12
BEGIN_RES PHE A  61
REMARK  2 active torsions:
REMARK  status: ('A' for Active; 'I' for Inactive)
REMARK    1  A    between atoms: CA   and  CB  
REMARK    2  A    between atoms: CB   and  CG  
ROOT
ATOM      1  CA  PHE A  61     -36.237 128.293  12.768  1.00 39.40     0.164 C 
ENDROOT
BRANCH   1   2
ATOM      2  CB  PHE A  61     -36.813 128.951  11.509  1.00 39.41     0.058 C 
BRANCH   2   3
ATOM      3  CG  PHE A  61     -37.033 128.003  10.355  1.00 39.01    -0.020 A 
ATOM      4  CD2 PHE A  61     -36.271 126.853  10.222  1.00 40.32    -0.004 A 
ATOM      5  CE2 PHE A  61     -36.472 125.984   9.158  1.00 40.20    -0.000 A 
ATOM      6  CZ  PHE A  61     -37.440 126.251   8.217  1.00 40.34    -0.000 A 
ATOM      7  CE1 PHE A  61     -38.208 127.388   8.335  1.00 41.51    -0.000 A 
ATOM      8  CD1 PHE A  61     -38.002 128.262   9.396  1.00 39.94    -0.004 A 
ENDBRANCH   2   3
ENDBRANCH   1   2
END_RES PHE A  61
BEGIN_RES VAL A 134
REMARK  1 active torsions:
REMARK  status: ('A' for Active; 'I' for Inactive)
REMARK    3  A    between atoms: CA   and  CB  
ROOT
ATOM      9  CA  VAL A 134     -29.766 132.051   9.815  1.00 40.75     0.159 C 
ENDROOT
BRANCH   9  10
ATOM     10  CB  VAL A 134     -30.864 132.765   9.009  1.00 40.76     0.029 C 
ATOM     11  CG1 VAL A 134     -30.872 132.283   7.566  1.00 41.76     0.002 C 
ATOM     12  CG2 VAL A 134     -32.234 132.586   9.646  1.00 40.56     0.002 C 
ENDBRANCH   9  10
END_RES VAL A 134
BEGIN_RES TYR A 338
REMARK  3 active torsions:
REMARK  status: ('A' for Active; 'I' for Inactive)
REMARK    4  A    between atoms: CA   and  CB  
REMARK    5  A    between atoms: CB   and  CG  
REMARK    6  A    between atoms: CZ   and  OH  
ROOT
ATOM     13  CA  TYR A 338     -41.631 124.950   6.058  1.00 38.23     0.164 C 
ENDROOT
BRANCH  13  14
ATOM     14  CB  TYR A 338     -41.621 126.456   6.339  1.00 39.15     0.058 C 
BRANCH  14  15
ATOM     15  CG  TYR A 338     -40.436 127.218   5.791  1.00 39.03    -0.020 A 
ATOM     16  CD2 TYR A 338     -40.280 128.565   6.068  1.00 40.65    -0.002 A 
ATOM     17  CE2 TYR A 338     -39.215 129.299   5.569  1.00 40.91     0.024 A 
ATOM     18  CZ  TYR A 338     -38.273 128.682   4.768  1.00 42.33     0.089 A 
ATOM     19  CE1 TYR A 338     -38.404 127.335   4.481  1.00 40.63     0.024 A 
ATOM     20  CD1 TYR A 338     -39.484 126.622   4.979  1.00 39.27    -0.002 A 
BRANCH  18  21
ATOM     21  OH  TYR A 338     -37.215 129.394   4.274  1.00 43.36    -0.359 OA
ATOM     22  HH  TYR A 338     -36.564 129.758   4.863  1.00  0.00     0.217 HD
ENDBRANCH  18  21
ENDBRANCH  14  15
ENDBRANCH  13  14
END_RES TYR A 338
ENDMDL
