MODEL 1
REMARK VINA RESULT:   -11.227      0.000      0.000
REMARK INTER + INTRA:         -11.573
REMARK INTER:                 -11.227
REMARK INTRA:                  -0.346
REMARK UNBOUND:                -0.346
REMARK  0 active torsions:
REMARK  status: ('A' for Active; 'I' for Inactive)
REMARK       I    between atoms: C3_3  and  O3_21 
REMARK       I    between atoms: C6_6  and  C7_7 
REMARK       I    between atoms: C8_8  and  C9_9 
REMARK       I    between atoms: C10_10  and  C11_11 
REMARK       I    between atoms: C12_12  and  C13_13 
REMARK       I    between atoms: C14_14  and  C15_15 
REMARK       I    between atoms: C23_25  and  O23_43 
REMARK       I    between atoms: C26_28  and  C27_29 
REMARK       I    between atoms: C28_30  and  C29_31 
REMARK       I    between atoms: C30_32  and  C31_33 
REMARK       I    between atoms: C32_34  and  C33_35 
REMARK       I    between atoms: C34_36  and  C35_37 
ROOT
HETATM    1  C1  8UH 4 616     -34.180 128.082   6.936  1.00 72.69    -0.018 C 
HETATM    2  C2  8UH 4 616     -33.505 127.661   5.631  1.00 72.50     0.045 C 
HETATM    3  C3  8UH 4 616     -32.176 128.318   5.270  1.00 72.53     0.123 C 
HETATM    4  C4  8UH 4 616     -31.393 128.750   6.497  1.00 73.67     0.066 C 
HETATM    5  C5  8UH 4 616     -32.262 129.608   7.375  1.00 74.71    -0.074 C 
HETATM    6  C6  8UH 4 616     -33.512 129.239   7.649  1.00 74.26    -0.048 C 
HETATM    7  C7  8UH 4 616     -34.307 129.979   8.656  1.00 75.37     0.009 C 
HETATM    8  C8  8UH 4 616     -34.932 131.102   8.304  1.00 77.10     0.007 C 
HETATM    9  C9  8UH 4 616     -35.753 131.878   9.255  1.00 78.39    -0.062 C 
HETATM   10  C10 8UH 4 616     -36.389 132.971   8.807  1.00 81.08     0.007 C 
HETATM   11  C11 8UH 4 616     -37.242 133.802   9.657  1.00 84.31     0.001 C 
HETATM   12  C12 8UH 4 616     -37.987 134.719   9.045  1.00 87.06     0.007 C 
HETATM   13  C13 8UH 4 616     -38.920 135.622   9.747  1.00 89.04    -0.062 C 
HETATM   14  C14 8UH 4 616     -39.692 136.424   8.995  1.00 90.91     0.007 C 
HETATM   15  C15 8UH 4 616     -40.679 137.343   9.555  1.00 91.21     0.001 C 
HETATM   16  C16 8UH 4 616     -34.204 126.879   7.870  1.00 72.40     0.020 C 
HETATM   17  C17 8UH 4 616     -35.611 128.505   6.631  1.00 73.92     0.020 C 
HETATM   18  C18 8UH 4 616     -31.548 130.611   8.232  1.00 74.98     0.044 C 
HETATM   19  C19 8UH 4 616     -35.876 131.440  10.684  1.00 77.08     0.048 C 
HETATM   20  C20 8UH 4 616     -39.012 135.634  11.244  1.00 88.60     0.048 C 
HETATM   21  O3  8UH 4 616     -31.390 127.370   4.540  1.00 71.08    -0.395 OA
ATOM     22  H3  8UH 4 616     -31.879 127.100   3.772  1.00  0.00     0.210 HD
HETATM   23  C21 8UH 4 616     -50.834 144.748  10.276  1.00 23.68    -0.018 C 
HETATM   24  C22 8UH 4 616     -51.713 145.275  11.406  1.00 23.68     0.045 C 
HETATM   25  C23 8UH 4 616     -51.254 146.510  12.171  1.00 23.68     0.123 C 
HETATM   26  C24 8UH 4 616     -50.372 147.406  11.322  1.00 23.68     0.066 C 
HETATM   27  C25 8UH 4 616     -49.241 146.581  10.777  1.00 23.68    -0.074 C 
HETATM   28  C26 8UH 4 616     -49.486 145.435  10.137  1.00 23.68    -0.048 C 
HETATM   29  C27 8UH 4 616     -48.461 144.828   9.243  1.00 23.68     0.009 C 
HETATM   30  C28 8UH 4 616     -47.476 144.042   9.689  1.00 23.68     0.007 C 
HETATM   31  C29 8UH 4 616     -46.477 143.443   8.793  1.00 94.55    -0.062 C 
HETATM   32  C30 8UH 4 616     -45.767 142.397   9.237  1.00 95.44     0.007 C 
HETATM   33  C31 8UH 4 616     -44.759 141.700   8.439  1.00 95.37     0.001 C 
HETATM   34  C32 8UH 4 616     -44.096 140.728   9.060  1.00 94.20     0.007 C 
HETATM   35  C33 8UH 4 616     -43.057 139.884   8.443  1.00 92.43    -0.062 C 
HETATM   36  C34 8UH 4 616     -42.391 139.029   9.235  1.00 91.40     0.007 C 
HETATM   37  C35 8UH 4 616     -41.368 138.124   8.722  1.00 91.41     0.001 C 
HETATM   38  C36 8UH 4 616     -51.653 144.878   9.003  1.00 23.68     0.020 C 
HETATM   39  C37 8UH 4 616     -50.564 143.273  10.534  1.00 23.68     0.020 C 
HETATM   40  C38 8UH 4 616     -48.126 147.489  10.354  1.00 23.68     0.044 C 
HETATM   41  C39 8UH 4 616     -46.263 143.995   7.414  1.00 93.92     0.048 C 
HETATM   42  C40 8UH 4 616     -42.771 139.968   6.974  1.00 91.99     0.048 C 
HETATM   43  O23 8UH 4 616     -52.412 147.245  12.576  1.00 23.68    -0.395 OA
ATOM     44  H23 8UH 4 616     -52.965 146.684  13.107  1.00  0.00     0.210 HD
ENDROOT
TORSDOF 12
BEGIN_RES PHE A  61
REMARK  2 active torsions:
REMARK  status: ('A' for Active; 'I' for Inactive)
REMARK    1  A    between atoms: CA   and  CB  
REMARK    2  A    between atoms: CB   and  CG  
ROOT
ATOM      1  CA  PHE A  61     -36.237 128.293  12.768  1.00 39.40     0.164 C 
ENDROOT
BRANCH   1   2
ATOM      2  CB  PHE A  61     -36.813 128.951  11.509  1.00 39.41     0.058 C 
BRANCH   2   3
ATOM      3  CG  PHE A  61     -37.029 128.004  10.353  1.00 39.01    -0.020 A 
ATOM      4  CD2 PHE A  61     -36.276 126.846  10.231  1.00 40.32    -0.004 A 
ATOM      5  CE2 PHE A  61     -36.474 125.978   9.165  1.00 40.20    -0.000 A 
ATOM      6  CZ  PHE A  61     -37.428 126.254   8.213  1.00 40.34    -0.000 A 
ATOM      7  CE1 PHE A  61     -38.186 127.398   8.321  1.00 41.51    -0.000 A 
ATOM      8  CD1 PHE A  61     -37.984 128.271   9.382  1.00 39.94    -0.004 A 
ENDBRANCH   2   3
ENDBRANCH   1   2
END_RES PHE A  61
BEGIN_RES VAL A 134
REMARK  1 active torsions:
REMARK  status: ('A' for Active; 'I' for Inactive)
REMARK    3  A    between atoms: CA   and  CB  
ROOT
ATOM      9  CA  VAL A 134     -29.766 132.051   9.815  1.00 40.75     0.159 C 
ENDROOT
BRANCH   9  10
ATOM     10  CB  VAL A 134     -30.864 132.765   9.009  1.00 40.76     0.029 C 
ATOM     11  CG1 VAL A 134     -32.102 132.987   9.865  1.00 41.76     0.002 C 
ATOM     12  CG2 VAL A 134     -30.368 134.079   8.426  1.00 40.56     0.002 C 
ENDBRANCH   9  10
END_RES VAL A 134
BEGIN_RES TYR A 338
REMARK  3 active torsions:
REMARK  status: ('A' for Active; 'I' for Inactive)
REMARK    4  A    between atoms: CA   and  CB  
REMARK    5  A    between atoms: CB   and  CG  
REMARK    6  A    between atoms: CZ   and  OH  
ROOT
ATOM     13  CA  TYR A 338     -41.631 124.950   6.058  1.00 38.23     0.164 C 
ENDROOT
BRANCH  13  14
ATOM     14  CB  TYR A 338     -41.621 126.456   6.339  1.00 39.15     0.058 C 
BRANCH  14  15
ATOM     15  CG  TYR A 338     -40.419 127.212   5.821  1.00 39.03    -0.020 A 
ATOM     16  CD2 TYR A 338     -40.275 128.564   6.084  1.00 40.65    -0.002 A 
ATOM     17  CE2 TYR A 338     -39.194 129.292   5.611  1.00 40.91     0.024 A 
ATOM     18  CZ  TYR A 338     -38.224 128.665   4.852  1.00 42.33     0.089 A 
ATOM     19  CE1 TYR A 338     -38.343 127.314   4.580  1.00 40.63     0.024 A 
ATOM     20  CD1 TYR A 338     -39.439 126.606   5.051  1.00 39.27    -0.002 A 
BRANCH  18  21
ATOM     21  OH  TYR A 338     -37.151 129.372   4.385  1.00 43.36    -0.359 OA
ATOM     22  HH  TYR A 338     -36.917 129.337   3.465  1.00  0.00     0.217 HD
ENDBRANCH  18  21
ENDBRANCH  14  15
ENDBRANCH  13  14
END_RES TYR A 338
ENDMDL
MODEL 2
REMARK VINA RESULT:    -9.666      1.593     16.868
REMARK INTER + INTRA:         -10.012
REMARK INTER:                  -6.706
REMARK INTRA:                  -3.306
REMARK UNBOUND:                -0.346
REMARK  0 active torsions:
REMARK  status: ('A' for Active; 'I' for Inactive)
REMARK       I    between atoms: C3_3  and  O3_21 
REMARK       I    between atoms: C6_6  and  C7_7 
REMARK       I    between atoms: C8_8  and  C9_9 
REMARK       I    between atoms: C10_10  and  C11_11 
REMARK       I    between atoms: C12_12  and  C13_13 
REMARK       I    between atoms: C14_14  and  C15_15 
REMARK       I    between atoms: C23_25  and  O23_43 
REMARK       I    between atoms: C26_28  and  C27_29 
REMARK       I    between atoms: C28_30  and  C29_31 
REMARK       I    between atoms: C30_32  and  C31_33 
REMARK       I    between atoms: C32_34  and  C33_35 
REMARK       I    between atoms: C34_36  and  C35_37 
ROOT
HETATM    1  C1  8UH 4 616     -49.218 145.328  12.639  1.00 72.69    -0.018 C 
HETATM    2  C2  8UH 4 616     -49.892 145.551  13.992  1.00 72.50     0.045 C 
HETATM    3  C3  8UH 4 616     -49.197 146.469  14.994  1.00 72.53     0.123 C 
HETATM    4  C4  8UH 4 616     -48.351 147.531  14.313  1.00 73.67     0.066 C 
HETATM    5  C5  8UH 4 616     -47.403 146.877  13.346  1.00 74.71    -0.074 C 
HETATM    6  C6  8UH 4 616     -47.836 145.933  12.512  1.00 74.26    -0.048 C 
HETATM    7  C7  8UH 4 616     -46.955 145.421  11.439  1.00 75.37     0.009 C 
HETATM    8  C8  8UH 4 616     -46.058 144.475  11.718  1.00 77.10     0.007 C 
HETATM    9  C9  8UH 4 616     -45.162 143.912  10.690  1.00 78.39    -0.062 C 
HETATM   10  C10 8UH 4 616     -44.321 142.927  11.045  1.00 81.08     0.007 C 
HETATM   11  C11 8UH 4 616     -43.404 142.284  10.104  1.00 84.31     0.001 C 
HETATM   12  C12 8UH 4 616     -42.790 141.181  10.524  1.00 87.06     0.007 C 
HETATM   13  C13 8UH 4 616     -41.854 140.395   9.697  1.00 89.04    -0.062 C 
HETATM   14  C14 8UH 4 616     -41.391 139.242  10.207  1.00 90.91     0.007 C 
HETATM   15  C15 8UH 4 616     -40.485 138.351   9.487  1.00 91.21     0.001 C 
HETATM   16  C16 8UH 4 616     -50.113 145.920  11.558  1.00 72.40     0.020 C 
HETATM   17  C17 8UH 4 616     -49.078 143.830  12.404  1.00 73.92     0.020 C 
HETATM   18  C18 8UH 4 616     -46.122 147.612  13.080  1.00 74.98     0.044 C 
HETATM   19  C19 8UH 4 616     -45.204 144.425   9.282  1.00 77.08     0.048 C 
HETATM   20  C20 8UH 4 616     -41.444 140.861   8.331  1.00 88.60     0.048 C 
HETATM   21  O3  8UH 4 616     -50.202 147.123  15.777  1.00 71.08    -0.395 OA
ATOM     22  H3  8UH 4 616     -50.731 146.458  16.203  1.00  0.00     0.210 HD
HETATM   23  C21 8UH 4 616     -34.501 127.794   6.141  1.00 23.68    -0.018 C 
HETATM   24  C22 8UH 4 616     -33.800 127.298   4.880  1.00 23.68     0.045 C 
HETATM   25  C23 8UH 4 616     -32.355 127.717   4.637  1.00 23.68     0.123 C 
HETATM   26  C24 8UH 4 616     -31.622 128.000   5.935  1.00 23.68     0.066 C 
HETATM   27  C25 8UH 4 616     -32.416 129.004   6.721  1.00 23.68    -0.074 C 
HETATM   28  C26 8UH 4 616     -33.715 128.805   6.958  1.00 23.68    -0.048 C 
HETATM   29  C27 8UH 4 616     -34.409 129.536   8.054  1.00 23.68     0.009 C 
HETATM   30  C28 8UH 4 616     -34.914 130.765   7.906  1.00 23.68     0.007 C 
HETATM   31  C29 8UH 4 616     -35.604 131.471   8.995  1.00 94.55    -0.062 C 
HETATM   32  C30 8UH 4 616     -36.391 132.510   8.684  1.00 95.44     0.007 C 
HETATM   33  C31 8UH 4 616     -37.148 133.282   9.669  1.00 95.37     0.001 C 
HETATM   34  C32 8UH 4 616     -37.821 134.327   9.195  1.00 94.20     0.007 C 
HETATM   35  C33 8UH 4 616     -38.665 135.226  10.003  1.00 92.43    -0.062 C 
HETATM   36  C34 8UH 4 616     -39.181 136.311   9.403  1.00 91.40     0.007 C 
HETATM   37  C35 8UH 4 616     -40.055 137.247  10.100  1.00 91.41     0.001 C 
HETATM   38  C36 8UH 4 616     -34.828 126.557   6.960  1.00 23.68     0.020 C 
HETATM   39  C37 8UH 4 616     -35.803 128.463   5.728  1.00 23.68     0.020 C 
HETATM   40  C38 8UH 4 616     -31.526 129.651   7.738  1.00 23.68     0.044 C 
HETATM   41  C39 8UH 4 616     -35.427 131.033  10.419  1.00 93.92     0.048 C 
HETATM   42  C40 8UH 4 616     -38.951 134.925  11.444  1.00 91.99     0.048 C 
HETATM   43  O23 8UH 4 616     -31.689 126.657   3.947  1.00 23.68    -0.395 OA
ATOM     44  H23 8UH 4 616     -32.147 126.480   3.134  1.00  0.00     0.210 HD
ENDROOT
TORSDOF 12
BEGIN_RES PHE A  61
REMARK  2 active torsions:
REMARK  status: ('A' for Active; 'I' for Inactive)
REMARK    1  A    between atoms: CA   and  CB  
REMARK    2  A    between atoms: CB   and  CG  
ROOT
ATOM      1  CA  PHE A  61     -36.237 128.293  12.768  1.00 39.40     0.164 C 
ENDROOT
BRANCH   1   2
ATOM      2  CB  PHE A  61     -36.813 128.951  11.509  1.00 39.41     0.058 C 
BRANCH   2   3
ATOM      3  CG  PHE A  61     -36.981 128.014  10.337  1.00 39.01    -0.020 A 
ATOM      4  CD2 PHE A  61     -36.151 126.915  10.179  1.00 40.32    -0.004 A 
ATOM      5  CE2 PHE A  61     -36.305 126.056   9.098  1.00 40.20    -0.000 A 
ATOM      6  CZ  PHE A  61     -37.292 126.284   8.166  1.00 40.34    -0.000 A 
ATOM      7  CE1 PHE A  61     -38.126 127.370   8.309  1.00 41.51    -0.000 A 
ATOM      8  CD1 PHE A  61     -37.968 128.233   9.386  1.00 39.94    -0.004 A 
ENDBRANCH   2   3
ENDBRANCH   1   2
END_RES PHE A  61
BEGIN_RES VAL A 134
REMARK  1 active torsions:
REMARK  status: ('A' for Active; 'I' for Inactive)
REMARK    3  A    between atoms: CA   and  CB  
ROOT
ATOM      9  CA  VAL A 134     -29.766 132.051   9.815  1.00 40.75     0.159 C 
ENDROOT
BRANCH   9  10
ATOM     10  CB  VAL A 134     -30.864 132.765   9.009  1.00 40.76     0.029 C 
ATOM     11  CG1 VAL A 134     -30.876 132.279   7.567  1.00 41.76     0.002 C 
ATOM     12  CG2 VAL A 134     -32.233 132.591   9.649  1.00 40.56     0.002 C 
ENDBRANCH   9  10
END_RES VAL A 134
BEGIN_RES TYR A 338
REMARK  3 active torsions:
REMARK  status: ('A' for Active; 'I' for Inactive)
REMARK    4  A    between atoms: CA   and  CB  
REMARK    5  A    between atoms: CB   and  CG  
REMARK    6  A    between atoms: CZ   and  OH  
ROOT
ATOM     13  CA  TYR A 338     -41.631 124.950   6.058  1.00 38.23     0.164 C 
ENDROOT
BRANCH  13  14
ATOM     14  CB  TYR A 338     -41.621 126.456   6.339  1.00 39.15     0.058 C 
BRANCH  14  15
ATOM     15  CG  TYR A 338     -40.436 127.218   5.791  1.00 39.03    -0.020 A 
ATOM     16  CD2 TYR A 338     -40.273 128.562   6.080  1.00 40.65    -0.002 A 
ATOM     17  CE2 TYR A 338     -39.207 129.295   5.581  1.00 40.91     0.024 A 
ATOM     18  CZ  TYR A 338     -38.273 128.682   4.769  1.00 42.33     0.089 A 
ATOM     19  CE1 TYR A 338     -38.412 127.338   4.469  1.00 40.63     0.024 A 
ATOM     20  CD1 TYR A 338     -39.492 126.626   4.967  1.00 39.27    -0.002 A 
BRANCH  18  21
ATOM     21  OH  TYR A 338     -37.215 129.394   4.275  1.00 43.36    -0.359 OA
ATOM     22  HH  TYR A 338     -36.943 129.285   3.371  1.00  0.00     0.217 HD
ENDBRANCH  18  21
ENDBRANCH  14  15
ENDBRANCH  13  14
END_RES TYR A 338
ENDMDL
