MODEL 1
REMARK VINA RESULT:   -10.260      0.000      0.000
REMARK INTER + INTRA:         -11.587
REMARK INTER:                 -10.260
REMARK INTRA:                  -1.327
REMARK UNBOUND:                -1.327
REMARK  0 active torsions:
REMARK  status: ('A' for Active; 'I' for Inactive)
REMARK       I    between atoms: C3_3  and  O3_21 
REMARK       I    between atoms: C6_6  and  C7_7 
REMARK       I    between atoms: C8_8  and  C9_9 
REMARK       I    between atoms: C10_10  and  C11_11 
REMARK       I    between atoms: C12_12  and  C13_13 
REMARK       I    between atoms: C14_14  and  C15_15 
REMARK       I    between atoms: C23_25  and  O23_43 
REMARK       I    between atoms: C26_28  and  C27_29 
REMARK       I    between atoms: C28_30  and  C29_31 
REMARK       I    between atoms: C30_32  and  C31_33 
REMARK       I    between atoms: C32_34  and  C33_35 
REMARK       I    between atoms: C34_36  and  C35_37 
ROOT
HETATM    1  C1  8UH 31620     -34.297 128.723   6.658  1.00 70.34    -0.018 C 
HETATM    2  C2  8UH 31620     -33.406 128.518   5.449  1.00 70.34     0.045 C 
HETATM    3  C3  8UH 31620     -31.931 128.288   5.730  1.00 70.34     0.123 C 
HETATM    4  C4  8UH 31620     -31.375 129.233   6.779  1.00 70.34     0.066 C 
HETATM    5  C5  8UH 31620     -32.336 129.734   7.817  1.00 70.34    -0.074 C 
HETATM    6  C6  8UH 31620     -33.660 129.577   7.730  1.00 70.34    -0.048 C 
HETATM    7  C7  8UH 31620     -34.563 130.208   8.722  1.00 70.34     0.009 C 
HETATM    8  C8  8UH 31620     -35.132 131.392   8.522  1.00 70.34     0.007 C 
HETATM    9  C9  8UH 31620     -36.040 131.990   9.500  1.00 70.34    -0.062 C 
HETATM   10  C10 8UH 31620     -36.515 133.191   9.187  1.00 70.34     0.007 C 
HETATM   11  C11 8UH 31620     -37.446 133.956   9.988  1.00 70.34     0.001 C 
HETATM   12  C12 8UH 31620     -38.067 134.882   9.277  1.00 70.34     0.007 C 
HETATM   13  C13 8UH 31620     -39.077 135.793   9.816  1.00 70.34    -0.062 C 
HETATM   14  C14 8UH 31620     -39.639 136.630   8.952  1.00 70.34     0.007 C 
HETATM   15  C15 8UH 31620     -40.667 137.572   9.352  1.00 70.34     0.001 C 
HETATM   16  C16 8UH 31620     -34.703 127.360   7.202  1.00 70.34     0.020 C 
HETATM   17  C17 8UH 31620     -35.538 129.454   6.159  1.00 70.34     0.020 C 
HETATM   18  C18 8UH 31620     -31.709 130.700   8.780  1.00 70.34     0.044 C 
HETATM   19  C19 8UH 31620     -36.407 131.264  10.753  1.00 70.34     0.048 C 
HETATM   20  C20 8UH 31620     -39.460 135.778  11.263  1.00 70.34     0.048 C 
HETATM   21  O3  8UH 31620     -31.675 126.933   6.103  1.00 70.34    -0.395 OA
ATOM     22  H3  8UH 31620     -32.023 126.341   5.446  1.00  0.00     0.210 HD
HETATM   23  C21 8UH 31620     -50.401 145.039   9.599  1.00 51.40    -0.018 C 
HETATM   24  C22 8UH 31620     -51.197 145.488  10.816  1.00 51.40     0.045 C 
HETATM   25  C23 8UH 31620     -50.755 146.728  11.581  1.00 51.40     0.123 C 
HETATM   26  C24 8UH 31620     -49.780 147.588  10.807  1.00 51.40     0.066 C 
HETATM   27  C25 8UH 31620     -48.702 146.727  10.234  1.00 51.40    -0.074 C 
HETATM   28  C26 8UH 31620     -49.032 145.673   9.498  1.00 51.40    -0.048 C 
HETATM   29  C27 8UH 31620     -48.074 145.099   8.536  1.00 51.40     0.009 C 
HETATM   30  C28 8UH 31620     -47.120 144.280   8.954  1.00 51.40     0.007 C 
HETATM   31  C29 8UH 31620     -46.172 143.669   8.019  1.00 70.34    -0.062 C 
HETATM   32  C30 8UH 31620     -45.408 142.706   8.521  1.00 70.34     0.007 C 
HETATM   33  C31 8UH 31620     -44.411 141.970   7.766  1.00 70.34     0.001 C 
HETATM   34  C32 8UH 31620     -43.791 141.055   8.492  1.00 70.34     0.007 C 
HETATM   35  C33 8UH 31620     -42.744 140.174   7.974  1.00 70.34    -0.062 C 
HETATM   36  C34 8UH 31620     -42.260 139.258   8.810  1.00 70.34     0.007 C 
HETATM   37  C35 8UH 31620     -41.223 138.326   8.414  1.00 70.34     0.001 C 
HETATM   38  C36 8UH 31620     -51.252 145.297   8.362  1.00 51.40     0.020 C 
HETATM   39  C37 8UH 31620     -50.189 143.540   9.710  1.00 51.40     0.020 C 
HETATM   40  C38 8UH 31620     -47.602 147.668   9.851  1.00 51.40     0.044 C 
HETATM   41  C39 8UH 31620     -46.075 144.102   6.589  1.00 70.34     0.048 C 
HETATM   42  C40 8UH 31620     -42.243 140.313   6.575  1.00 70.34     0.048 C 
HETATM   43  O23 8UH 31620     -51.907 147.531  11.845  1.00 51.40    -0.395 OA
ATOM     44  H23 8UH 31620     -52.519 146.991  12.331  1.00  0.00     0.210 HD
ENDROOT
TORSDOF 12
BEGIN_RES PHE A  61
REMARK  2 active torsions:
REMARK  status: ('A' for Active; 'I' for Inactive)
REMARK    1  A    between atoms: CA   and  CB  
REMARK    2  A    between atoms: CB   and  CG  
ROOT
ATOM      1  CA  PHE A  61     -36.237 128.293  12.768  1.00 39.40     0.164 C 
ENDROOT
BRANCH   1   2
ATOM      2  CB  PHE A  61     -36.813 128.951  11.509  1.00 39.41     0.058 C 
BRANCH   2   3
ATOM      3  CG  PHE A  61     -36.932 128.027  10.321  1.00 39.01    -0.020 A 
ATOM      4  CD2 PHE A  61     -36.058 126.964  10.156  1.00 40.32    -0.004 A 
ATOM      5  CE2 PHE A  61     -36.166 126.116   9.060  1.00 40.20    -0.000 A 
ATOM      6  CZ  PHE A  61     -37.150 126.320   8.120  1.00 40.34    -0.000 A 
ATOM      7  CE1 PHE A  61     -38.028 127.371   8.270  1.00 41.51    -0.000 A 
ATOM      8  CD1 PHE A  61     -37.916 128.222   9.362  1.00 39.94    -0.004 A 
ENDBRANCH   2   3
ENDBRANCH   1   2
END_RES PHE A  61
BEGIN_RES VAL A 134
REMARK  1 active torsions:
REMARK  status: ('A' for Active; 'I' for Inactive)
REMARK    3  A    between atoms: CA   and  CB  
ROOT
ATOM      9  CA  VAL A 134     -29.766 132.051   9.815  1.00 40.75     0.159 C 
ENDROOT
BRANCH   9  10
ATOM     10  CB  VAL A 134     -30.864 132.765   9.009  1.00 40.76     0.029 C 
ATOM     11  CG1 VAL A 134     -32.070 133.062   9.888  1.00 41.76     0.002 C 
ATOM     12  CG2 VAL A 134     -30.344 134.037   8.357  1.00 40.56     0.002 C 
ENDBRANCH   9  10
END_RES VAL A 134
BEGIN_RES TYR A 338
REMARK  3 active torsions:
REMARK  status: ('A' for Active; 'I' for Inactive)
REMARK    4  A    between atoms: CA   and  CB  
REMARK    5  A    between atoms: CB   and  CG  
REMARK    6  A    between atoms: CZ   and  OH  
ROOT
ATOM     13  CA  TYR A 338     -41.631 124.950   6.058  1.00 38.23     0.164 C 
ENDROOT
BRANCH  13  14
ATOM     14  CB  TYR A 338     -41.621 126.456   6.339  1.00 39.15     0.058 C 
BRANCH  14  15
ATOM     15  CG  TYR A 338     -40.423 127.213   5.814  1.00 39.03    -0.020 A 
ATOM     16  CD2 TYR A 338     -40.283 128.567   6.069  1.00 40.65    -0.002 A 
ATOM     17  CE2 TYR A 338     -39.205 129.296   5.590  1.00 40.91     0.024 A 
ATOM     18  CZ  TYR A 338     -38.234 128.669   4.833  1.00 42.33     0.089 A 
ATOM     19  CE1 TYR A 338     -38.350 127.315   4.568  1.00 40.63     0.024 A 
ATOM     20  CD1 TYR A 338     -39.442 126.607   5.045  1.00 39.27    -0.002 A 
BRANCH  18  21
ATOM     21  OH  TYR A 338     -37.165 129.377   4.359  1.00 43.36    -0.359 OA
ATOM     22  HH  TYR A 338     -36.739 130.027   4.906  1.00  0.00     0.217 HD
ENDBRANCH  18  21
ENDBRANCH  14  15
ENDBRANCH  13  14
END_RES TYR A 338
ENDMDL
MODEL 2
REMARK VINA RESULT:   -10.240      1.387     16.510
REMARK INTER + INTRA:         -11.567
REMARK INTER:                  -8.494
REMARK INTRA:                  -3.073
REMARK UNBOUND:                -1.327
REMARK  0 active torsions:
REMARK  status: ('A' for Active; 'I' for Inactive)
REMARK       I    between atoms: C3_3  and  O3_21 
REMARK       I    between atoms: C6_6  and  C7_7 
REMARK       I    between atoms: C8_8  and  C9_9 
REMARK       I    between atoms: C10_10  and  C11_11 
REMARK       I    between atoms: C12_12  and  C13_13 
REMARK       I    between atoms: C14_14  and  C15_15 
REMARK       I    between atoms: C23_25  and  O23_43 
REMARK       I    between atoms: C26_28  and  C27_29 
REMARK       I    between atoms: C28_30  and  C29_31 
REMARK       I    between atoms: C30_32  and  C31_33 
REMARK       I    between atoms: C32_34  and  C33_35 
REMARK       I    between atoms: C34_36  and  C35_37 
ROOT
HETATM    1  C1  8UH 31620     -49.138 144.407  12.392  1.00 70.34    -0.018 C 
HETATM    2  C2  8UH 31620     -49.480 144.872  13.793  1.00 70.34     0.045 C 
HETATM    3  C3  8UH 31620     -49.494 146.374  14.021  1.00 70.34     0.123 C 
HETATM    4  C4  8UH 31620     -48.310 147.079  13.388  1.00 70.34     0.066 C 
HETATM    5  C5  8UH 31620     -47.720 146.445  12.162  1.00 70.34    -0.074 C 
HETATM    6  C6  8UH 31620     -48.029 145.211  11.752  1.00 70.34    -0.048 C 
HETATM    7  C7  8UH 31620     -47.315 144.594  10.609  1.00 70.34     0.009 C 
HETATM    8  C8  8UH 31620     -46.259 143.802  10.766  1.00 70.34     0.007 C 
HETATM    9  C9  8UH 31620     -45.580 143.181   9.630  1.00 70.34    -0.062 C 
HETATM   10  C10 8UH 31620     -44.520 142.437   9.928  1.00 70.34     0.007 C 
HETATM   11  C11 8UH 31620     -43.716 141.708   8.971  1.00 70.34     0.001 C 
HETATM   12  C12 8UH 31620     -43.017 140.742   9.544  1.00 70.34     0.007 C 
HETATM   13  C13 8UH 31620     -42.130 139.830   8.823  1.00 70.34    -0.062 C 
HETATM   14  C14 8UH 31620     -41.541 138.884   9.545  1.00 70.34     0.007 C 
HETATM   15  C15 8UH 31620     -40.653 137.904   8.951  1.00 70.34     0.001 C 
HETATM   16  C16 8UH 31620     -50.404 144.436  11.545  1.00 70.34     0.020 C 
HETATM   17  C17 8UH 31620     -48.653 142.969  12.522  1.00 70.34     0.020 C 
HETATM   18  C18 8UH 31620     -46.524 147.183  11.636  1.00 70.34     0.044 C 
HETATM   19  C19 8UH 31620     -46.083 143.372   8.236  1.00 70.34     0.048 C 
HETATM   20  C20 8UH 31620     -41.902 139.953   7.349  1.00 70.34     0.048 C 
HETATM   21  O3  8UH 31620     -50.716 146.960  13.568  1.00 70.34    -0.395 OA
ATOM     22  H3  8UH 31620     -51.458 146.518  13.965  1.00  0.00     0.210 HD
HETATM   23  C21 8UH 31620     -34.346 127.697   6.379  1.00 51.40    -0.018 C 
HETATM   24  C22 8UH 31620     -33.755 127.283   5.039  1.00 51.40     0.045 C 
HETATM   25  C23 8UH 31620     -32.349 127.740   4.671  1.00 51.40     0.123 C 
HETATM   26  C24 8UH 31620     -31.560 128.249   5.857  1.00 51.40     0.066 C 
HETATM   27  C25 8UH 31620     -32.397 129.205   6.641  1.00 51.40    -0.074 C 
HETATM   28  C26 8UH 31620     -33.604 128.831   7.049  1.00 51.40    -0.048 C 
HETATM   29  C27 8UH 31620     -34.250 129.500   8.193  1.00 51.40     0.009 C 
HETATM   30  C28 8UH 31620     -34.867 130.660   8.023  1.00 51.40     0.007 C 
HETATM   31  C29 8UH 31620     -35.546 131.336   9.132  1.00 70.34    -0.062 C 
HETATM   32  C30 8UH 31620     -36.306 132.371   8.796  1.00 70.34     0.007 C 
HETATM   33  C31 8UH 31620     -37.067 133.172   9.739  1.00 70.34     0.001 C 
HETATM   34  C32 8UH 31620     -37.753 134.139   9.153  1.00 70.34     0.007 C 
HETATM   35  C33 8UH 31620     -38.603 135.087   9.872  1.00 70.34    -0.062 C 
HETATM   36  C34 8UH 31620     -39.281 135.965   9.136  1.00 70.34     0.007 C 
HETATM   37  C35 8UH 31620     -40.159 136.953   9.731  1.00 70.34     0.001 C 
HETATM   38  C36 8UH 31620     -34.425 126.456   7.259  1.00 51.40     0.020 C 
HETATM   39  C37 8UH 31620     -35.764 128.180   6.131  1.00 51.40     0.020 C 
HETATM   40  C38 8UH 31620     -31.439 129.945   7.521  1.00 51.40     0.044 C 
HETATM   41  C39 8UH 31620     -35.393 130.883  10.551  1.00 70.34     0.048 C 
HETATM   42  C40 8UH 31620     -38.687 135.070  11.362  1.00 70.34     0.048 C 
HETATM   43  O23 8UH 31620     -31.636 126.623   4.137  1.00 51.40    -0.395 OA
ATOM     44  H23 8UH 31620     -32.132 126.303   3.392  1.00  0.00     0.210 HD
ENDROOT
TORSDOF 12
BEGIN_RES PHE A  61
REMARK  2 active torsions:
REMARK  status: ('A' for Active; 'I' for Inactive)
REMARK    1  A    between atoms: CA   and  CB  
REMARK    2  A    between atoms: CB   and  CG  
ROOT
ATOM      1  CA  PHE A  61     -36.237 128.293  12.768  1.00 39.40     0.164 C 
ENDROOT
BRANCH   1   2
ATOM      2  CB  PHE A  61     -36.813 128.951  11.509  1.00 39.41     0.058 C 
BRANCH   2   3
ATOM      3  CG  PHE A  61     -37.003 128.009  10.344  1.00 39.01    -0.020 A 
ATOM      4  CD2 PHE A  61     -36.207 126.884  10.201  1.00 40.32    -0.004 A 
ATOM      5  CE2 PHE A  61     -36.381 126.020   9.127  1.00 40.20    -0.000 A 
ATOM      6  CZ  PHE A  61     -37.355 126.269   8.187  1.00 40.34    -0.000 A 
ATOM      7  CE1 PHE A  61     -38.156 127.382   8.316  1.00 41.51    -0.000 A 
ATOM      8  CD1 PHE A  61     -37.978 128.249   9.386  1.00 39.94    -0.004 A 
ENDBRANCH   2   3
ENDBRANCH   1   2
END_RES PHE A  61
BEGIN_RES VAL A 134
REMARK  1 active torsions:
REMARK  status: ('A' for Active; 'I' for Inactive)
REMARK    3  A    between atoms: CA   and  CB  
ROOT
ATOM      9  CA  VAL A 134     -29.766 132.051   9.815  1.00 40.75     0.159 C 
ENDROOT
BRANCH   9  10
ATOM     10  CB  VAL A 134     -30.864 132.765   9.009  1.00 40.76     0.029 C 
ATOM     11  CG1 VAL A 134     -30.860 132.296   7.561  1.00 41.76     0.002 C 
ATOM     12  CG2 VAL A 134     -32.236 132.571   9.636  1.00 40.56     0.002 C 
ENDBRANCH   9  10
END_RES VAL A 134
BEGIN_RES TYR A 338
REMARK  3 active torsions:
REMARK  status: ('A' for Active; 'I' for Inactive)
REMARK    4  A    between atoms: CA   and  CB  
REMARK    5  A    between atoms: CB   and  CG  
REMARK    6  A    between atoms: CZ   and  OH  
ROOT
ATOM     13  CA  TYR A 338     -41.631 124.950   6.058  1.00 38.23     0.164 C 
ENDROOT
BRANCH  13  14
ATOM     14  CB  TYR A 338     -41.621 126.456   6.339  1.00 39.15     0.058 C 
BRANCH  14  15
ATOM     15  CG  TYR A 338     -40.433 127.217   5.797  1.00 39.03    -0.020 A 
ATOM     16  CD2 TYR A 338     -40.260 128.556   6.101  1.00 40.65    -0.002 A 
ATOM     17  CE2 TYR A 338     -39.191 129.289   5.609  1.00 40.91     0.024 A 
ATOM     18  CZ  TYR A 338     -38.261 128.678   4.788  1.00 42.33     0.089 A 
ATOM     19  CE1 TYR A 338     -38.409 127.339   4.474  1.00 40.63     0.024 A 
ATOM     20  CD1 TYR A 338     -39.493 126.627   4.966  1.00 39.27    -0.002 A 
BRANCH  18  21
ATOM     21  OH  TYR A 338     -37.200 129.390   4.301  1.00 43.36    -0.359 OA
ATOM     22  HH  TYR A 338     -36.311 129.141   4.526  1.00  0.00     0.217 HD
ENDBRANCH  18  21
ENDBRANCH  14  15
ENDBRANCH  13  14
END_RES TYR A 338
ENDMDL
