MODEL 1
REMARK VINA RESULT:    -9.671      0.000      0.000
REMARK INTER + INTRA:         -12.945
REMARK INTER:                  -9.671
REMARK INTRA:                  -3.274
REMARK UNBOUND:                -3.274
REMARK  0 active torsions:
REMARK  status: ('A' for Active; 'I' for Inactive)
REMARK       I    between atoms: C3_3  and  O3_21 
REMARK       I    between atoms: C6_6  and  C7_7 
REMARK       I    between atoms: C8_8  and  C9_9 
REMARK       I    between atoms: C10_10  and  C11_11 
REMARK       I    between atoms: C12_12  and  C13_13 
REMARK       I    between atoms: C14_14  and  C15_15 
REMARK       I    between atoms: C23_25  and  O23_43 
REMARK       I    between atoms: C26_28  and  C27_29 
REMARK       I    between atoms: C28_30  and  C29_31 
REMARK       I    between atoms: C30_32  and  C31_33 
REMARK       I    between atoms: C32_34  and  C33_35 
REMARK       I    between atoms: C34_36  and  C35_37 
ROOT
HETATM    1  C1  8UH N1621     -34.369 127.011   6.301  1.00 51.88    -0.018 C 
HETATM    2  C2  8UH N1621     -33.970 126.443   4.946  1.00 51.88     0.045 C 
HETATM    3  C3  8UH N1621     -32.798 127.100   4.250  1.00 51.88     0.123 C 
HETATM    4  C4  8UH N1621     -31.721 127.423   5.257  1.00 51.88     0.066 C 
HETATM    5  C5  8UH N1621     -32.280 128.350   6.295  1.00 51.88    -0.074 C 
HETATM    6  C6  8UH N1621     -33.480 128.122   6.831  1.00 51.88    -0.048 C 
HETATM    7  C7  8UH N1621     -34.010 128.925   7.965  1.00 51.88     0.009 C 
HETATM    8  C8  8UH N1621     -34.618 130.099   7.785  1.00 51.88     0.007 C 
HETATM    9  C9  8UH N1621     -35.198 130.903   8.869  1.00 51.88    -0.062 C 
HETATM   10  C10 8UH N1621     -36.094 131.808   8.476  1.00 51.88     0.007 C 
HETATM   11  C11 8UH N1621     -36.854 132.707   9.330  1.00 51.88     0.001 C 
HETATM   12  C12 8UH N1621     -37.703 133.490   8.677  1.00 51.88     0.007 C 
HETATM   13  C13 8UH N1621     -38.603 134.428   9.359  1.00 51.88    -0.062 C 
HETATM   14  C14 8UH N1621     -39.408 135.197   8.615  1.00 51.88     0.007 C 
HETATM   15  C15 8UH N1621     -40.353 136.122   9.228  1.00 51.88     0.001 C 
HETATM   16  C16 8UH N1621     -34.449 125.851   7.281  1.00 51.88     0.020 C 
HETATM   17  C17 8UH N1621     -35.760 127.581   6.154  1.00 51.88     0.020 C 
HETATM   18  C18 8UH N1621     -31.305 129.328   6.872  1.00 51.88     0.044 C 
HETATM   19  C19 8UH N1621     -34.818 130.713  10.303  1.00 51.88     0.048 C 
HETATM   20  C20 8UH N1621     -38.635 134.477  10.855  1.00 51.88     0.048 C 
HETATM   21  O3  8UH N1621     -32.254 126.180   3.299  1.00 51.88    -0.395 OA
ATOM     22  H3  8UH N1621     -31.518 126.593   2.862  1.00  0.00     0.210 HD
HETATM   23  C21 8UH N1621     -49.847 144.779  10.051  1.00 48.43    -0.018 C 
HETATM   24  C22 8UH N1621     -50.828 145.327  11.079  1.00 44.61     0.045 C 
HETATM   25  C23 8UH N1621     -50.235 145.777  12.399  1.00 44.41     0.123 C 
HETATM   26  C24 8UH N1621     -48.942 146.525  12.180  1.00 41.53     0.066 C 
HETATM   27  C25 8UH N1621     -47.987 145.600  11.493  1.00 37.72    -0.074 C 
HETATM   28  C26 8UH N1621     -48.380 144.903  10.428  1.00 43.52    -0.048 C 
HETATM   29  C27 8UH N1621     -47.406 144.236   9.533  1.00 44.60     0.009 C 
HETATM   30  C28 8UH N1621     -46.876 143.054   9.819  1.00 43.22     0.007 C 
HETATM   31  C29 8UH N1621     -45.943 142.387   8.896  1.00 51.88    -0.062 C 
HETATM   32  C30 8UH N1621     -45.541 141.156   9.230  1.00 51.88     0.007 C 
HETATM   33  C31 8UH N1621     -44.623 140.340   8.445  1.00 51.88     0.001 C 
HETATM   34  C32 8UH N1621     -43.803 139.532   9.114  1.00 51.88     0.007 C 
HETATM   35  C33 8UH N1621     -42.839 138.661   8.425  1.00 51.88    -0.062 C 
HETATM   36  C34 8UH N1621     -42.029 137.852   9.125  1.00 51.88     0.007 C 
HETATM   37  C35 8UH N1621     -41.069 136.958   8.480  1.00 51.88     0.001 C 
HETATM   38  C36 8UH N1621     -50.172 145.493   8.744  1.00 47.48     0.020 C 
HETATM   39  C37 8UH N1621     -50.075 143.288   9.882  1.00 54.25     0.020 C 
HETATM   40  C38 8UH N1621     -46.565 145.992  11.715  1.00 37.77     0.044 C 
HETATM   41  C39 8UH N1621     -45.475 143.068   7.647  1.00 51.88     0.048 C 
HETATM   42  C40 8UH N1621     -42.789 138.699   6.939  1.00 51.88     0.048 C 
HETATM   43  O23 8UH N1621     -51.161 146.645  13.052  1.00 48.83    -0.395 OA
ATOM     44  H23 8UH N1621     -50.789 146.928  13.878  1.00  0.00     0.210 HD
ENDROOT
TORSDOF 12
BEGIN_RES PHE A  61
REMARK  2 active torsions:
REMARK  status: ('A' for Active; 'I' for Inactive)
REMARK    1  A    between atoms: CA   and  CB  
REMARK    2  A    between atoms: CB   and  CG  
ROOT
ATOM      1  CA  PHE A  61     -36.237 128.293  12.768  1.00 39.40     0.164 C 
ENDROOT
BRANCH   1   2
ATOM      2  CB  PHE A  61     -36.813 128.951  11.509  1.00 39.41     0.058 C 
BRANCH   2   3
ATOM      3  CG  PHE A  61     -37.027 128.004  10.352  1.00 39.01    -0.020 A 
ATOM      4  CD2 PHE A  61     -36.279 126.843  10.235  1.00 40.32    -0.004 A 
ATOM      5  CE2 PHE A  61     -36.475 125.975   9.169  1.00 40.20    -0.000 A 
ATOM      6  CZ  PHE A  61     -37.422 126.255   8.211  1.00 40.34    -0.000 A 
ATOM      7  CE1 PHE A  61     -38.175 127.403   8.314  1.00 41.51    -0.000 A 
ATOM      8  CD1 PHE A  61     -37.975 128.275   9.376  1.00 39.94    -0.004 A 
ENDBRANCH   2   3
ENDBRANCH   1   2
END_RES PHE A  61
BEGIN_RES VAL A 134
REMARK  1 active torsions:
REMARK  status: ('A' for Active; 'I' for Inactive)
REMARK    3  A    between atoms: CA   and  CB  
ROOT
ATOM      9  CA  VAL A 134     -29.766 132.051   9.815  1.00 40.75     0.159 C 
ENDROOT
BRANCH   9  10
ATOM     10  CB  VAL A 134     -30.864 132.765   9.009  1.00 40.76     0.029 C 
ATOM     11  CG1 VAL A 134     -31.179 131.999   7.733  1.00 41.76     0.002 C 
ATOM     12  CG2 VAL A 134     -32.122 132.975   9.838  1.00 40.56     0.002 C 
ENDBRANCH   9  10
END_RES VAL A 134
BEGIN_RES TYR A 338
REMARK  3 active torsions:
REMARK  status: ('A' for Active; 'I' for Inactive)
REMARK    4  A    between atoms: CA   and  CB  
REMARK    5  A    between atoms: CB   and  CG  
REMARK    6  A    between atoms: CZ   and  OH  
ROOT
ATOM     13  CA  TYR A 338     -41.631 124.950   6.058  1.00 38.23     0.164 C 
ENDROOT
BRANCH  13  14
ATOM     14  CB  TYR A 338     -41.621 126.456   6.339  1.00 39.15     0.058 C 
BRANCH  14  15
ATOM     15  CG  TYR A 338     -40.421 127.213   5.817  1.00 39.03    -0.020 A 
ATOM     16  CD2 TYR A 338     -40.249 128.552   6.125  1.00 40.65    -0.002 A 
ATOM     17  CE2 TYR A 338     -39.169 129.280   5.651  1.00 40.91     0.024 A 
ATOM     18  CZ  TYR A 338     -38.229 128.668   4.845  1.00 42.33     0.089 A 
ATOM     19  CE1 TYR A 338     -38.376 127.329   4.527  1.00 40.63     0.024 A 
ATOM     20  CD1 TYR A 338     -39.470 126.621   5.000  1.00 39.27    -0.002 A 
BRANCH  18  21
ATOM     21  OH  TYR A 338     -37.158 129.375   4.375  1.00 43.36    -0.359 OA
ATOM     22  HH  TYR A 338     -36.718 129.108   3.576  1.00  0.00     0.217 HD
ENDBRANCH  18  21
ENDBRANCH  14  15
ENDBRANCH  13  14
END_RES TYR A 338
ENDMDL
MODEL 2
REMARK VINA RESULT:    -9.408      1.725     16.770
REMARK INTER + INTRA:         -12.682
REMARK INTER:                 -10.662
REMARK INTRA:                  -2.020
REMARK UNBOUND:                -3.274
REMARK  0 active torsions:
REMARK  status: ('A' for Active; 'I' for Inactive)
REMARK       I    between atoms: C3_3  and  O3_21 
REMARK       I    between atoms: C6_6  and  C7_7 
REMARK       I    between atoms: C8_8  and  C9_9 
REMARK       I    between atoms: C10_10  and  C11_11 
REMARK       I    between atoms: C12_12  and  C13_13 
REMARK       I    between atoms: C14_14  and  C15_15 
REMARK       I    between atoms: C23_25  and  O23_43 
REMARK       I    between atoms: C26_28  and  C27_29 
REMARK       I    between atoms: C28_30  and  C29_31 
REMARK       I    between atoms: C30_32  and  C31_33 
REMARK       I    between atoms: C32_34  and  C33_35 
REMARK       I    between atoms: C34_36  and  C35_37 
ROOT
HETATM    1  C1  8UH N1621     -47.953 145.824  12.771  1.00 51.88    -0.018 C 
HETATM    2  C2  8UH N1621     -48.728 145.980  14.073  1.00 51.88     0.045 C 
HETATM    3  C3  8UH N1621     -47.996 146.625  15.228  1.00 51.88     0.123 C 
HETATM    4  C4  8UH N1621     -47.163 147.779  14.726  1.00 51.88     0.066 C 
HETATM    5  C5  8UH N1621     -46.175 147.271  13.719  1.00 51.88    -0.074 C 
HETATM    6  C6  8UH N1621     -46.556 146.416  12.768  1.00 51.88    -0.048 C 
HETATM    7  C7  8UH N1621     -45.651 146.002  11.663  1.00 51.88     0.009 C 
HETATM    8  C8  8UH N1621     -44.756 145.022  11.802  1.00 51.88     0.007 C 
HETATM    9  C9  8UH N1621     -43.877 144.549  10.725  1.00 51.88    -0.062 C 
HETATM   10  C10 8UH N1621     -43.360 143.335  10.918  1.00 51.88     0.007 C 
HETATM   11  C11 8UH N1621     -42.497 142.603  10.006  1.00 51.88     0.001 C 
HETATM   12  C12 8UH N1621     -42.149 141.397  10.436  1.00 51.88     0.007 C 
HETATM   13  C13 8UH N1621     -41.328 140.476   9.640  1.00 51.88    -0.062 C 
HETATM   14  C14 8UH N1621     -41.006 139.288  10.167  1.00 51.88     0.007 C 
HETATM   15  C15 8UH N1621     -40.226 138.312   9.417  1.00 51.88     0.001 C 
HETATM   16  C16 8UH N1621     -48.805 146.407  11.655  1.00 51.88     0.020 C 
HETATM   17  C17 8UH N1621     -47.813 144.342  12.511  1.00 51.88     0.020 C 
HETATM   18  C18 8UH N1621     -44.867 147.999  13.682  1.00 51.88     0.044 C 
HETATM   19  C19 8UH N1621     -43.591 145.363   9.503  1.00 51.88     0.048 C 
HETATM   20  C20 8UH N1621     -40.908 140.858   8.255  1.00 51.88     0.048 C 
HETATM   21  O3  8UH N1621     -48.959 147.141  16.151  1.00 51.88    -0.395 OA
ATOM     22  H3  8UH N1621     -48.499 147.546  16.877  1.00  0.00     0.210 HD
HETATM   23  C21 8UH N1621     -34.353 127.180   6.707  1.00 48.43    -0.018 C 
HETATM   24  C22 8UH N1621     -33.828 126.411   5.501  1.00 44.61     0.045 C 
HETATM   25  C23 8UH N1621     -32.919 127.178   4.561  1.00 44.41     0.123 C 
HETATM   26  C24 8UH N1621     -31.950 128.039   5.333  1.00 41.53     0.066 C 
HETATM   27  C25 8UH N1621     -32.745 129.003   6.155  1.00 37.72    -0.074 C 
HETATM   28  C26 8UH N1621     -33.768 128.570   6.891  1.00 43.52    -0.048 C 
HETATM   29  C27 8UH N1621     -34.371 129.408   7.953  1.00 44.60     0.009 C 
HETATM   30  C28 8UH N1621     -35.266 130.352   7.687  1.00 43.22     0.007 C 
HETATM   31  C29 8UH N1621     -35.888 131.145   8.760  1.00 51.88    -0.062 C 
HETATM   32  C30 8UH N1621     -36.849 132.002   8.397  1.00 51.88     0.007 C 
HETATM   33  C31 8UH N1621     -37.577 132.870   9.314  1.00 51.88     0.001 C 
HETATM   34  C32 8UH N1621     -37.951 134.063   8.855  1.00 51.88     0.007 C 
HETATM   35  C33 8UH N1621     -38.695 135.017   9.690  1.00 51.88    -0.062 C 
HETATM   36  C34 8UH N1621     -39.065 136.210   9.200  1.00 51.88     0.007 C 
HETATM   37  C35 8UH N1621     -39.819 137.181   9.989  1.00 51.88     0.001 C 
HETATM   38  C36 8UH N1621     -34.103 126.281   7.913  1.00 47.48     0.020 C 
HETATM   39  C37 8UH N1621     -35.844 127.409   6.547  1.00 54.25     0.020 C 
HETATM   40  C38 8UH N1621     -31.962 130.223   6.509  1.00 37.77     0.044 C 
HETATM   41  C39 8UH N1621     -35.453 130.990  10.184  1.00 51.88     0.048 C 
HETATM   42  C40 8UH N1621     -39.027 134.625  11.086  1.00 51.88     0.048 C 
HETATM   43  O23 8UH N1621     -32.178 126.247   3.771  1.00 48.83    -0.395 OA
ATOM     44  H23 8UH N1621     -31.609 126.728   3.182  1.00  0.00     0.210 HD
ENDROOT
TORSDOF 12
BEGIN_RES PHE A  61
REMARK  2 active torsions:
REMARK  status: ('A' for Active; 'I' for Inactive)
REMARK    1  A    between atoms: CA   and  CB  
REMARK    2  A    between atoms: CB   and  CG  
ROOT
ATOM      1  CA  PHE A  61     -36.237 128.293  12.768  1.00 39.40     0.164 C 
ENDROOT
BRANCH   1   2
ATOM      2  CB  PHE A  61     -36.813 128.951  11.509  1.00 39.41     0.058 C 
BRANCH   2   3
ATOM      3  CG  PHE A  61     -37.103 127.991  10.380  1.00 39.01    -0.020 A 
ATOM      4  CD2 PHE A  61     -36.411 126.795  10.267  1.00 40.32    -0.004 A 
ATOM      5  CE2 PHE A  61     -36.677 125.914   9.226  1.00 40.20    -0.000 A 
ATOM      6  CZ  PHE A  61     -37.639 126.217   8.290  1.00 40.34    -0.000 A 
ATOM      7  CE1 PHE A  61     -38.337 127.400   8.389  1.00 41.51    -0.000 A 
ATOM      8  CD1 PHE A  61     -38.067 128.284   9.426  1.00 39.94    -0.004 A 
ENDBRANCH   2   3
ENDBRANCH   1   2
END_RES PHE A  61
BEGIN_RES VAL A 134
REMARK  1 active torsions:
REMARK  status: ('A' for Active; 'I' for Inactive)
REMARK    3  A    between atoms: CA   and  CB  
ROOT
ATOM      9  CA  VAL A 134     -29.766 132.051   9.815  1.00 40.75     0.159 C 
ENDROOT
BRANCH   9  10
ATOM     10  CB  VAL A 134     -30.864 132.765   9.009  1.00 40.76     0.029 C 
ATOM     11  CG1 VAL A 134     -30.848 132.310   7.557  1.00 41.76     0.002 C 
ATOM     12  CG2 VAL A 134     -32.239 132.556   9.626  1.00 40.56     0.002 C 
ENDBRANCH   9  10
END_RES VAL A 134
BEGIN_RES TYR A 338
REMARK  3 active torsions:
REMARK  status: ('A' for Active; 'I' for Inactive)
REMARK    4  A    between atoms: CA   and  CB  
REMARK    5  A    between atoms: CB   and  CG  
REMARK    6  A    between atoms: CZ   and  OH  
ROOT
ATOM     13  CA  TYR A 338     -41.631 124.950   6.058  1.00 38.23     0.164 C 
ENDROOT
BRANCH  13  14
ATOM     14  CB  TYR A 338     -41.621 126.456   6.339  1.00 39.15     0.058 C 
BRANCH  14  15
ATOM     15  CG  TYR A 338     -40.415 127.211   5.828  1.00 39.03    -0.020 A 
ATOM     16  CD2 TYR A 338     -40.239 128.547   6.144  1.00 40.65    -0.002 A 
ATOM     17  CE2 TYR A 338     -39.154 129.274   5.680  1.00 40.91     0.024 A 
ATOM     18  CZ  TYR A 338     -38.211 128.662   4.876  1.00 42.33     0.089 A 
ATOM     19  CE1 TYR A 338     -38.363 127.326   4.550  1.00 40.63     0.024 A 
ATOM     20  CD1 TYR A 338     -39.462 126.620   5.013  1.00 39.27    -0.002 A 
BRANCH  18  21
ATOM     21  OH  TYR A 338     -37.135 129.368   4.416  1.00 43.36    -0.359 OA
ATOM     22  HH  TYR A 338     -36.271 128.972   4.402  1.00  0.00     0.217 HD
ENDBRANCH  18  21
ENDBRANCH  14  15
ENDBRANCH  13  14
END_RES TYR A 338
ENDMDL
