MODEL 1
REMARK VINA RESULT:    -9.698      0.000      0.000
REMARK INTER + INTRA:         -12.059
REMARK INTER:                  -9.698
REMARK INTRA:                  -2.361
REMARK UNBOUND:                -2.361
REMARK  0 active torsions:
REMARK  status: ('A' for Active; 'I' for Inactive)
REMARK       I    between atoms: C3_3  and  O3_21 
REMARK       I    between atoms: C6_6  and  C7_7 
REMARK       I    between atoms: C8_8  and  C9_9 
REMARK       I    between atoms: C10_10  and  C11_11 
REMARK       I    between atoms: C12_12  and  C13_13 
REMARK       I    between atoms: C14_14  and  C15_15 
REMARK       I    between atoms: C23_25  and  O23_43 
REMARK       I    between atoms: C26_28  and  C27_29 
REMARK       I    between atoms: C28_30  and  C29_31 
REMARK       I    between atoms: C30_32  and  C31_33 
REMARK       I    between atoms: C32_34  and  C33_35 
REMARK       I    between atoms: C34_36  and  C35_37 
ROOT
HETATM    1  C1  8UH a 617     -34.223 127.085   6.557  1.00 53.78    -0.018 C 
HETATM    2  C2  8UH a 617     -34.224 127.203   5.033  1.00 53.78     0.045 C 
HETATM    3  C3  8UH a 617     -33.119 128.070   4.441  1.00 53.78     0.123 C 
HETATM    4  C4  8UH a 617     -31.962 128.191   5.417  1.00 53.78     0.066 C 
HETATM    5  C5  8UH a 617     -32.530 128.851   6.638  1.00 53.78    -0.074 C 
HETATM    6  C6  8UH a 617     -33.560 128.255   7.243  1.00 53.78    -0.048 C 
HETATM    7  C7  8UH a 617     -34.199 128.852   8.429  1.00 53.78     0.009 C 
HETATM    8  C8  8UH a 617     -34.452 130.152   8.284  1.00 53.78     0.007 C 
HETATM    9  C9  8UH a 617     -35.261 130.898   9.263  1.00 53.78    -0.062 C 
HETATM   10  C10 8UH a 617     -35.762 132.066   8.837  1.00 53.78     0.007 C 
HETATM   11  C11 8UH a 617     -36.685 132.893   9.605  1.00 53.78     0.001 C 
HETATM   12  C12 8UH a 617     -37.286 133.907   8.994  1.00 53.78     0.007 C 
HETATM   13  C13 8UH a 617     -38.293 134.743   9.667  1.00 53.78    -0.062 C 
HETATM   14  C14 8UH a 617     -38.955 135.613   8.892  1.00 53.78     0.007 C 
HETATM   15  C15 8UH a 617     -40.013 136.508   9.346  1.00 53.78     0.001 C 
HETATM   16  C16 8UH a 617     -33.419 125.850   6.955  1.00 53.78     0.020 C 
HETATM   17  C17 8UH a 617     -35.650 126.941   7.071  1.00 53.78     0.020 C 
HETATM   18  C18 8UH a 617     -31.579 129.790   7.347  1.00 53.78     0.044 C 
HETATM   19  C19 8UH a 617     -35.520 130.329  10.629  1.00 53.78     0.048 C 
HETATM   20  C20 8UH a 617     -38.541 134.562  11.135  1.00 53.78     0.048 C 
HETATM   21  O3  8UH a 617     -32.638 127.492   3.225  1.00 53.78    -0.395 OA
ATOM     22  H3  8UH a 617     -33.362 127.416   2.614  1.00  0.00     0.210 HD
HETATM   23  C21 8UH a 617     -49.683 144.790   9.678  1.00 19.12    -0.018 C 
HETATM   24  C22 8UH a 617     -50.545 145.632  10.641  1.00 18.29     0.045 C 
HETATM   25  C23 8UH a 617     -49.829 146.336  11.796  1.00 18.54     0.123 C 
HETATM   26  C24 8UH a 617     -48.466 146.906  11.404  1.00 18.55     0.066 C 
HETATM   27  C25 8UH a 617     -47.617 146.110  10.467  1.00 18.97    -0.074 C 
HETATM   28  C26 8UH a 617     -48.155 145.123   9.653  1.00 18.68    -0.048 C 
HETATM   29  C27 8UH a 617     -47.331 144.348   8.714  1.00 18.46     0.009 C 
HETATM   30  C28 8UH a 617     -46.505 143.332   8.986  1.00 18.89     0.007 C 
HETATM   31  C29 8UH a 617     -45.606 142.672   8.058  1.00 53.78    -0.062 C 
HETATM   32  C30 8UH a 617     -44.904 141.650   8.563  1.00 53.78     0.007 C 
HETATM   33  C31 8UH a 617     -43.939 140.839   7.835  1.00 53.78     0.001 C 
HETATM   34  C32 8UH a 617     -43.310 139.908   8.541  1.00 53.78     0.007 C 
HETATM   35  C33 8UH a 617     -42.277 139.034   7.970  1.00 53.78    -0.062 C 
HETATM   36  C34 8UH a 617     -41.650 138.207   8.827  1.00 53.78     0.007 C 
HETATM   37  C35 8UH a 617     -40.585 137.287   8.439  1.00 53.78     0.001 C 
HETATM   38  C36 8UH a 617     -50.314 145.040   8.299  1.00 19.29     0.020 C 
HETATM   39  C37 8UH a 617     -49.897 143.304  10.020  1.00 16.00     0.020 C 
HETATM   40  C38 8UH a 617     -46.220 146.619  10.606  1.00 17.87     0.044 C 
HETATM   41  C39 8UH a 617     -45.544 143.133   6.632  1.00 53.78     0.048 C 
HETATM   42  C40 8UH a 617     -41.971 139.136   6.505  1.00 53.78     0.048 C 
HETATM   43  O23 8UH a 617     -50.650 147.362  12.335  1.00 19.42    -0.395 OA
ATOM     44  H23 8UH a 617     -50.206 147.800  13.052  1.00  0.00     0.210 HD
ENDROOT
TORSDOF 12
BEGIN_RES PHE A  61
REMARK  2 active torsions:
REMARK  status: ('A' for Active; 'I' for Inactive)
REMARK    1  A    between atoms: CA   and  CB  
REMARK    2  A    between atoms: CB   and  CG  
ROOT
ATOM      1  CA  PHE A  61     -36.237 128.293  12.768  1.00 39.40     0.164 C 
ENDROOT
BRANCH   1   2
ATOM      2  CB  PHE A  61     -36.813 128.951  11.509  1.00 39.41     0.058 C 
BRANCH   2   3
ATOM      3  CG  PHE A  61     -37.106 127.991  10.381  1.00 39.01    -0.020 A 
ATOM      4  CD2 PHE A  61     -36.393 126.809  10.249  1.00 40.32    -0.004 A 
ATOM      5  CE2 PHE A  61     -36.662 125.928   9.209  1.00 40.20    -0.000 A 
ATOM      6  CZ  PHE A  61     -37.647 126.216   8.293  1.00 40.34    -0.000 A 
ATOM      7  CE1 PHE A  61     -38.366 127.385   8.411  1.00 41.51    -0.000 A 
ATOM      8  CD1 PHE A  61     -38.094 128.269   9.447  1.00 39.94    -0.004 A 
ENDBRANCH   2   3
ENDBRANCH   1   2
END_RES PHE A  61
BEGIN_RES VAL A 134
REMARK  1 active torsions:
REMARK  status: ('A' for Active; 'I' for Inactive)
REMARK    3  A    between atoms: CA   and  CB  
ROOT
ATOM      9  CA  VAL A 134     -29.766 132.051   9.815  1.00 40.75     0.159 C 
ENDROOT
BRANCH   9  10
ATOM     10  CB  VAL A 134     -30.864 132.765   9.009  1.00 40.76     0.029 C 
ATOM     11  CG1 VAL A 134     -30.932 132.219   7.590  1.00 41.76     0.002 C 
ATOM     12  CG2 VAL A 134     -32.219 132.662   9.693  1.00 40.56     0.002 C 
ENDBRANCH   9  10
END_RES VAL A 134
BEGIN_RES TYR A 338
REMARK  3 active torsions:
REMARK  status: ('A' for Active; 'I' for Inactive)
REMARK    4  A    between atoms: CA   and  CB  
REMARK    5  A    between atoms: CB   and  CG  
REMARK    6  A    between atoms: CZ   and  OH  
ROOT
ATOM     13  CA  TYR A 338     -41.631 124.950   6.058  1.00 38.23     0.164 C 
ENDROOT
BRANCH  13  14
ATOM     14  CB  TYR A 338     -41.621 126.456   6.339  1.00 39.15     0.058 C 
BRANCH  14  15
ATOM     15  CG  TYR A 338     -40.392 127.202   5.872  1.00 39.03    -0.020 A 
ATOM     16  CD2 TYR A 338     -40.231 128.544   6.173  1.00 40.65    -0.002 A 
ATOM     17  CE2 TYR A 338     -39.125 129.264   5.748  1.00 40.91     0.024 A 
ATOM     18  CZ  TYR A 338     -38.146 128.638   4.999  1.00 42.33     0.089 A 
ATOM     19  CE1 TYR A 338     -38.282 127.296   4.690  1.00 40.63     0.024 A 
ATOM     20  CD1 TYR A 338     -39.402 126.598   5.114  1.00 39.27    -0.002 A 
BRANCH  18  21
ATOM     21  OH  TYR A 338     -37.049 129.336   4.579  1.00 43.36    -0.359 OA
ATOM     22  HH  TYR A 338     -36.718 130.066   5.090  1.00  0.00     0.217 HD
ENDBRANCH  18  21
ENDBRANCH  14  15
ENDBRANCH  13  14
END_RES TYR A 338
ENDMDL
MODEL 2
REMARK VINA RESULT:    -9.313      1.159     16.541
REMARK INTER + INTRA:         -11.675
REMARK INTER:                 -11.587
REMARK INTRA:                  -0.088
REMARK UNBOUND:                -2.361
REMARK  0 active torsions:
REMARK  status: ('A' for Active; 'I' for Inactive)
REMARK       I    between atoms: C3_3  and  O3_21 
REMARK       I    between atoms: C6_6  and  C7_7 
REMARK       I    between atoms: C8_8  and  C9_9 
REMARK       I    between atoms: C10_10  and  C11_11 
REMARK       I    between atoms: C12_12  and  C13_13 
REMARK       I    between atoms: C14_14  and  C15_15 
REMARK       I    between atoms: C23_25  and  O23_43 
REMARK       I    between atoms: C26_28  and  C27_29 
REMARK       I    between atoms: C28_30  and  C29_31 
REMARK       I    between atoms: C30_32  and  C31_33 
REMARK       I    between atoms: C32_34  and  C33_35 
REMARK       I    between atoms: C34_36  and  C35_37 
ROOT
HETATM    1  C1  8UH a 617     -50.127 145.068  11.343  1.00 53.78    -0.018 C 
HETATM    2  C2  8UH a 617     -50.290 144.707  12.820  1.00 53.78     0.045 C 
HETATM    3  C3  8UH a 617     -49.422 145.502  13.789  1.00 53.78     0.123 C 
HETATM    4  C4  8UH a 617     -48.991 146.814  13.158  1.00 53.78     0.066 C 
HETATM    5  C5  8UH a 617     -48.190 146.438  11.947  1.00 53.78    -0.074 C 
HETATM    6  C6  8UH a 617     -48.782 145.676  11.025  1.00 53.78    -0.048 C 
HETATM    7  C7  8UH a 617     -48.058 145.234   9.820  1.00 53.78     0.009 C 
HETATM    8  C8  8UH a 617     -46.845 144.754  10.090  1.00 53.78     0.007 C 
HETATM    9  C9  8UH a 617     -46.033 144.078   9.065  1.00 53.78    -0.062 C 
HETATM   10  C10 8UH a 617     -45.028 143.318   9.522  1.00 53.78     0.007 C 
HETATM   11  C11 8UH a 617     -44.188 142.473   8.683  1.00 53.78     0.001 C 
HETATM   12  C12 8UH a 617     -43.379 141.599   9.270  1.00 53.78     0.007 C 
HETATM   13  C13 8UH a 617     -42.558 140.650   8.502  1.00 53.78    -0.062 C 
HETATM   14  C14 8UH a 617     -41.927 139.704   9.210  1.00 53.78     0.007 C 
HETATM   15  C15 8UH a 617     -41.093 138.647   8.647  1.00 53.78     0.001 C 
HETATM   16  C16 8UH a 617     -51.167 146.123  10.977  1.00 53.78     0.020 C 
HETATM   17  C17 8UH a 617     -50.341 143.832  10.477  1.00 53.78     0.020 C 
HETATM   18  C18 8UH a 617     -47.034 147.364  11.644  1.00 53.78     0.044 C 
HETATM   19  C19 8UH a 617     -46.370 144.224   7.608  1.00 53.78     0.048 C 
HETATM   20  C20 8UH a 617     -42.496 140.769   7.009  1.00 53.78     0.048 C 
HETATM   21  O3  8UH a 617     -50.153 145.783  14.986  1.00 53.78    -0.395 OA
ATOM     22  H3  8UH a 617     -50.422 144.961  15.380  1.00  0.00     0.210 HD
HETATM   23  C21 8UH a 617     -34.072 128.124   7.176  1.00 19.12    -0.018 C 
HETATM   24  C22 8UH a 617     -33.175 127.378   6.166  1.00 18.29     0.045 C 
HETATM   25  C23 8UH a 617     -32.194 128.215   5.342  1.00 18.54     0.123 C 
HETATM   26  C24 8UH a 617     -31.550 129.349   6.139  1.00 18.55     0.066 C 
HETATM   27  C25 8UH a 617     -32.399 130.081   7.127  1.00 18.97    -0.074 C 
HETATM   28  C26 8UH a 617     -33.574 129.536   7.627  1.00 18.68    -0.048 C 
HETATM   29  C27 8UH a 617     -34.406 130.240   8.614  1.00 18.46     0.009 C 
HETATM   30  C28 8UH a 617     -35.252 131.254   8.406  1.00 18.89     0.007 C 
HETATM   31  C29 8UH a 617     -35.960 132.014   9.418  1.00 53.78    -0.062 C 
HETATM   32  C30 8UH a 617     -36.784 132.963   8.955  1.00 53.78     0.007 C 
HETATM   33  C31 8UH a 617     -37.596 133.855   9.770  1.00 53.78     0.001 C 
HETATM   34  C32 8UH a 617     -38.304 134.764   9.110  1.00 53.78     0.007 C 
HETATM   35  C33 8UH a 617     -39.141 135.767   9.782  1.00 53.78    -0.062 C 
HETATM   36  C34 8UH a 617     -39.719 136.691   8.994  1.00 53.78     0.007 C 
HETATM   37  C35 8UH a 617     -40.565 137.772   9.491  1.00 53.78     0.001 C 
HETATM   38  C36 8UH a 617     -34.153 127.168   8.377  1.00 19.29     0.020 C 
HETATM   39  C37 8UH a 617     -35.486 128.227   6.573  1.00 16.00     0.020 C 
HETATM   40  C38 8UH a 617     -31.715 131.376   7.415  1.00 17.87     0.044 C 
HETATM   41  C39 8UH a 617     -35.763 131.682  10.867  1.00 53.78     0.048 C 
HETATM   42  C40 8UH a 617     -39.273 135.717  11.275  1.00 53.78     0.048 C 
HETATM   43  O23 8UH a 617     -31.190 127.385   4.776  1.00 19.42    -0.395 OA
ATOM     44  H23 8UH a 617     -30.580 127.905   4.264  1.00  0.00     0.210 HD
ENDROOT
TORSDOF 12
BEGIN_RES PHE A  61
REMARK  2 active torsions:
REMARK  status: ('A' for Active; 'I' for Inactive)
REMARK    1  A    between atoms: CA   and  CB  
REMARK    2  A    between atoms: CB   and  CG  
ROOT
ATOM      1  CA  PHE A  61     -36.237 128.293  12.768  1.00 39.40     0.164 C 
ENDROOT
BRANCH   1   2
ATOM      2  CB  PHE A  61     -36.813 128.951  11.509  1.00 39.41     0.058 C 
BRANCH   2   3
ATOM      3  CG  PHE A  61     -37.047 128.000  10.360  1.00 39.01    -0.020 A 
ATOM      4  CD2 PHE A  61     -36.342 126.811  10.265  1.00 40.32    -0.004 A 
ATOM      5  CE2 PHE A  61     -36.557 125.939   9.205  1.00 40.20    -0.000 A 
ATOM      6  CZ  PHE A  61     -37.480 126.243   8.231  1.00 40.34    -0.000 A 
ATOM      7  CE1 PHE A  61     -38.191 127.420   8.312  1.00 41.51    -0.000 A 
ATOM      8  CD1 PHE A  61     -37.972 128.296   9.368  1.00 39.94    -0.004 A 
ENDBRANCH   2   3
ENDBRANCH   1   2
END_RES PHE A  61
BEGIN_RES VAL A 134
REMARK  1 active torsions:
REMARK  status: ('A' for Active; 'I' for Inactive)
REMARK    3  A    between atoms: CA   and  CB  
ROOT
ATOM      9  CA  VAL A 134     -29.766 132.051   9.815  1.00 40.75     0.159 C 
ENDROOT
BRANCH   9  10
ATOM     10  CB  VAL A 134     -30.864 132.765   9.009  1.00 40.76     0.029 C 
ATOM     11  CG1 VAL A 134     -32.122 132.937   9.848  1.00 41.76     0.002 C 
ATOM     12  CG2 VAL A 134     -30.385 134.105   8.473  1.00 40.56     0.002 C 
ENDBRANCH   9  10
END_RES VAL A 134
BEGIN_RES TYR A 338
REMARK  3 active torsions:
REMARK  status: ('A' for Active; 'I' for Inactive)
REMARK    4  A    between atoms: CA   and  CB  
REMARK    5  A    between atoms: CB   and  CG  
REMARK    6  A    between atoms: CZ   and  OH  
ROOT
ATOM     13  CA  TYR A 338     -41.631 124.950   6.058  1.00 38.23     0.164 C 
ENDROOT
BRANCH  13  14
ATOM     14  CB  TYR A 338     -41.621 126.456   6.339  1.00 39.15     0.058 C 
BRANCH  14  15
ATOM     15  CG  TYR A 338     -40.420 127.212   5.820  1.00 39.03    -0.020 A 
ATOM     16  CD2 TYR A 338     -40.265 128.559   6.101  1.00 40.65    -0.002 A 
ATOM     17  CE2 TYR A 338     -39.184 129.287   5.628  1.00 40.91     0.024 A 
ATOM     18  CZ  TYR A 338     -38.224 128.666   4.852  1.00 42.33     0.089 A 
ATOM     19  CE1 TYR A 338     -38.354 127.319   4.562  1.00 40.63     0.024 A 
ATOM     20  CD1 TYR A 338     -39.449 126.611   5.033  1.00 39.27    -0.002 A 
BRANCH  18  21
ATOM     21  OH  TYR A 338     -37.152 129.373   4.385  1.00 43.36    -0.359 OA
ATOM     22  HH  TYR A 338     -37.021 129.486   3.451  1.00  0.00     0.217 HD
ENDBRANCH  18  21
ENDBRANCH  14  15
ENDBRANCH  13  14
END_RES TYR A 338
ENDMDL
