MODEL 1
REMARK VINA RESULT:    -9.386      0.000      0.000
REMARK INTER + INTRA:         -11.904
REMARK INTER:                  -9.386
REMARK INTRA:                  -2.518
REMARK UNBOUND:                -2.518
REMARK  0 active torsions:
REMARK  status: ('A' for Active; 'I' for Inactive)
REMARK       I    between atoms: C3_3  and  O3_21 
REMARK       I    between atoms: C6_6  and  C7_7 
REMARK       I    between atoms: C8_8  and  C9_9 
REMARK       I    between atoms: C10_10  and  C11_11 
REMARK       I    between atoms: C12_12  and  C13_13 
REMARK       I    between atoms: C14_14  and  C15_15 
REMARK       I    between atoms: C23_25  and  O23_43 
REMARK       I    between atoms: C26_28  and  C27_29 
REMARK       I    between atoms: C28_30  and  C29_31 
REMARK       I    between atoms: C30_32  and  C31_33 
REMARK       I    between atoms: C32_34  and  C33_35 
REMARK       I    between atoms: C34_36  and  C35_37 
ROOT
HETATM    1  C1  8UH 1 316     -34.430 126.942   6.396  1.00 73.24    -0.018 C 
HETATM    2  C2  8UH 1 316     -33.995 126.341   5.057  1.00 72.84     0.045 C 
HETATM    3  C3  8UH 1 316     -32.921 127.096   4.283  1.00 72.53     0.123 C 
HETATM    4  C4  8UH 1 316     -31.842 127.584   5.231  1.00 72.61     0.066 C 
HETATM    5  C5  8UH 1 316     -32.463 128.473   6.275  1.00 72.68    -0.074 C 
HETATM    6  C6  8UH 1 316     -33.612 128.135   6.861  1.00 72.79    -0.048 C 
HETATM    7  C7  8UH 1 316     -34.120 128.943   7.996  1.00 71.90     0.009 C 
HETATM    8  C8  8UH 1 316     -34.821 130.059   7.772  1.00 71.51     0.007 C 
HETATM    9  C9  8UH 1 316     -35.357 130.902   8.862  1.00 70.48    -0.062 C 
HETATM   10  C10 8UH 1 316     -36.098 131.969   8.527  1.00 69.46     0.007 C 
HETATM   11  C11 8UH 1 316     -36.703 132.895   9.482  1.00 69.85     0.001 C 
HETATM   12  C12 8UH 1 316     -37.435 133.882   8.966  1.00 72.15     0.007 C 
HETATM   13  C13 8UH 1 316     -38.140 134.907   9.765  1.00 73.74    -0.062 C 
HETATM   14  C14 8UH 1 316     -39.039 135.683   9.132  1.00 74.04     0.007 C 
HETATM   15  C15 8UH 1 316     -39.823 136.716   9.806  1.00 74.62     0.001 C 
HETATM   16  C16 8UH 1 316     -34.338 125.850   7.455  1.00 72.68     0.020 C 
HETATM   17  C17 8UH 1 316     -35.879 127.397   6.266  1.00 73.05     0.020 C 
HETATM   18  C18 8UH 1 316     -31.589 129.542   6.866  1.00 72.13     0.044 C 
HETATM   19  C19 8UH 1 316     -35.070 130.577  10.299  1.00 70.45     0.048 C 
HETATM   20  C20 8UH 1 316     -37.859 135.076  11.232  1.00 72.89     0.048 C 
HETATM   21  O3  8UH 1 316     -32.334 126.223   3.309  1.00 71.04    -0.395 OA
ATOM     22  H3  8UH 1 316     -33.011 125.917   2.715  1.00  0.00     0.210 HD
HETATM   23  C21 8UH 1 316     -49.540 144.804  11.911  1.00 37.60    -0.018 C 
HETATM   24  C22 8UH 1 316     -50.249 145.744  12.871  1.00 37.60     0.045 C 
HETATM   25  C23 8UH 1 316     -49.362 146.602  13.743  1.00 37.60     0.123 C 
HETATM   26  C24 8UH 1 316     -48.331 147.288  12.885  1.00 37.60     0.066 C 
HETATM   27  C25 8UH 1 316     -47.573 146.326  12.021  1.00 37.60    -0.074 C 
HETATM   28  C26 8UH 1 316     -48.141 145.225  11.508  1.00 37.60    -0.048 C 
HETATM   29  C27 8UH 1 316     -47.439 144.401  10.486  1.00 37.60     0.009 C 
HETATM   30  C28 8UH 1 316     -46.524 143.474  10.788  1.00 37.60     0.007 C 
HETATM   31  C29 8UH 1 316     -45.854 142.663   9.760  1.00 94.72    -0.062 C 
HETATM   32  C30 8UH 1 316     -44.965 141.748  10.168  1.00 91.32     0.007 C 
HETATM   33  C31 8UH 1 316     -44.238 140.858   9.265  1.00 87.88     0.001 C 
HETATM   34  C32 8UH 1 316     -43.307 140.086   9.820  1.00 84.19     0.007 C 
HETATM   35  C33 8UH 1 316     -42.494 139.107   9.079  1.00 80.79    -0.062 C 
HETATM   36  C34 8UH 1 316     -41.550 138.420   9.749  1.00 78.84     0.007 C 
HETATM   37  C35 8UH 1 316     -40.722 137.405   9.101  1.00 76.79     0.001 C 
HETATM   38  C36 8UH 1 316     -50.474 144.636  10.723  1.00 37.60     0.020 C 
HETATM   39  C37 8UH 1 316     -49.388 143.460  12.581  1.00 37.60     0.020 C 
HETATM   40  C38 8UH 1 316     -46.270 146.879  11.533  1.00 37.60     0.044 C 
HETATM   41  C39 8UH 1 316     -46.168 142.847   8.306  1.00 95.37     0.048 C 
HETATM   42  C40 8UH 1 316     -42.738 138.870   7.618  1.00 90.13     0.048 C 
HETATM   43  O23 8UH 1 316     -50.166 147.624  14.328  1.00 37.60    -0.395 OA
ATOM     44  H23 8UH 1 316     -50.816 147.192  14.869  1.00  0.00     0.210 HD
ENDROOT
TORSDOF 12
BEGIN_RES PHE A  61
REMARK  2 active torsions:
REMARK  status: ('A' for Active; 'I' for Inactive)
REMARK    1  A    between atoms: CA   and  CB  
REMARK    2  A    between atoms: CB   and  CG  
ROOT
ATOM      1  CA  PHE A  61     -36.237 128.293  12.768  1.00 39.40     0.164 C 
ENDROOT
BRANCH   1   2
ATOM      2  CB  PHE A  61     -36.813 128.951  11.509  1.00 39.41     0.058 C 
BRANCH   2   3
ATOM      3  CG  PHE A  61     -37.070 127.996  10.368  1.00 39.01    -0.020 A 
ATOM      4  CD2 PHE A  61     -36.350 126.818  10.249  1.00 40.32    -0.004 A 
ATOM      5  CE2 PHE A  61     -36.585 125.942   9.197  1.00 40.20    -0.000 A 
ATOM      6  CZ  PHE A  61     -37.546 126.232   8.255  1.00 40.34    -0.000 A 
ATOM      7  CE1 PHE A  61     -38.272 127.397   8.360  1.00 41.51    -0.000 A 
ATOM      8  CD1 PHE A  61     -38.032 128.277   9.408  1.00 39.94    -0.004 A 
ENDBRANCH   2   3
ENDBRANCH   1   2
END_RES PHE A  61
BEGIN_RES VAL A 134
REMARK  1 active torsions:
REMARK  status: ('A' for Active; 'I' for Inactive)
REMARK    3  A    between atoms: CA   and  CB  
ROOT
ATOM      9  CA  VAL A 134     -29.766 132.051   9.815  1.00 40.75     0.159 C 
ENDROOT
BRANCH   9  10
ATOM     10  CB  VAL A 134     -30.864 132.765   9.009  1.00 40.76     0.029 C 
ATOM     11  CG1 VAL A 134     -30.904 132.247   7.579  1.00 41.76     0.002 C 
ATOM     12  CG2 VAL A 134     -32.226 132.628   9.672  1.00 40.56     0.002 C 
ENDBRANCH   9  10
END_RES VAL A 134
BEGIN_RES TYR A 338
REMARK  3 active torsions:
REMARK  status: ('A' for Active; 'I' for Inactive)
REMARK    4  A    between atoms: CA   and  CB  
REMARK    5  A    between atoms: CB   and  CG  
REMARK    6  A    between atoms: CZ   and  OH  
ROOT
ATOM     13  CA  TYR A 338     -41.631 124.950   6.058  1.00 38.23     0.164 C 
ENDROOT
BRANCH  13  14
ATOM     14  CB  TYR A 338     -41.621 126.456   6.339  1.00 39.15     0.058 C 
BRANCH  14  15
ATOM     15  CG  TYR A 338     -40.423 127.213   5.815  1.00 39.03    -0.020 A 
ATOM     16  CD2 TYR A 338     -40.251 128.553   6.121  1.00 40.65    -0.002 A 
ATOM     17  CE2 TYR A 338     -39.173 129.282   5.645  1.00 40.91     0.024 A 
ATOM     18  CZ  TYR A 338     -38.232 128.669   4.838  1.00 42.33     0.089 A 
ATOM     19  CE1 TYR A 338     -38.379 127.330   4.522  1.00 40.63     0.024 A 
ATOM     20  CD1 TYR A 338     -39.472 126.621   4.998  1.00 39.27    -0.002 A 
BRANCH  18  21
ATOM     21  OH  TYR A 338     -37.162 129.377   4.367  1.00 43.36    -0.359 OA
ATOM     22  HH  TYR A 338     -36.479 129.667   4.960  1.00  0.00     0.217 HD
ENDBRANCH  18  21
ENDBRANCH  14  15
ENDBRANCH  13  14
END_RES TYR A 338
ENDMDL
MODEL 2
REMARK VINA RESULT:    -7.988      0.931     16.921
REMARK INTER + INTRA:         -10.506
REMARK INTER:                 -10.453
REMARK INTRA:                  -0.053
REMARK UNBOUND:                -2.518
REMARK  0 active torsions:
REMARK  status: ('A' for Active; 'I' for Inactive)
REMARK       I    between atoms: C3_3  and  O3_21 
REMARK       I    between atoms: C6_6  and  C7_7 
REMARK       I    between atoms: C8_8  and  C9_9 
REMARK       I    between atoms: C10_10  and  C11_11 
REMARK       I    between atoms: C12_12  and  C13_13 
REMARK       I    between atoms: C14_14  and  C15_15 
REMARK       I    between atoms: C23_25  and  O23_43 
REMARK       I    between atoms: C26_28  and  C27_29 
REMARK       I    between atoms: C28_30  and  C29_31 
REMARK       I    between atoms: C30_32  and  C31_33 
REMARK       I    between atoms: C32_34  and  C33_35 
REMARK       I    between atoms: C34_36  and  C35_37 
ROOT
HETATM    1  C1  8UH 1 316     -50.111 144.897  12.833  1.00 73.24    -0.018 C 
HETATM    2  C2  8UH 1 316     -50.595 145.438  14.182  1.00 72.84     0.045 C 
HETATM    3  C3  8UH 1 316     -49.702 146.465  14.867  1.00 72.53     0.123 C 
HETATM    4  C4  8UH 1 316     -49.169 147.456  13.850  1.00 72.61     0.066 C 
HETATM    5  C5  8UH 1 316     -48.401 146.714  12.789  1.00 72.68    -0.074 C 
HETATM    6  C6  8UH 1 316     -48.876 145.580  12.272  1.00 72.79    -0.048 C 
HETATM    7  C7  8UH 1 316     -48.181 144.955  11.120  1.00 71.90     0.009 C 
HETATM    8  C8  8UH 1 316     -47.125 144.161  11.316  1.00 71.51     0.007 C 
HETATM    9  C9  8UH 1 316     -46.396 143.507  10.209  1.00 70.48    -0.062 C 
HETATM   10  C10 8UH 1 316     -45.386 142.681  10.521  1.00 69.46     0.007 C 
HETATM   11  C11 8UH 1 316     -44.574 141.955   9.546  1.00 69.85     0.001 C 
HETATM   12  C12 8UH 1 316     -43.632 141.154  10.042  1.00 72.15     0.007 C 
HETATM   13  C13 8UH 1 316     -42.721 140.324   9.223  1.00 73.74    -0.062 C 
HETATM   14  C14 8UH 1 316     -41.998 139.381   9.854  1.00 74.04     0.007 C 
HETATM   15  C15 8UH 1 316     -41.081 138.477   9.162  1.00 74.62     0.001 C 
HETATM   16  C16 8UH 1 316     -51.246 145.052  11.829  1.00 72.68     0.020 C 
HETATM   17  C17 8UH 1 316     -49.786 143.418  13.002  1.00 73.05     0.020 C 
HETATM   18  C18 8UH 1 316     -47.290 147.460  12.107  1.00 72.13     0.044 C 
HETATM   19  C19 8UH 1 316     -46.773 143.767   8.780  1.00 70.45     0.048 C 
HETATM   20  C20 8UH 1 316     -42.608 140.532   7.738  1.00 72.89     0.048 C 
HETATM   21  O3  8UH 1 316     -50.462 147.169  15.860  1.00 71.04    -0.395 OA
ATOM     22  H3  8UH 1 316     -50.795 146.548  16.497  1.00  0.00     0.210 HD
HETATM   23  C21 8UH 1 316     -34.053 127.966   7.067  1.00 37.60    -0.018 C 
HETATM   24  C22 8UH 1 316     -33.237 127.135   6.092  1.00 37.60     0.045 C 
HETATM   25  C23 8UH 1 316     -32.351 127.902   5.139  1.00 37.60     0.123 C 
HETATM   26  C24 8UH 1 316     -31.526 128.897   5.915  1.00 37.60     0.066 C 
HETATM   27  C25 8UH 1 316     -32.364 129.775   6.793  1.00 37.60    -0.074 C 
HETATM   28  C26 8UH 1 316     -33.483 129.334   7.387  1.00 37.60    -0.048 C 
HETATM   29  C27 8UH 1 316     -34.181 130.149   8.419  1.00 37.60     0.009 C 
HETATM   30  C28 8UH 1 316     -35.035 131.135   8.125  1.00 37.60     0.007 C 
HETATM   31  C29 8UH 1 316     -35.723 131.918   9.164  1.00 94.72    -0.062 C 
HETATM   32  C30 8UH 1 316     -36.572 132.873   8.765  1.00 91.32     0.007 C 
HETATM   33  C31 8UH 1 316     -37.340 133.715   9.680  1.00 87.88     0.001 C 
HETATM   34  C32 8UH 1 316     -38.052 134.692   9.125  1.00 84.19     0.007 C 
HETATM   35  C33 8UH 1 316     -38.910 135.622   9.880  1.00 80.79    -0.062 C 
HETATM   36  C34 8UH 1 316     -39.543 136.601   9.206  1.00 78.84     0.007 C 
HETATM   37  C35 8UH 1 316     -40.439 137.545   9.869  1.00 76.79     0.001 C 
HETATM   38  C36 8UH 1 316     -34.240 127.099   8.302  1.00 37.60     0.020 C 
HETATM   39  C37 8UH 1 316     -35.413 128.218   6.462  1.00 37.60     0.020 C 
HETATM   40  C38 8UH 1 316     -31.668 131.038   7.195  1.00 37.60     0.044 C 
HETATM   41  C39 8UH 1 316     -35.488 131.644  10.619  1.00 95.37     0.048 C 
HETATM   42  C40 8UH 1 316     -39.087 135.458  11.360  1.00 90.13     0.048 C 
HETATM   43  O23 8UH 1 316     -31.441 126.984   4.538  1.00 37.60    -0.395 OA
ATOM     44  H23 8UH 1 316     -31.961 126.357   4.049  1.00  0.00     0.210 HD
ENDROOT
TORSDOF 12
BEGIN_RES PHE A  61
REMARK  2 active torsions:
REMARK  status: ('A' for Active; 'I' for Inactive)
REMARK    1  A    between atoms: CA   and  CB  
REMARK    2  A    between atoms: CB   and  CG  
ROOT
ATOM      1  CA  PHE A  61     -36.237 128.293  12.768  1.00 39.40     0.164 C 
ENDROOT
BRANCH   1   2
ATOM      2  CB  PHE A  61     -36.813 128.951  11.509  1.00 39.41     0.058 C 
BRANCH   2   3
ATOM      3  CG  PHE A  61     -37.051 128.000  10.361  1.00 39.01    -0.020 A 
ATOM      4  CD2 PHE A  61     -36.356 126.804  10.272  1.00 40.32    -0.004 A 
ATOM      5  CE2 PHE A  61     -36.574 125.931   9.213  1.00 40.20    -0.000 A 
ATOM      6  CZ  PHE A  61     -37.490 126.241   8.235  1.00 40.34    -0.000 A 
ATOM      7  CE1 PHE A  61     -38.190 127.425   8.310  1.00 41.51    -0.000 A 
ATOM      8  CD1 PHE A  61     -37.968 128.301   9.364  1.00 39.94    -0.004 A 
ENDBRANCH   2   3
ENDBRANCH   1   2
END_RES PHE A  61
BEGIN_RES VAL A 134
REMARK  1 active torsions:
REMARK  status: ('A' for Active; 'I' for Inactive)
REMARK    3  A    between atoms: CA   and  CB  
ROOT
ATOM      9  CA  VAL A 134     -29.766 132.051   9.815  1.00 40.75     0.159 C 
ENDROOT
BRANCH   9  10
ATOM     10  CB  VAL A 134     -30.864 132.765   9.009  1.00 40.76     0.029 C 
ATOM     11  CG1 VAL A 134     -32.119 132.943   9.850  1.00 41.76     0.002 C 
ATOM     12  CG2 VAL A 134     -30.383 134.102   8.467  1.00 40.56     0.002 C 
ENDBRANCH   9  10
END_RES VAL A 134
BEGIN_RES TYR A 338
REMARK  3 active torsions:
REMARK  status: ('A' for Active; 'I' for Inactive)
REMARK    4  A    between atoms: CA   and  CB  
REMARK    5  A    between atoms: CB   and  CG  
REMARK    6  A    between atoms: CZ   and  OH  
ROOT
ATOM     13  CA  TYR A 338     -41.631 124.950   6.058  1.00 38.23     0.164 C 
ENDROOT
BRANCH  13  14
ATOM     14  CB  TYR A 338     -41.621 126.456   6.339  1.00 39.15     0.058 C 
BRANCH  14  15
ATOM     15  CG  TYR A 338     -40.416 127.211   5.826  1.00 39.03    -0.020 A 
ATOM     16  CD2 TYR A 338     -40.263 128.558   6.106  1.00 40.65    -0.002 A 
ATOM     17  CE2 TYR A 338     -39.179 129.286   5.638  1.00 40.91     0.024 A 
ATOM     18  CZ  TYR A 338     -38.215 128.663   4.868  1.00 42.33     0.089 A 
ATOM     19  CE1 TYR A 338     -38.344 127.316   4.579  1.00 40.63     0.024 A 
ATOM     20  CD1 TYR A 338     -39.443 126.609   5.044  1.00 39.27    -0.002 A 
BRANCH  18  21
ATOM     21  OH  TYR A 338     -37.140 129.369   4.405  1.00 43.36    -0.359 OA
ATOM     22  HH  TYR A 338     -37.247 130.263   4.103  1.00  0.00     0.217 HD
ENDBRANCH  18  21
ENDBRANCH  14  15
ENDBRANCH  13  14
END_RES TYR A 338
ENDMDL
