MODEL 1
REMARK VINA RESULT:    -9.020      0.000      0.000
REMARK INTER + INTRA:         -10.189
REMARK INTER:                  -9.020
REMARK INTRA:                  -1.169
REMARK UNBOUND:                -1.169
REMARK  0 active torsions:
REMARK  status: ('A' for Active; 'I' for Inactive)
REMARK       I    between atoms: C3_3  and  O3_21 
REMARK       I    between atoms: C6_6  and  C7_7 
REMARK       I    between atoms: C8_8  and  C9_9 
REMARK       I    between atoms: C10_10  and  C11_11 
REMARK       I    between atoms: C12_12  and  C13_13 
REMARK       I    between atoms: C14_14  and  C15_15 
REMARK       I    between atoms: C23_25  and  O23_43 
REMARK       I    between atoms: C26_28  and  C27_29 
REMARK       I    between atoms: C28_30  and  C29_31 
REMARK       I    between atoms: C30_32  and  C31_33 
REMARK       I    between atoms: C32_34  and  C33_35 
REMARK       I    between atoms: C34_36  and  C35_37 
ROOT
HETATM    1  C1  8UH 2 615     -50.922 145.342  10.513  1.00 79.94    -0.018 C 
HETATM    2  C2  8UH 2 615     -51.876 145.980  11.521  1.00 79.60     0.045 C 
HETATM    3  C3  8UH 2 615     -51.220 146.734  12.668  1.00 80.06     0.123 C 
HETATM    4  C4  8UH 2 615     -50.176 147.688  12.123  1.00 79.91     0.066 C 
HETATM    5  C5  8UH 2 615     -49.153 146.907  11.342  1.00 78.96    -0.074 C 
HETATM    6  C6  8UH 2 615     -49.513 145.906  10.534  1.00 78.99    -0.048 C 
HETATM    7  C7  8UH 2 615     -48.503 145.327   9.618  1.00 78.77     0.009 C 
HETATM    8  C8  8UH 2 615     -47.616 144.433  10.059  1.00 79.10     0.007 C 
HETATM    9  C9  8UH 2 615     -46.599 143.844   9.168  1.00 80.39    -0.062 C 
HETATM   10  C10 8UH 2 615     -45.722 142.971   9.687  1.00 81.39     0.007 C 
HETATM   11  C11 8UH 2 615     -44.677 142.325   8.897  1.00 81.92     0.001 C 
HETATM   12  C12 8UH 2 615     -43.923 141.417   9.510  1.00 82.76     0.007 C 
HETATM   13  C13 8UH 2 615     -42.845 140.677   8.829  1.00 83.90    -0.062 C 
HETATM   14  C14 8UH 2 615     -42.364 139.575   9.424  1.00 84.98     0.007 C 
HETATM   15  C15 8UH 2 615     -41.317 138.750   8.831  1.00 86.34     0.001 C 
HETATM   16  C16 8UH 2 615     -51.510 145.537   9.122  1.00 79.93     0.020 C 
HETATM   17  C17 8UH 2 615     -50.826 143.850  10.815  1.00 80.89     0.020 C 
HETATM   18  C18 8UH 2 615     -47.829 147.592  11.172  1.00 77.35     0.044 C 
HETATM   19  C19 8UH 2 615     -46.545 144.223   7.718  1.00 80.43     0.048 C 
HETATM   20  C20 8UH 2 615     -42.306 141.144   7.509  1.00 83.80     0.048 C 
HETATM   21  O3  8UH 2 615     -52.217 147.483  13.371  1.00 80.93    -0.395 OA
ATOM     22  H3  8UH 2 615     -51.807 147.955  14.088  1.00  0.00     0.210 HD
HETATM   23  C21 8UH 2 615     -34.259 128.646   6.758  1.00 48.79    -0.018 C 
HETATM   24  C22 8UH 2 615     -33.341 128.488   5.553  1.00 49.38     0.045 C 
HETATM   25  C23 8UH 2 615     -31.850 128.309   5.831  1.00 51.85     0.123 C 
HETATM   26  C24 8UH 2 615     -31.318 129.254   6.894  1.00 54.16     0.066 C 
HETATM   27  C25 8UH 2 615     -32.314 129.694   7.932  1.00 52.93    -0.074 C 
HETATM   28  C26 8UH 2 615     -33.645 129.549   7.814  1.00 53.44    -0.048 C 
HETATM   29  C27 8UH 2 615     -34.554 130.265   8.750  1.00 56.18     0.009 C 
HETATM   30  C28 8UH 2 615     -35.160 131.408   8.418  1.00 54.04     0.007 C 
HETATM   31  C29 8UH 2 615     -36.076 132.121   9.315  1.00 89.92    -0.062 C 
HETATM   32  C30 8UH 2 615     -36.752 133.170   8.827  1.00 89.40     0.007 C 
HETATM   33  C31 8UH 2 615     -37.705 133.943   9.615  1.00 87.93     0.001 C 
HETATM   34  C32 8UH 2 615     -38.332 134.931   8.985  1.00 87.59     0.007 C 
HETATM   35  C33 8UH 2 615     -39.338 135.789   9.633  1.00 88.80    -0.062 C 
HETATM   36  C34 8UH 2 615     -39.873 136.803   8.934  1.00 88.99     0.007 C 
HETATM   37  C35 8UH 2 615     -40.896 137.677   9.499  1.00 88.02     0.001 C 
HETATM   38  C36 8UH 2 615     -34.572 127.279   7.343  1.00 50.92     0.020 C 
HETATM   39  C37 8UH 2 615     -35.575 129.246   6.271  1.00 48.05     0.020 C 
HETATM   40  C38 8UH 2 615     -31.701 130.770   8.768  1.00 55.82     0.044 C 
HETATM   41  C39 8UH 2 615     -36.259 131.679  10.738  1.00 89.99     0.048 C 
HETATM   42  C40 8UH 2 615     -39.764 135.520  11.046  1.00 89.61     0.048 C 
HETATM   43  O23 8UH 2 615     -31.526 126.953   6.166  1.00 50.70    -0.395 OA
ATOM     44  H23 8UH 2 615     -30.599 126.842   6.339  1.00  0.00     0.210 HD
ENDROOT
TORSDOF 12
BEGIN_RES PHE A  61
REMARK  2 active torsions:
REMARK  status: ('A' for Active; 'I' for Inactive)
REMARK    1  A    between atoms: CA   and  CB  
REMARK    2  A    between atoms: CB   and  CG  
ROOT
ATOM      1  CA  PHE A  61     -36.237 128.293  12.768  1.00 39.40     0.164 C 
ENDROOT
BRANCH   1   2
ATOM      2  CB  PHE A  61     -36.813 128.951  11.509  1.00 39.41     0.058 C 
BRANCH   2   3
ATOM      3  CG  PHE A  61     -36.947 128.023  10.325  1.00 39.01    -0.020 A 
ATOM      4  CD2 PHE A  61     -36.097 126.938  10.172  1.00 40.32    -0.004 A 
ATOM      5  CE2 PHE A  61     -36.219 126.087   9.081  1.00 40.20    -0.000 A 
ATOM      6  CZ  PHE A  61     -37.193 126.308   8.134  1.00 40.34    -0.000 A 
ATOM      7  CE1 PHE A  61     -38.047 127.381   8.273  1.00 41.51    -0.000 A 
ATOM      8  CD1 PHE A  61     -37.921 128.236   9.360  1.00 39.94    -0.004 A 
ENDBRANCH   2   3
ENDBRANCH   1   2
END_RES PHE A  61
BEGIN_RES VAL A 134
REMARK  1 active torsions:
REMARK  status: ('A' for Active; 'I' for Inactive)
REMARK    3  A    between atoms: CA   and  CB  
ROOT
ATOM      9  CA  VAL A 134     -29.766 132.051   9.815  1.00 40.75     0.159 C 
ENDROOT
BRANCH   9  10
ATOM     10  CB  VAL A 134     -30.864 132.765   9.009  1.00 40.76     0.029 C 
ATOM     11  CG1 VAL A 134     -32.080 133.040   9.882  1.00 41.76     0.002 C 
ATOM     12  CG2 VAL A 134     -30.351 134.050   8.377  1.00 40.56     0.002 C 
ENDBRANCH   9  10
END_RES VAL A 134
BEGIN_RES TYR A 338
REMARK  3 active torsions:
REMARK  status: ('A' for Active; 'I' for Inactive)
REMARK    4  A    between atoms: CA   and  CB  
REMARK    5  A    between atoms: CB   and  CG  
REMARK    6  A    between atoms: CZ   and  OH  
ROOT
ATOM     13  CA  TYR A 338     -41.631 124.950   6.058  1.00 38.23     0.164 C 
ENDROOT
BRANCH  13  14
ATOM     14  CB  TYR A 338     -41.621 126.456   6.339  1.00 39.15     0.058 C 
BRANCH  14  15
ATOM     15  CG  TYR A 338     -40.424 127.214   5.812  1.00 39.03    -0.020 A 
ATOM     16  CD2 TYR A 338     -40.272 128.562   6.086  1.00 40.65    -0.002 A 
ATOM     17  CE2 TYR A 338     -39.196 129.292   5.606  1.00 40.91     0.024 A 
ATOM     18  CZ  TYR A 338     -38.238 128.670   4.828  1.00 42.33     0.089 A 
ATOM     19  CE1 TYR A 338     -38.365 127.322   4.543  1.00 40.63     0.024 A 
ATOM     20  CD1 TYR A 338     -39.456 126.613   5.022  1.00 39.27    -0.002 A 
BRANCH  18  21
ATOM     21  OH  TYR A 338     -37.170 129.379   4.352  1.00 43.36    -0.359 OA
ATOM     22  HH  TYR A 338     -37.044 130.286   4.605  1.00  0.00     0.217 HD
ENDBRANCH  18  21
ENDBRANCH  14  15
ENDBRANCH  13  14
END_RES TYR A 338
ENDMDL
MODEL 2
REMARK VINA RESULT:    -8.227      1.218     16.916
REMARK INTER + INTRA:          -9.396
REMARK INTER:                  -7.512
REMARK INTRA:                  -1.884
REMARK UNBOUND:                -1.169
REMARK  0 active torsions:
REMARK  status: ('A' for Active; 'I' for Inactive)
REMARK       I    between atoms: C3_3  and  O3_21 
REMARK       I    between atoms: C6_6  and  C7_7 
REMARK       I    between atoms: C8_8  and  C9_9 
REMARK       I    between atoms: C10_10  and  C11_11 
REMARK       I    between atoms: C12_12  and  C13_13 
REMARK       I    between atoms: C14_14  and  C15_15 
REMARK       I    between atoms: C23_25  and  O23_43 
REMARK       I    between atoms: C26_28  and  C27_29 
REMARK       I    between atoms: C28_30  and  C29_31 
REMARK       I    between atoms: C30_32  and  C31_33 
REMARK       I    between atoms: C32_34  and  C33_35 
REMARK       I    between atoms: C34_36  and  C35_37 
ROOT
HETATM    1  C1  8UH 2 615     -34.369 127.095   6.617  1.00 79.94    -0.018 C 
HETATM    2  C2  8UH 2 615     -33.702 126.318   5.483  1.00 79.60     0.045 C 
HETATM    3  C3  8UH 2 615     -32.718 127.105   4.631  1.00 80.06     0.123 C 
HETATM    4  C4  8UH 2 615     -31.741 127.843   5.526  1.00 79.91     0.066 C 
HETATM    5  C5  8UH 2 615     -32.507 128.759   6.441  1.00 78.96    -0.074 C 
HETATM    6  C6  8UH 2 615     -33.651 128.372   7.013  1.00 78.99    -0.048 C 
HETATM    7  C7  8UH 2 615     -34.239 129.215   8.080  1.00 78.77     0.009 C 
HETATM    8  C8  8UH 2 615     -34.952 130.301   7.774  1.00 79.10     0.007 C 
HETATM    9  C9  8UH 2 615     -35.546 131.159   8.818  1.00 80.39    -0.062 C 
HETATM   10  C10 8UH 2 615     -36.228 132.250   8.437  1.00 81.39     0.007 C 
HETATM   11  C11 8UH 2 615     -36.859 133.166   9.383  1.00 81.92     0.001 C 
HETATM   12  C12 8UH 2 615     -37.576 134.166   8.877  1.00 82.76     0.007 C 
HETATM   13  C13 8UH 2 615     -38.280 135.153   9.716  1.00 83.90    -0.062 C 
HETATM   14  C14 8UH 2 615     -39.220 135.914   9.138  1.00 84.98     0.007 C 
HETATM   15  C15 8UH 2 615     -39.999 136.905   9.874  1.00 86.34     0.001 C 
HETATM   16  C16 8UH 2 615     -34.449 126.178   7.830  1.00 79.93     0.020 C 
HETATM   17  C17 8UH 2 615     -35.779 127.475   6.179  1.00 80.89     0.020 C 
HETATM   18  C18 8UH 2 615     -31.709 129.893   7.014  1.00 77.35     0.044 C 
HETATM   19  C19 8UH 2 615     -35.380 130.818  10.269  1.00 80.43     0.048 C 
HETATM   20  C20 8UH 2 615     -37.954 135.297  11.174  1.00 83.80     0.048 C 
HETATM   21  O3  8UH 2 615     -31.991 126.200   3.792  1.00 80.93    -0.395 OA
ATOM     22  H3  8UH 2 615     -31.376 126.691   3.260  1.00  0.00     0.210 HD
HETATM   23  C21 8UH 2 615     -49.428 144.687  12.467  1.00 48.79    -0.018 C 
HETATM   24  C22 8UH 2 615     -49.656 145.313  13.836  1.00 49.38     0.045 C 
HETATM   25  C23 8UH 2 615     -49.621 146.838  13.921  1.00 51.85     0.123 C 
HETATM   26  C24 8UH 2 615     -48.475 147.458  13.140  1.00 54.16     0.066 C 
HETATM   27  C25 8UH 2 615     -48.005 146.677  11.945  1.00 52.93    -0.074 C 
HETATM   28  C26 8UH 2 615     -48.315 145.391  11.709  1.00 53.44    -0.048 C 
HETATM   29  C27 8UH 2 615     -47.578 144.629  10.664  1.00 56.18     0.009 C 
HETATM   30  C28 8UH 2 615     -46.573 143.803  10.963  1.00 54.04     0.007 C 
HETATM   31  C29 8UH 2 615     -45.845 143.026   9.954  1.00 89.92    -0.062 C 
HETATM   32  C30 8UH 2 615     -44.962 142.109  10.375  1.00 89.40     0.007 C 
HETATM   33  C31 8UH 2 615     -44.196 141.262   9.469  1.00 87.93     0.001 C 
HETATM   34  C32 8UH 2 615     -43.389 140.369  10.032  1.00 87.59     0.007 C 
HETATM   35  C33 8UH 2 615     -42.565 139.426   9.256  1.00 88.80    -0.062 C 
HETATM   36  C34 8UH 2 615     -41.733 138.602   9.912  1.00 88.99     0.007 C 
HETATM   37  C35 8UH 2 615     -40.907 137.621   9.213  1.00 88.02     0.001 C 
HETATM   38  C36 8UH 2 615     -50.721 144.722  11.669  1.00 50.92     0.020 C 
HETATM   39  C37 8UH 2 615     -49.060 143.221  12.676  1.00 48.05     0.020 C 
HETATM   40  C38 8UH 2 615     -46.754 147.303  11.417  1.00 55.82     0.044 C 
HETATM   41  C39 8UH 2 615     -46.090 143.244   8.490  1.00 89.99     0.048 C 
HETATM   42  C40 8UH 2 615     -42.670 139.384   7.761  1.00 89.61     0.048 C 
HETATM   43  O23 8UH 2 615     -50.867 147.425  13.524  1.00 50.70    -0.395 OA
ATOM     44  H23 8UH 2 615     -50.845 148.373  13.576  1.00  0.00     0.210 HD
ENDROOT
TORSDOF 12
BEGIN_RES PHE A  61
REMARK  2 active torsions:
REMARK  status: ('A' for Active; 'I' for Inactive)
REMARK    1  A    between atoms: CA   and  CB  
REMARK    2  A    between atoms: CB   and  CG  
ROOT
ATOM      1  CA  PHE A  61     -36.237 128.293  12.768  1.00 39.40     0.164 C 
ENDROOT
BRANCH   1   2
ATOM      2  CB  PHE A  61     -36.813 128.951  11.509  1.00 39.41     0.058 C 
BRANCH   2   3
ATOM      3  CG  PHE A  61     -37.091 127.993  10.376  1.00 39.01    -0.020 A 
ATOM      4  CD2 PHE A  61     -36.449 126.766  10.307  1.00 40.32    -0.004 A 
ATOM      5  CE2 PHE A  61     -36.704 125.887   9.262  1.00 40.20    -0.000 A 
ATOM      6  CZ  PHE A  61     -37.605 126.222   8.277  1.00 40.34    -0.000 A 
ATOM      7  CE1 PHE A  61     -38.253 127.436   8.332  1.00 41.51    -0.000 A 
ATOM      8  CD1 PHE A  61     -37.994 128.318   9.373  1.00 39.94    -0.004 A 
ENDBRANCH   2   3
ENDBRANCH   1   2
END_RES PHE A  61
BEGIN_RES VAL A 134
REMARK  1 active torsions:
REMARK  status: ('A' for Active; 'I' for Inactive)
REMARK    3  A    between atoms: CA   and  CB  
ROOT
ATOM      9  CA  VAL A 134     -29.766 132.051   9.815  1.00 40.75     0.159 C 
ENDROOT
BRANCH   9  10
ATOM     10  CB  VAL A 134     -30.864 132.765   9.009  1.00 40.76     0.029 C 
ATOM     11  CG1 VAL A 134     -30.842 132.317   7.555  1.00 41.76     0.002 C 
ATOM     12  CG2 VAL A 134     -32.240 132.548   9.620  1.00 40.56     0.002 C 
ENDBRANCH   9  10
END_RES VAL A 134
BEGIN_RES TYR A 338
REMARK  3 active torsions:
REMARK  status: ('A' for Active; 'I' for Inactive)
REMARK    4  A    between atoms: CA   and  CB  
REMARK    5  A    between atoms: CB   and  CG  
REMARK    6  A    between atoms: CZ   and  OH  
ROOT
ATOM     13  CA  TYR A 338     -41.631 124.950   6.058  1.00 38.23     0.164 C 
ENDROOT
BRANCH  13  14
ATOM     14  CB  TYR A 338     -41.621 126.456   6.339  1.00 39.15     0.058 C 
BRANCH  14  15
ATOM     15  CG  TYR A 338     -40.423 127.213   5.814  1.00 39.03    -0.020 A 
ATOM     16  CD2 TYR A 338     -40.251 128.552   6.121  1.00 40.65    -0.002 A 
ATOM     17  CE2 TYR A 338     -39.173 129.282   5.644  1.00 40.91     0.024 A 
ATOM     18  CZ  TYR A 338     -38.234 128.669   4.835  1.00 42.33     0.089 A 
ATOM     19  CE1 TYR A 338     -38.382 127.331   4.518  1.00 40.63     0.024 A 
ATOM     20  CD1 TYR A 338     -39.474 126.622   4.995  1.00 39.27    -0.002 A 
BRANCH  18  21
ATOM     21  OH  TYR A 338     -37.164 129.378   4.363  1.00 43.36    -0.359 OA
ATOM     22  HH  TYR A 338     -36.873 130.164   4.810  1.00  0.00     0.217 HD
ENDBRANCH  18  21
ENDBRANCH  14  15
ENDBRANCH  13  14
END_RES TYR A 338
ENDMDL
MODEL 3
REMARK VINA RESULT:    -7.421      1.608     17.040
REMARK INTER + INTRA:          -8.590
REMARK INTER:                  -6.574
REMARK INTRA:                  -2.016
REMARK UNBOUND:                -1.169
REMARK  0 active torsions:
REMARK  status: ('A' for Active; 'I' for Inactive)
REMARK       I    between atoms: C3_3  and  O3_21 
REMARK       I    between atoms: C6_6  and  C7_7 
REMARK       I    between atoms: C8_8  and  C9_9 
REMARK       I    between atoms: C10_10  and  C11_11 
REMARK       I    between atoms: C12_12  and  C13_13 
REMARK       I    between atoms: C14_14  and  C15_15 
REMARK       I    between atoms: C23_25  and  O23_43 
REMARK       I    between atoms: C26_28  and  C27_29 
REMARK       I    between atoms: C28_30  and  C29_31 
REMARK       I    between atoms: C30_32  and  C31_33 
REMARK       I    between atoms: C32_34  and  C33_35 
REMARK       I    between atoms: C34_36  and  C35_37 
ROOT
HETATM    1  C1  8UH 2 615     -34.758 127.750   5.381  1.00 79.94    -0.018 C 
HETATM    2  C2  8UH 2 615     -33.493 127.298   4.653  1.00 79.60     0.045 C 
HETATM    3  C3  8UH 2 615     -32.221 128.054   5.006  1.00 80.06     0.123 C 
HETATM    4  C4  8UH 2 615     -32.068 128.125   6.513  1.00 79.91     0.066 C 
HETATM    5  C5  8UH 2 615     -33.275 128.808   7.098  1.00 78.96    -0.074 C 
HETATM    6  C6  8UH 2 615     -34.505 128.553   6.643  1.00 78.99    -0.048 C 
HETATM    7  C7  8UH 2 615     -35.669 129.069   7.401  1.00 78.77     0.009 C 
HETATM    8  C8  8UH 2 615     -36.061 130.338   7.269  1.00 79.10     0.007 C 
HETATM    9  C9  8UH 2 615     -37.215 130.876   8.015  1.00 80.39    -0.062 C 
HETATM   10  C10 8UH 2 615     -37.535 132.168   7.851  1.00 81.39     0.007 C 
HETATM   11  C11 8UH 2 615     -38.658 132.804   8.536  1.00 81.92     0.001 C 
HETATM   12  C12 8UH 2 615     -38.921 134.071   8.227  1.00 82.76     0.007 C 
HETATM   13  C13 8UH 2 615     -40.034 134.828   8.829  1.00 83.90    -0.062 C 
HETATM   14  C14 8UH 2 615     -40.414 135.968   8.233  1.00 84.98     0.007 C 
HETATM   15  C15 8UH 2 615     -41.519 136.786   8.724  1.00 86.34     0.001 C 
HETATM   16  C16 8UH 2 615     -35.561 126.507   5.741  1.00 79.93     0.020 C 
HETATM   17  C17 8UH 2 615     -35.576 128.622   4.434  1.00 80.89     0.020 C 
HETATM   18  C18 8UH 2 615     -33.068 129.398   8.462  1.00 77.35     0.044 C 
HETATM   19  C19 8UH 2 615     -38.002 129.995   8.938  1.00 80.43     0.048 C 
HETATM   20  C20 8UH 2 615     -40.720 134.335  10.069  1.00 83.80     0.048 C 
HETATM   21  O3  8UH 2 615     -31.094 127.363   4.454  1.00 80.93    -0.395 OA
ATOM     22  H3  8UH 2 615     -30.299 127.835   4.675  1.00  0.00     0.210 HD
HETATM   23  C21 8UH 2 615     -50.702 145.260   8.488  1.00 48.79    -0.018 C 
HETATM   24  C22 8UH 2 615     -51.775 145.375   9.563  1.00 49.38     0.045 C 
HETATM   25  C23 8UH 2 615     -51.857 146.695  10.328  1.00 51.85     0.123 C 
HETATM   26  C24 8UH 2 615     -50.500 147.233  10.748  1.00 54.16     0.066 C 
HETATM   27  C25 8UH 2 615     -49.346 146.852   9.862  1.00 52.93    -0.074 C 
HETATM   28  C26 8UH 2 615     -49.388 145.874   8.942  1.00 53.44    -0.048 C 
HETATM   29  C27 8UH 2 615     -48.126 145.383   8.322  1.00 56.18     0.009 C 
HETATM   30  C28 8UH 2 615     -47.515 144.271   8.737  1.00 54.04     0.007 C 
HETATM   31  C29 8UH 2 615     -46.283 143.757   8.130  1.00 89.92    -0.062 C 
HETATM   32  C30 8UH 2 615     -45.841 142.552   8.515  1.00 89.40     0.007 C 
HETATM   33  C31 8UH 2 615     -44.642 141.928   7.968  1.00 87.93     0.001 C 
HETATM   34  C32 8UH 2 615     -44.350 140.712   8.416  1.00 87.59     0.007 C 
HETATM   35  C33 8UH 2 615     -43.187 139.939   7.946  1.00 88.80    -0.062 C 
HETATM   36  C34 8UH 2 615     -42.937 138.743   8.503  1.00 88.99     0.007 C 
HETATM   37  C35 8UH 2 615     -41.820 137.908   8.070  1.00 88.02     0.001 C 
HETATM   38  C36 8UH 2 615     -51.187 145.926   7.210  1.00 50.92     0.020 C 
HETATM   39  C37 8UH 2 615     -50.500 143.779   8.183  1.00 48.05     0.020 C 
HETATM   40  C38 8UH 2 615     -48.071 147.274  10.517  1.00 55.82     0.044 C 
HETATM   41  C39 8UH 2 615     -45.544 144.555   7.096  1.00 89.99     0.048 C 
HETATM   42  C40 8UH 2 615     -42.311 140.478   6.855  1.00 89.61     0.048 C 
HETATM   43  O23 8UH 2 615     -52.582 147.693   9.598  1.00 50.70    -0.395 OA
ATOM     44  H23 8UH 2 615     -52.633 148.514  10.073  1.00  0.00     0.210 HD
ENDROOT
TORSDOF 12
BEGIN_RES PHE A  61
REMARK  2 active torsions:
REMARK  status: ('A' for Active; 'I' for Inactive)
REMARK    1  A    between atoms: CA   and  CB  
REMARK    2  A    between atoms: CB   and  CG  
ROOT
ATOM      1  CA  PHE A  61     -36.237 128.293  12.768  1.00 39.40     0.164 C 
ENDROOT
BRANCH   1   2
ATOM      2  CB  PHE A  61     -36.813 128.951  11.509  1.00 39.41     0.058 C 
BRANCH   2   3
ATOM      3  CG  PHE A  61     -36.359 130.374  11.285  1.00 39.01    -0.020 A 
ATOM      4  CD2 PHE A  61     -35.111 130.647  10.748  1.00 40.32    -0.004 A 
ATOM      5  CE2 PHE A  61     -34.694 131.956  10.545  1.00 40.20    -0.000 A 
ATOM      6  CZ  PHE A  61     -35.520 133.006  10.874  1.00 40.34    -0.000 A 
ATOM      7  CE1 PHE A  61     -36.765 132.752  11.408  1.00 41.51    -0.000 A 
ATOM      8  CD1 PHE A  61     -37.180 131.443  11.616  1.00 39.94    -0.004 A 
ENDBRANCH   2   3
ENDBRANCH   1   2
END_RES PHE A  61
BEGIN_RES VAL A 134
REMARK  1 active torsions:
REMARK  status: ('A' for Active; 'I' for Inactive)
REMARK    3  A    between atoms: CA   and  CB  
ROOT
ATOM      9  CA  VAL A 134     -29.766 132.051   9.815  1.00 40.75     0.159 C 
ENDROOT
BRANCH   9  10
ATOM     10  CB  VAL A 134     -30.864 132.765   9.009  1.00 40.76     0.029 C 
ATOM     11  CG1 VAL A 134     -31.213 131.974   7.757  1.00 41.76     0.002 C 
ATOM     12  CG2 VAL A 134     -32.104 133.018   9.852  1.00 40.56     0.002 C 
ENDBRANCH   9  10
END_RES VAL A 134
BEGIN_RES TYR A 338
REMARK  3 active torsions:
REMARK  status: ('A' for Active; 'I' for Inactive)
REMARK    4  A    between atoms: CA   and  CB  
REMARK    5  A    between atoms: CB   and  CG  
REMARK    6  A    between atoms: CZ   and  OH  
ROOT
ATOM     13  CA  TYR A 338     -41.631 124.950   6.058  1.00 38.23     0.164 C 
ENDROOT
BRANCH  13  14
ATOM     14  CB  TYR A 338     -41.621 126.456   6.339  1.00 39.15     0.058 C 
BRANCH  14  15
ATOM     15  CG  TYR A 338     -40.444 127.220   5.779  1.00 39.03    -0.020 A 
ATOM     16  CD2 TYR A 338     -40.225 128.538   6.144  1.00 40.65    -0.002 A 
ATOM     17  CE2 TYR A 338     -39.165 129.273   5.638  1.00 40.91     0.024 A 
ATOM     18  CZ  TYR A 338     -38.291 128.689   4.740  1.00 42.33     0.089 A 
ATOM     19  CE1 TYR A 338     -38.486 127.372   4.362  1.00 40.63     0.024 A 
ATOM     20  CD1 TYR A 338     -39.560 126.658   4.870  1.00 39.27    -0.002 A 
BRANCH  18  21
ATOM     21  OH  TYR A 338     -37.240 129.404   4.237  1.00 43.36    -0.359 OA
ATOM     22  HH  TYR A 338     -37.110 129.472   3.298  1.00  0.00     0.217 HD
ENDBRANCH  18  21
ENDBRANCH  14  15
ENDBRANCH  13  14
END_RES TYR A 338
ENDMDL
MODEL 4
REMARK VINA RESULT:    -7.305      2.791      4.016
REMARK INTER + INTRA:          -8.475
REMARK INTER:                  -5.697
REMARK INTRA:                  -2.777
REMARK UNBOUND:                -1.169
REMARK  0 active torsions:
REMARK  status: ('A' for Active; 'I' for Inactive)
REMARK       I    between atoms: C3_3  and  O3_21 
REMARK       I    between atoms: C6_6  and  C7_7 
REMARK       I    between atoms: C8_8  and  C9_9 
REMARK       I    between atoms: C10_10  and  C11_11 
REMARK       I    between atoms: C12_12  and  C13_13 
REMARK       I    between atoms: C14_14  and  C15_15 
REMARK       I    between atoms: C23_25  and  O23_43 
REMARK       I    between atoms: C26_28  and  C27_29 
REMARK       I    between atoms: C28_30  and  C29_31 
REMARK       I    between atoms: C30_32  and  C31_33 
REMARK       I    between atoms: C32_34  and  C33_35 
REMARK       I    between atoms: C34_36  and  C35_37 
ROOT
HETATM    1  C1  8UH 2 615     -45.264 149.949   9.491  1.00 79.94    -0.018 C 
HETATM    2  C2  8UH 2 615     -46.506 150.794   9.214  1.00 79.60     0.045 C 
HETATM    3  C3  8UH 2 615     -47.785 150.333   9.896  1.00 80.06     0.123 C 
HETATM    4  C4  8UH 2 615     -47.523 150.094  11.370  1.00 79.91     0.066 C 
HETATM    5  C5  8UH 2 615     -46.438 149.062  11.516  1.00 78.96    -0.074 C 
HETATM    6  C6  8UH 2 615     -45.364 149.066  10.721  1.00 78.99    -0.048 C 
HETATM    7  C7  8UH 2 615     -44.224 148.181  11.054  1.00 78.77     0.009 C 
HETATM    8  C8  8UH 2 615     -44.251 146.886  10.735  1.00 79.10     0.007 C 
HETATM    9  C9  8UH 2 615     -43.130 145.983  11.058  1.00 80.39    -0.062 C 
HETATM   10  C10 8UH 2 615     -43.238 144.687  10.731  1.00 81.39     0.007 C 
HETATM   11  C11 8UH 2 615     -42.189 143.706  11.000  1.00 81.92     0.001 C 
HETATM   12  C12 8UH 2 615     -42.383 142.468  10.552  1.00 82.76     0.007 C 
HETATM   13  C13 8UH 2 615     -41.400 141.385  10.739  1.00 83.90    -0.062 C 
HETATM   14  C14 8UH 2 615     -41.532 140.280   9.990  1.00 84.98     0.007 C 
HETATM   15  C15 8UH 2 615     -40.604 139.156  10.070  1.00 86.34     0.001 C 
HETATM   16  C16 8UH 2 615     -44.082 150.894   9.658  1.00 79.93     0.020 C 
HETATM   17  C17 8UH 2 615     -45.018 149.042   8.290  1.00 80.89     0.020 C 
HETATM   18  C18 8UH 2 615     -46.409 148.359  12.841  1.00 77.35     0.044 C 
HETATM   19  C19 8UH 2 615     -41.904 146.507  11.745  1.00 80.43     0.048 C 
HETATM   20  C20 8UH 2 615     -40.286 141.519  11.735  1.00 83.80     0.048 C 
HETATM   21  O3  8UH 2 615     -48.786 151.349   9.757  1.00 80.93    -0.395 OA
ATOM     22  H3  8UH 2 615     -49.585 151.062  10.183  1.00  0.00     0.210 HD
HETATM   23  C21 8UH 2 615     -34.565 128.800   6.539  1.00 48.79    -0.018 C 
HETATM   24  C22 8UH 2 615     -33.310 128.277   7.224  1.00 49.38     0.045 C 
HETATM   25  C23 8UH 2 615     -33.384 126.886   7.850  1.00 51.85     0.123 C 
HETATM   26  C24 8UH 2 615     -34.662 126.645   8.634  1.00 54.16     0.066 C 
HETATM   27  C25 8UH 2 615     -35.866 127.417   8.168  1.00 52.93    -0.074 C 
HETATM   28  C26 8UH 2 615     -35.816 128.472   7.338  1.00 53.44    -0.048 C 
HETATM   29  C27 8UH 2 615     -37.014 129.338   7.164  1.00 56.18     0.009 C 
HETATM   30  C28 8UH 2 615     -37.152 130.498   7.811  1.00 54.04     0.007 C 
HETATM   31  C29 8UH 2 615     -38.314 131.378   7.641  1.00 89.92    -0.062 C 
HETATM   32  C30 8UH 2 615     -38.280 132.590   8.213  1.00 89.40     0.007 C 
HETATM   33  C31 8UH 2 615     -39.363 133.559   8.096  1.00 87.93     0.001 C 
HETATM   34  C32 8UH 2 615     -39.170 134.736   8.682  1.00 87.59     0.007 C 
HETATM   35  C33 8UH 2 615     -40.158 135.828   8.638  1.00 88.80    -0.062 C 
HETATM   36  C34 8UH 2 615     -39.903 136.960   9.313  1.00 88.99     0.007 C 
HETATM   37  C35 8UH 2 615     -40.820 138.096   9.292  1.00 88.02     0.001 C 
HETATM   38  C36 8UH 2 615     -34.661 128.218   5.138  1.00 50.92     0.020 C 
HETATM   39  C37 8UH 2 615     -34.428 130.312   6.396  1.00 48.05     0.020 C 
HETATM   40  C38 8UH 2 615     -36.971 127.235   9.157  1.00 55.82     0.044 C 
HETATM   41  C39 8UH 2 615     -39.503 130.936   6.839  1.00 89.99     0.048 C 
HETATM   42  C40 8UH 2 615     -41.418 135.676   7.839  1.00 89.61     0.048 C 
HETATM   43  O23 8UH 2 615     -33.197 125.850   6.876  1.00 50.70    -0.395 OA
ATOM     44  H23 8UH 2 615     -33.243 124.985   7.265  1.00  0.00     0.210 HD
ENDROOT
TORSDOF 12
BEGIN_RES PHE A  61
REMARK  2 active torsions:
REMARK  status: ('A' for Active; 'I' for Inactive)
REMARK    1  A    between atoms: CA   and  CB  
REMARK    2  A    between atoms: CB   and  CG  
ROOT
ATOM      1  CA  PHE A  61     -36.237 128.293  12.768  1.00 39.40     0.164 C 
ENDROOT
BRANCH   1   2
ATOM      2  CB  PHE A  61     -36.813 128.951  11.509  1.00 39.41     0.058 C 
BRANCH   2   3
ATOM      3  CG  PHE A  61     -35.980 130.085  10.961  1.00 39.01    -0.020 A 
ATOM      4  CD2 PHE A  61     -34.729 129.849  10.412  1.00 40.32    -0.004 A 
ATOM      5  CE2 PHE A  61     -33.963 130.894   9.912  1.00 40.20    -0.000 A 
ATOM      6  CZ  PHE A  61     -34.439 132.184   9.950  1.00 40.34    -0.000 A 
ATOM      7  CE1 PHE A  61     -35.681 132.435  10.490  1.00 41.51    -0.000 A 
ATOM      8  CD1 PHE A  61     -36.445 131.392  10.996  1.00 39.94    -0.004 A 
ENDBRANCH   2   3
ENDBRANCH   1   2
END_RES PHE A  61
BEGIN_RES VAL A 134
REMARK  1 active torsions:
REMARK  status: ('A' for Active; 'I' for Inactive)
REMARK    3  A    between atoms: CA   and  CB  
ROOT
ATOM      9  CA  VAL A 134     -29.766 132.051   9.815  1.00 40.75     0.159 C 
ENDROOT
BRANCH   9  10
ATOM     10  CB  VAL A 134     -30.864 132.765   9.009  1.00 40.76     0.029 C 
ATOM     11  CG1 VAL A 134     -31.444 131.838   7.951  1.00 41.76     0.002 C 
ATOM     12  CG2 VAL A 134     -31.961 133.307   9.913  1.00 40.56     0.002 C 
ENDBRANCH   9  10
END_RES VAL A 134
BEGIN_RES TYR A 338
REMARK  3 active torsions:
REMARK  status: ('A' for Active; 'I' for Inactive)
REMARK    4  A    between atoms: CA   and  CB  
REMARK    5  A    between atoms: CB   and  CG  
REMARK    6  A    between atoms: CZ   and  OH  
ROOT
ATOM     13  CA  TYR A 338     -41.631 124.950   6.058  1.00 38.23     0.164 C 
ENDROOT
BRANCH  13  14
ATOM     14  CB  TYR A 338     -41.621 126.456   6.339  1.00 39.15     0.058 C 
BRANCH  14  15
ATOM     15  CG  TYR A 338     -40.465 127.227   5.744  1.00 39.03    -0.020 A 
ATOM     16  CD2 TYR A 338     -39.346 126.560   5.274  1.00 40.65    -0.002 A 
ATOM     17  CE2 TYR A 338     -38.261 127.236   4.737  1.00 40.91     0.024 A 
ATOM     18  CZ  TYR A 338     -38.280 128.616   4.663  1.00 42.33     0.089 A 
ATOM     19  CE1 TYR A 338     -39.389 129.304   5.123  1.00 40.63     0.024 A 
ATOM     20  CD1 TYR A 338     -40.458 128.611   5.668  1.00 39.27    -0.002 A 
BRANCH  18  21
ATOM     21  OH  TYR A 338     -37.218 129.292   4.132  1.00 43.36    -0.359 OA
ATOM     22  HH  TYR A 338     -36.944 129.129   3.237  1.00  0.00     0.217 HD
ENDBRANCH  18  21
ENDBRANCH  14  15
ENDBRANCH  13  14
END_RES TYR A 338
ENDMDL
MODEL 5
REMARK VINA RESULT:    -6.363      2.130      3.913
REMARK INTER + INTRA:          -7.532
REMARK INTER:                  -5.774
REMARK INTRA:                  -1.758
REMARK UNBOUND:                -1.169
REMARK  0 active torsions:
REMARK  status: ('A' for Active; 'I' for Inactive)
REMARK       I    between atoms: C3_3  and  O3_21 
REMARK       I    between atoms: C6_6  and  C7_7 
REMARK       I    between atoms: C8_8  and  C9_9 
REMARK       I    between atoms: C10_10  and  C11_11 
REMARK       I    between atoms: C12_12  and  C13_13 
REMARK       I    between atoms: C14_14  and  C15_15 
REMARK       I    between atoms: C23_25  and  O23_43 
REMARK       I    between atoms: C26_28  and  C27_29 
REMARK       I    between atoms: C28_30  and  C29_31 
REMARK       I    between atoms: C30_32  and  C31_33 
REMARK       I    between atoms: C32_34  and  C33_35 
REMARK       I    between atoms: C34_36  and  C35_37 
ROOT
HETATM    1  C1  8UH 2 615     -48.117 150.211   9.158  1.00 79.94    -0.018 C 
HETATM    2  C2  8UH 2 615     -49.275 151.014   8.569  1.00 79.60     0.045 C 
HETATM    3  C3  8UH 2 615     -50.654 150.385   8.708  1.00 80.06     0.123 C 
HETATM    4  C4  8UH 2 615     -50.877 149.949  10.142  1.00 79.91     0.066 C 
HETATM    5  C5  8UH 2 615     -49.802 148.971  10.533  1.00 78.96    -0.074 C 
HETATM    6  C6  8UH 2 615     -48.530 149.154  10.165  1.00 78.99    -0.048 C 
HETATM    7  C7  8UH 2 615     -47.482 148.297  10.766  1.00 78.77     0.009 C 
HETATM    8  C8  8UH 2 615     -47.264 147.063  10.308  1.00 79.10     0.007 C 
HETATM    9  C9  8UH 2 615     -46.228 146.189  10.891  1.00 80.39    -0.062 C 
HETATM   10  C10 8UH 2 615     -46.084 144.951  10.397  1.00 81.39     0.007 C 
HETATM   11  C11 8UH 2 615     -45.089 144.004  10.895  1.00 81.92     0.001 C 
HETATM   12  C12 8UH 2 615     -44.992 142.836  10.267  1.00 82.76     0.007 C 
HETATM   13  C13 8UH 2 615     -44.021 141.796  10.653  1.00 83.90    -0.062 C 
HETATM   14  C14 8UH 2 615     -43.778 140.806   9.781  1.00 84.98     0.007 C 
HETATM   15  C15 8UH 2 615     -42.818 139.738  10.045  1.00 86.34     0.001 C 
HETATM   16  C16 8UH 2 615     -47.164 151.189   9.834  1.00 79.93     0.020 C 
HETATM   17  C17 8UH 2 615     -47.389 149.505   8.019  1.00 80.89     0.020 C 
HETATM   18  C18 8UH 2 615     -50.144 148.085  11.695  1.00 77.35     0.044 C 
HETATM   19  C19 8UH 2 615     -45.365 146.678  12.016  1.00 80.43     0.048 C 
HETATM   20  C20 8UH 2 615     -43.325 141.847  11.981  1.00 83.80     0.048 C 
HETATM   21  O3  8UH 2 615     -51.651 151.350   8.351  1.00 80.93    -0.395 OA
ATOM     22  H3  8UH 2 615     -52.512 150.957   8.438  1.00  0.00     0.210 HD
HETATM   23  C21 8UH 2 615     -34.898 130.376   7.634  1.00 48.79    -0.018 C 
HETATM   24  C22 8UH 2 615     -33.897 129.833   8.645  1.00 49.38     0.045 C 
HETATM   25  C23 8UH 2 615     -34.030 128.364   9.039  1.00 51.85     0.123 C 
HETATM   26  C24 8UH 2 615     -35.464 127.938   9.298  1.00 54.16     0.066 C 
HETATM   27  C25 8UH 2 615     -36.517 128.697   8.539  1.00 52.93    -0.074 C 
HETATM   28  C26 8UH 2 615     -36.302 129.863   7.907  1.00 53.44    -0.048 C 
HETATM   29  C27 8UH 2 615     -37.456 130.674   7.432  1.00 56.18     0.009 C 
HETATM   30  C28 8UH 2 615     -37.924 131.717   8.122  1.00 54.04     0.007 C 
HETATM   31  C29 8UH 2 615     -39.047 132.544   7.665  1.00 89.92    -0.062 C 
HETATM   32  C30 8UH 2 615     -39.333 133.659   8.351  1.00 89.40     0.007 C 
HETATM   33  C31 8UH 2 615     -40.410 134.570   7.981  1.00 87.93     0.001 C 
HETATM   34  C32 8UH 2 615     -40.549 135.658   8.731  1.00 87.59     0.007 C 
HETATM   35  C33 8UH 2 615     -41.573 136.686   8.476  1.00 88.80    -0.062 C 
HETATM   36  C34 8UH 2 615     -41.678 137.721   9.325  1.00 88.99     0.007 C 
HETATM   37  C35 8UH 2 615     -42.649 138.792   9.122  1.00 88.02     0.001 C 
HETATM   38  C36 8UH 2 615     -34.457 130.001   6.228  1.00 50.92     0.020 C 
HETATM   39  C37 8UH 2 615     -34.879 131.899   7.726  1.00 48.05     0.020 C 
HETATM   40  C38 8UH 2 615     -37.864 128.309   9.056  1.00 55.82     0.044 C 
HETATM   41  C39 8UH 2 615     -39.846 132.156   6.455  1.00 89.99     0.048 C 
HETATM   42  C40 8UH 2 615     -42.470 136.580   7.279  1.00 89.61     0.048 C 
HETATM   43  O23 8UH 2 615     -33.421 127.494   8.075  1.00 50.70    -0.395 OA
ATOM     44  H23 8UH 2 615     -33.504 126.580   8.320  1.00  0.00     0.210 HD
ENDROOT
TORSDOF 12
BEGIN_RES PHE A  61
REMARK  2 active torsions:
REMARK  status: ('A' for Active; 'I' for Inactive)
REMARK    1  A    between atoms: CA   and  CB  
REMARK    2  A    between atoms: CB   and  CG  
ROOT
ATOM      1  CA  PHE A  61     -36.237 128.293  12.768  1.00 39.40     0.164 C 
ENDROOT
BRANCH   1   2
ATOM      2  CB  PHE A  61     -36.813 128.951  11.509  1.00 39.41     0.058 C 
BRANCH   2   3
ATOM      3  CG  PHE A  61     -36.547 130.434  11.403  1.00 39.01    -0.020 A 
ATOM      4  CD2 PHE A  61     -35.255 130.918  11.278  1.00 40.32    -0.004 A 
ATOM      5  CE2 PHE A  61     -35.011 132.282  11.183  1.00 40.20    -0.000 A 
ATOM      6  CZ  PHE A  61     -36.057 133.177  11.208  1.00 40.34    -0.000 A 
ATOM      7  CE1 PHE A  61     -37.347 132.712  11.330  1.00 41.51    -0.000 A 
ATOM      8  CD1 PHE A  61     -37.591 131.348  11.431  1.00 39.94    -0.004 A 
ENDBRANCH   2   3
ENDBRANCH   1   2
END_RES PHE A  61
BEGIN_RES VAL A 134
REMARK  1 active torsions:
REMARK  status: ('A' for Active; 'I' for Inactive)
REMARK    3  A    between atoms: CA   and  CB  
ROOT
ATOM      9  CA  VAL A 134     -29.766 132.051   9.815  1.00 40.75     0.159 C 
ENDROOT
BRANCH   9  10
ATOM     10  CB  VAL A 134     -30.864 132.765   9.009  1.00 40.76     0.029 C 
ATOM     11  CG1 VAL A 134     -31.187 131.993   7.738  1.00 41.76     0.002 C 
ATOM     12  CG2 VAL A 134     -32.118 132.984   9.841  1.00 40.56     0.002 C 
ENDBRANCH   9  10
END_RES VAL A 134
BEGIN_RES TYR A 338
REMARK  3 active torsions:
REMARK  status: ('A' for Active; 'I' for Inactive)
REMARK    4  A    between atoms: CA   and  CB  
REMARK    5  A    between atoms: CB   and  CG  
REMARK    6  A    between atoms: CZ   and  OH  
ROOT
ATOM     13  CA  TYR A 338     -41.631 124.950   6.058  1.00 38.23     0.164 C 
ENDROOT
BRANCH  13  14
ATOM     14  CB  TYR A 338     -41.621 126.456   6.339  1.00 39.15     0.058 C 
BRANCH  14  15
ATOM     15  CG  TYR A 338     -40.407 127.208   5.844  1.00 39.03    -0.020 A 
ATOM     16  CD2 TYR A 338     -39.408 126.546   5.150  1.00 40.65    -0.002 A 
ATOM     17  CE2 TYR A 338     -38.274 127.201   4.695  1.00 40.91     0.024 A 
ATOM     18  CZ  TYR A 338     -38.120 128.553   4.934  1.00 42.33     0.089 A 
ATOM     19  CE1 TYR A 338     -39.107 129.238   5.621  1.00 40.63     0.024 A 
ATOM     20  CD1 TYR A 338     -40.228 128.562   6.079  1.00 39.27    -0.002 A 
BRANCH  18  21
ATOM     21  OH  TYR A 338     -37.008 129.210   4.486  1.00 43.36    -0.359 OA
ATOM     22  HH  TYR A 338     -36.141 128.863   4.662  1.00  0.00     0.217 HD
ENDBRANCH  18  21
ENDBRANCH  14  15
ENDBRANCH  13  14
END_RES TYR A 338
ENDMDL
