MODEL 1
REMARK VINA RESULT:    -9.298      0.000      0.000
REMARK INTER + INTRA:         -12.139
REMARK INTER:                  -9.298
REMARK INTRA:                  -2.841
REMARK UNBOUND:                -2.841
REMARK  0 active torsions:
REMARK  status: ('A' for Active; 'I' for Inactive)
REMARK       I    between atoms: C3_3  and  O3_21 
REMARK       I    between atoms: C6_6  and  C7_7 
REMARK       I    between atoms: C8_8  and  C9_9 
REMARK       I    between atoms: C10_10  and  C11_11 
REMARK       I    between atoms: C12_12  and  C13_13 
REMARK       I    between atoms: C14_14  and  C15_15 
REMARK       I    between atoms: C23_25  and  O23_43 
REMARK       I    between atoms: C26_28  and  C27_29 
REMARK       I    between atoms: C28_30  and  C29_31 
REMARK       I    between atoms: C30_32  and  C31_33 
REMARK       I    between atoms: C32_34  and  C33_35 
REMARK       I    between atoms: C34_36  and  C35_37 
ROOT
HETATM    1  C1  8UH E4621     -47.950 146.163  12.688  1.00 16.11    -0.017 A 
HETATM    2  C2  8UH E4621     -48.774 146.814  13.811  1.00 15.05     0.049 A 
HETATM    3  C3  8UH E4621     -48.170 147.931  14.654  1.00 18.47     0.142 A 
HETATM    4  C4  8UH E4621     -46.694 148.259  14.372  1.00 15.72     0.012 A 
HETATM    5  C5  8UH E4621     -45.915 147.573  13.302  1.00 14.51    -0.056 A 
HETATM    6  C6  8UH E4621     -46.455 146.601  12.510  1.00 15.74    -0.044 A 
HETATM    7  C7  8UH E4621     -45.708 145.887  11.443  1.00 14.17     0.009 C 
HETATM    8  C8  8UH E4621     -44.852 144.861  11.578  1.00 12.66     0.007 C 
HETATM    9  C9  8UH E4621     -44.094 144.212  10.515  1.00 13.35    -0.062 C 
HETATM   10  C10 8UH E4621     -43.397 143.101  10.838  1.00 14.12     0.007 C 
HETATM   11  C11 8UH E4621     -42.657 142.252   9.934  1.00 17.35     0.001 C 
HETATM   12  C12 8UH E4621     -42.081 141.100  10.357  1.00 16.42     0.007 C 
HETATM   13  C13 8UH E4621     -41.375 140.102   9.549  1.00 15.51    -0.062 C 
HETATM   14  C14 8UH E4621     -40.913 138.995  10.169  1.00 14.68     0.007 C 
HETATM   15  C15 8UH E4621     -40.253 137.877   9.565  1.00 15.30     0.001 C 
HETATM   16  C16 8UH E4621     -48.764 146.515  11.422  1.00 14.06     0.020 C 
HETATM   17  C17 8UH E4621     -48.040 144.633  12.911  1.00 11.15     0.020 C 
HETATM   18  C18 8UH E4621     -44.530 148.100  13.262  1.00 14.35     0.048 C 
HETATM   19  C19 8UH E4621     -44.209 144.773   9.122  1.00 12.51     0.048 C 
HETATM   20  C20 8UH E4621     -41.246 140.361   8.078  1.00 15.42     0.048 C 
HETATM   21  O3  8UH E4621     -48.962 149.107  14.552  1.00 20.70    -0.392 OA
ATOM     22  H3  8UH E4621     -48.585 149.803  15.077  1.00  0.00     0.210 HD
HETATM   23  C21 8UH E4621     -34.321 126.899   6.352  1.00 23.41    -0.018 C 
HETATM   24  C22 8UH E4621     -33.824 126.116   5.123  1.00 23.79     0.045 C 
HETATM   25  C23 8UH E4621     -32.925 126.787   4.090  1.00 23.28     0.123 C 
HETATM   26  C24 8UH E4621     -32.206 128.044   4.605  1.00 23.70     0.066 C 
HETATM   27  C25 8UH E4621     -32.705 128.776   5.818  1.00 23.84    -0.074 C 
HETATM   28  C26 8UH E4621     -33.681 128.284   6.662  1.00 22.99    -0.048 C 
HETATM   29  C27 8UH E4621     -34.186 128.981   7.875  1.00 20.55     0.009 C 
HETATM   30  C28 8UH E4621     -35.110 129.965   7.869  1.00 19.35     0.007 C 
HETATM   31  C29 8UH E4621     -35.637 130.755   8.983  1.00 19.82    -0.062 C 
HETATM   32  C30 8UH E4621     -36.542 131.729   8.741  1.00 18.83     0.007 C 
HETATM   33  C31 8UH E4621     -37.173 132.575   9.730  1.00 18.73     0.001 C 
HETATM   34  C32 8UH E4621     -37.909 133.663   9.371  1.00 18.34     0.007 C 
HETATM   35  C33 8UH E4621     -38.582 134.659  10.221  1.00 16.35    -0.062 C 
HETATM   36  C34 8UH E4621     -39.150 135.724   9.616  1.00 13.70     0.007 C 
HETATM   37  C35 8UH E4621     -39.800 136.835  10.267  1.00 15.99     0.001 C 
HETATM   38  C36 8UH E4621     -34.034 125.907   7.485  1.00 23.73     0.020 C 
HETATM   39  C37 8UH E4621     -35.842 127.043   6.222  1.00 23.42     0.020 C 
HETATM   40  C38 8UH E4621     -31.963 130.054   5.956  1.00 22.78     0.044 C 
HETATM   41  C39 8UH E4621     -35.069 130.471  10.346  1.00 19.63     0.048 C 
HETATM   42  C40 8UH E4621     -38.525 134.471  11.710  1.00 14.68     0.048 C 
HETATM   43  O23 8UH E4621     -31.987 125.850   3.575  1.00 21.52    -0.395 OA
ATOM     44  H23 8UH E4621     -32.432 125.073   3.257  1.00  0.00     0.210 HD
ENDROOT
TORSDOF 12
BEGIN_RES PHE A  61
REMARK  2 active torsions:
REMARK  status: ('A' for Active; 'I' for Inactive)
REMARK    1  A    between atoms: CA   and  CB  
REMARK    2  A    between atoms: CB   and  CG  
ROOT
ATOM      1  CA  PHE A  61     -36.237 128.293  12.768  1.00 39.40     0.164 C 
ENDROOT
BRANCH   1   2
ATOM      2  CB  PHE A  61     -36.813 128.951  11.509  1.00 39.41     0.058 C 
BRANCH   2   3
ATOM      3  CG  PHE A  61     -37.058 127.998  10.363  1.00 39.01    -0.020 A 
ATOM      4  CD2 PHE A  61     -36.284 126.859  10.208  1.00 40.32    -0.004 A 
ATOM      5  CE2 PHE A  61     -36.509 125.985   9.151  1.00 40.20    -0.000 A 
ATOM      6  CZ  PHE A  61     -37.510 126.238   8.242  1.00 40.34    -0.000 A 
ATOM      7  CE1 PHE A  61     -38.289 127.365   8.384  1.00 41.51    -0.000 A 
ATOM      8  CD1 PHE A  61     -38.061 128.242   9.436  1.00 39.94    -0.004 A 
ENDBRANCH   2   3
ENDBRANCH   1   2
END_RES PHE A  61
BEGIN_RES VAL A 134
REMARK  1 active torsions:
REMARK  status: ('A' for Active; 'I' for Inactive)
REMARK    3  A    between atoms: CA   and  CB  
ROOT
ATOM      9  CA  VAL A 134     -29.766 132.051   9.815  1.00 40.75     0.159 C 
ENDROOT
BRANCH   9  10
ATOM     10  CB  VAL A 134     -30.864 132.765   9.009  1.00 40.76     0.029 C 
ATOM     11  CG1 VAL A 134     -30.892 132.261   7.574  1.00 41.76     0.002 C 
ATOM     12  CG2 VAL A 134     -32.229 132.612   9.662  1.00 40.56     0.002 C 
ENDBRANCH   9  10
END_RES VAL A 134
BEGIN_RES TYR A 338
REMARK  3 active torsions:
REMARK  status: ('A' for Active; 'I' for Inactive)
REMARK    4  A    between atoms: CA   and  CB  
REMARK    5  A    between atoms: CB   and  CG  
REMARK    6  A    between atoms: CZ   and  OH  
ROOT
ATOM     13  CA  TYR A 338     -41.631 124.950   6.058  1.00 38.23     0.164 C 
ENDROOT
BRANCH  13  14
ATOM     14  CB  TYR A 338     -41.621 126.456   6.339  1.00 39.15     0.058 C 
BRANCH  14  15
ATOM     15  CG  TYR A 338     -40.415 127.211   5.829  1.00 39.03    -0.020 A 
ATOM     16  CD2 TYR A 338     -40.236 128.545   6.150  1.00 40.65    -0.002 A 
ATOM     17  CE2 TYR A 338     -39.150 129.272   5.688  1.00 40.91     0.024 A 
ATOM     18  CZ  TYR A 338     -38.209 128.661   4.880  1.00 42.33     0.089 A 
ATOM     19  CE1 TYR A 338     -38.363 127.327   4.549  1.00 40.63     0.024 A 
ATOM     20  CD1 TYR A 338     -39.464 126.621   5.011  1.00 39.27    -0.002 A 
BRANCH  18  21
ATOM     21  OH  TYR A 338     -37.132 129.367   4.422  1.00 43.36    -0.359 OA
ATOM     22  HH  TYR A 338     -37.166 130.315   4.367  1.00  0.00     0.217 HD
ENDBRANCH  18  21
ENDBRANCH  14  15
ENDBRANCH  13  14
END_RES TYR A 338
ENDMDL
MODEL 2
REMARK VINA RESULT:    -8.244      2.078      2.595
REMARK INTER + INTRA:         -11.085
REMARK INTER:                 -10.647
REMARK INTRA:                  -0.438
REMARK UNBOUND:                -2.841
REMARK  0 active torsions:
REMARK  status: ('A' for Active; 'I' for Inactive)
REMARK       I    between atoms: C3_3  and  O3_21 
REMARK       I    between atoms: C6_6  and  C7_7 
REMARK       I    between atoms: C8_8  and  C9_9 
REMARK       I    between atoms: C10_10  and  C11_11 
REMARK       I    between atoms: C12_12  and  C13_13 
REMARK       I    between atoms: C14_14  and  C15_15 
REMARK       I    between atoms: C23_25  and  O23_43 
REMARK       I    between atoms: C26_28  and  C27_29 
REMARK       I    between atoms: C28_30  and  C29_31 
REMARK       I    between atoms: C30_32  and  C31_33 
REMARK       I    between atoms: C32_34  and  C33_35 
REMARK       I    between atoms: C34_36  and  C35_37 
ROOT
HETATM    1  C1  8UH E4621     -50.835 145.635   9.271  1.00 16.11    -0.017 A 
HETATM    2  C2  8UH E4621     -51.942 146.223  10.162  1.00 15.05     0.049 A 
HETATM    3  C3  8UH E4621     -51.660 147.449  11.021  1.00 18.47     0.142 A 
HETATM    4  C4  8UH E4621     -50.208 147.956  11.009  1.00 15.72     0.012 A 
HETATM    5  C5  8UH E4621     -49.152 147.330  10.164  1.00 14.51    -0.056 A 
HETATM    6  C6  8UH E4621     -49.399 146.258   9.355  1.00 15.74    -0.044 A 
HETATM    7  C7  8UH E4621     -48.371 145.600   8.509  1.00 14.17     0.009 C 
HETATM    8  C8  8UH E4621     -47.442 144.705   8.882  1.00 12.66     0.007 C 
HETATM    9  C9  8UH E4621     -46.412 144.112   8.038  1.00 13.35    -0.062 C 
HETATM   10  C10 8UH E4621     -45.666 143.121   8.570  1.00 14.12     0.007 C 
HETATM   11  C11 8UH E4621     -44.661 142.336   7.891  1.00 17.35     0.001 C 
HETATM   12  C12 8UH E4621     -44.048 141.292   8.502  1.00 16.42     0.007 C 
HETATM   13  C13 8UH E4621     -43.077 140.359   7.921  1.00 15.51    -0.062 C 
HETATM   14  C14 8UH E4621     -42.621 139.354   8.699  1.00 14.68     0.007 C 
HETATM   15  C15 8UH E4621     -41.721 138.307   8.319  1.00 15.30     0.001 C 
HETATM   16  C16 8UH E4621     -51.413 145.815   7.849  1.00 14.06     0.020 C 
HETATM   17  C17 8UH E4621     -50.782 144.119   9.583  1.00 11.15     0.020 C 
HETATM   18  C18 8UH E4621     -47.861 148.034  10.356  1.00 14.35     0.048 C 
HETATM   19  C19 8UH E4621     -46.310 144.587   6.612  1.00 12.51     0.048 C 
HETATM   20  C20 8UH E4621     -42.687 140.563   6.489  1.00 15.42     0.048 C 
HETATM   21  O3  8UH E4621     -52.551 148.503  10.682  1.00 20.70    -0.392 OA
ATOM     22  H3  8UH E4621     -52.375 149.268  11.217  1.00  0.00     0.210 HD
HETATM   23  C21 8UH E4621     -33.980 128.075   7.132  1.00 23.41    -0.018 C 
HETATM   24  C22 8UH E4621     -33.155 127.308   6.083  1.00 23.79     0.045 C 
HETATM   25  C23 8UH E4621     -32.152 128.041   5.198  1.00 23.28     0.123 C 
HETATM   26  C24 8UH E4621     -31.709 129.406   5.750  1.00 23.70     0.066 C 
HETATM   27  C25 8UH E4621     -32.529 130.122   6.786  1.00 23.84    -0.074 C 
HETATM   28  C26 8UH E4621     -33.589 129.545   7.458  1.00 22.99    -0.048 C 
HETATM   29  C27 8UH E4621     -34.408 130.226   8.495  1.00 20.55     0.009 C 
HETATM   30  C28 8UH E4621     -35.425 131.077   8.238  1.00 19.35     0.007 C 
HETATM   31  C29 8UH E4621     -36.257 131.842   9.167  1.00 19.82    -0.062 C 
HETATM   32  C30 8UH E4621     -37.206 132.674   8.684  1.00 18.83     0.007 C 
HETATM   33  C31 8UH E4621     -38.121 133.476   9.466  1.00 18.73     0.001 C 
HETATM   34  C32 8UH E4621     -38.896 134.437   8.892  1.00 18.34     0.007 C 
HETATM   35  C33 8UH E4621     -39.842 135.375   9.520  1.00 16.35    -0.062 C 
HETATM   36  C34 8UH E4621     -40.399 136.324   8.740  1.00 13.70     0.007 C 
HETATM   37  C35 8UH E4621     -41.297 137.369   9.169  1.00 15.99     0.001 C 
HETATM   38  C36 8UH E4621     -33.811 127.184   8.367  1.00 23.73     0.020 C 
HETATM   39  C37 8UH E4621     -35.450 128.009   6.698  1.00 23.42     0.020 C 
HETATM   40  C38 8UH E4621     -31.990 131.493   6.972  1.00 22.78     0.044 C 
HETATM   41  C39 8UH E4621     -35.947 131.702  10.632  1.00 19.63     0.048 C 
HETATM   42  C40 8UH E4621     -40.064 135.267  11.002  1.00 14.68     0.048 C 
HETATM   43  O23 8UH E4621     -31.024 127.214   4.945  1.00 21.52    -0.395 OA
ATOM     44  H23 8UH E4621     -31.298 126.371   4.605  1.00  0.00     0.210 HD
ENDROOT
TORSDOF 12
BEGIN_RES PHE A  61
REMARK  2 active torsions:
REMARK  status: ('A' for Active; 'I' for Inactive)
REMARK    1  A    between atoms: CA   and  CB  
REMARK    2  A    between atoms: CB   and  CG  
ROOT
ATOM      1  CA  PHE A  61     -36.237 128.293  12.768  1.00 39.40     0.164 C 
ENDROOT
BRANCH   1   2
ATOM      2  CB  PHE A  61     -36.813 128.951  11.509  1.00 39.41     0.058 C 
BRANCH   2   3
ATOM      3  CG  PHE A  61     -37.029 128.004  10.353  1.00 39.01    -0.020 A 
ATOM      4  CD2 PHE A  61     -36.289 126.837  10.241  1.00 40.32    -0.004 A 
ATOM      5  CE2 PHE A  61     -36.486 125.969   9.175  1.00 40.20    -0.000 A 
ATOM      6  CZ  PHE A  61     -37.428 126.254   8.212  1.00 40.34    -0.000 A 
ATOM      7  CE1 PHE A  61     -38.173 127.408   8.311  1.00 41.51    -0.000 A 
ATOM      8  CD1 PHE A  61     -37.971 128.280   9.373  1.00 39.94    -0.004 A 
ENDBRANCH   2   3
ENDBRANCH   1   2
END_RES PHE A  61
BEGIN_RES VAL A 134
REMARK  1 active torsions:
REMARK  status: ('A' for Active; 'I' for Inactive)
REMARK    3  A    between atoms: CA   and  CB  
ROOT
ATOM      9  CA  VAL A 134     -29.766 132.051   9.815  1.00 40.75     0.159 C 
ENDROOT
BRANCH   9  10
ATOM     10  CB  VAL A 134     -30.864 132.765   9.009  1.00 40.76     0.029 C 
ATOM     11  CG1 VAL A 134     -32.136 132.900   9.834  1.00 41.76     0.002 C 
ATOM     12  CG2 VAL A 134     -30.399 134.123   8.508  1.00 40.56     0.002 C 
ENDBRANCH   9  10
END_RES VAL A 134
BEGIN_RES TYR A 338
REMARK  3 active torsions:
REMARK  status: ('A' for Active; 'I' for Inactive)
REMARK    4  A    between atoms: CA   and  CB  
REMARK    5  A    between atoms: CB   and  CG  
REMARK    6  A    between atoms: CZ   and  OH  
ROOT
ATOM     13  CA  TYR A 338     -41.631 124.950   6.058  1.00 38.23     0.164 C 
ENDROOT
BRANCH  13  14
ATOM     14  CB  TYR A 338     -41.621 126.456   6.339  1.00 39.15     0.058 C 
BRANCH  14  15
ATOM     15  CG  TYR A 338     -40.414 127.210   5.830  1.00 39.03    -0.020 A 
ATOM     16  CD2 TYR A 338     -40.256 128.555   6.118  1.00 40.65    -0.002 A 
ATOM     17  CE2 TYR A 338     -39.170 129.282   5.655  1.00 40.91     0.024 A 
ATOM     18  CZ  TYR A 338     -38.209 128.660   4.880  1.00 42.33     0.089 A 
ATOM     19  CE1 TYR A 338     -38.342 127.316   4.582  1.00 40.63     0.024 A 
ATOM     20  CD1 TYR A 338     -39.443 126.610   5.044  1.00 39.27    -0.002 A 
BRANCH  18  21
ATOM     21  OH  TYR A 338     -37.131 129.366   4.421  1.00 43.36    -0.359 OA
ATOM     22  HH  TYR A 338     -37.127 129.716   3.538  1.00  0.00     0.217 HD
ENDBRANCH  18  21
ENDBRANCH  14  15
ENDBRANCH  13  14
END_RES TYR A 338
ENDMDL
MODEL 3
REMARK VINA RESULT:    -6.534      1.873     17.115
REMARK INTER + INTRA:          -9.375
REMARK INTER:                  -8.991
REMARK INTRA:                  -0.384
REMARK UNBOUND:                -2.841
REMARK  0 active torsions:
REMARK  status: ('A' for Active; 'I' for Inactive)
REMARK       I    between atoms: C3_3  and  O3_21 
REMARK       I    between atoms: C6_6  and  C7_7 
REMARK       I    between atoms: C8_8  and  C9_9 
REMARK       I    between atoms: C10_10  and  C11_11 
REMARK       I    between atoms: C12_12  and  C13_13 
REMARK       I    between atoms: C14_14  and  C15_15 
REMARK       I    between atoms: C23_25  and  O23_43 
REMARK       I    between atoms: C26_28  and  C27_29 
REMARK       I    between atoms: C28_30  and  C29_31 
REMARK       I    between atoms: C30_32  and  C31_33 
REMARK       I    between atoms: C32_34  and  C33_35 
REMARK       I    between atoms: C34_36  and  C35_37 
ROOT
HETATM    1  C1  8UH E4621     -34.071 128.300   7.122  1.00 16.11    -0.017 A 
HETATM    2  C2  8UH E4621     -33.284 127.498   6.072  1.00 15.05     0.049 A 
HETATM    3  C3  8UH E4621     -31.864 127.908   5.703  1.00 18.47     0.142 A 
HETATM    4  C4  8UH E4621     -31.349 129.201   6.358  1.00 15.72     0.012 A 
HETATM    5  C5  8UH E4621     -32.160 129.976   7.339  1.00 14.51    -0.056 A 
HETATM    6  C6  8UH E4621     -33.418 129.597   7.713  1.00 15.74    -0.044 A 
HETATM    7  C7  8UH E4621     -34.261 130.349   8.677  1.00 14.17     0.009 C 
HETATM    8  C8  8UH E4621     -35.000 131.446   8.449  1.00 12.66     0.007 C 
HETATM    9  C9  8UH E4621     -35.779 132.193   9.429  1.00 13.35    -0.062 C 
HETATM   10  C10 8UH E4621     -36.571 133.185   8.969  1.00 14.12     0.007 C 
HETATM   11  C11 8UH E4621     -37.491 133.986   9.742  1.00 17.35     0.001 C 
HETATM   12  C12 8UH E4621     -38.314 134.887   9.151  1.00 16.42     0.007 C 
HETATM   13  C13 8UH E4621     -39.350 135.707   9.788  1.00 15.51    -0.062 C 
HETATM   14  C14 8UH E4621     -40.093 136.513   8.999  1.00 14.68     0.007 C 
HETATM   15  C15 8UH E4621     -41.185 137.347   9.402  1.00 15.30     0.001 C 
HETATM   16  C16 8UH E4621     -34.300 127.260   8.242  1.00 14.06     0.020 C 
HETATM   17  C17 8UH E4621     -35.442 128.632   6.482  1.00 11.15     0.020 C 
HETATM   18  C18 8UH E4621     -31.404 131.164   7.801  1.00 14.35     0.048 C 
HETATM   19  C19 8UH E4621     -35.712 131.752  10.868  1.00 12.51     0.048 C 
HETATM   20  C20 8UH E4621     -39.538 135.565  11.268  1.00 15.42     0.048 C 
HETATM   21  O3  8UH E4621     -30.962 126.839   5.954  1.00 20.70    -0.392 OA
ATOM     22  H3  8UH E4621     -30.076 127.094   5.724  1.00  0.00     0.210 HD
HETATM   23  C21 8UH E4621     -51.186 145.370  10.681  1.00 23.41    -0.018 C 
HETATM   24  C22 8UH E4621     -52.194 145.878  11.728  1.00 23.79     0.045 C 
HETATM   25  C23 8UH E4621     -51.710 146.430  13.066  1.00 23.28     0.123 C 
HETATM   26  C24 8UH E4621     -50.237 146.870  13.066  1.00 23.70     0.066 C 
HETATM   27  C25 8UH E4621     -49.282 146.371  12.019  1.00 23.84    -0.074 C 
HETATM   28  C26 8UH E4621     -49.675 145.675  10.893  1.00 22.99    -0.048 C 
HETATM   29  C27 8UH E4621     -48.753 145.179   9.837  1.00 20.55     0.009 C 
HETATM   30  C28 8UH E4621     -48.027 144.044   9.918  1.00 19.35     0.007 C 
HETATM   31  C29 8UH E4621     -47.054 143.490   8.975  1.00 19.82    -0.062 C 
HETATM   32  C30 8UH E4621     -46.406 142.344   9.279  1.00 18.83     0.007 C 
HETATM   33  C31 8UH E4621     -45.441 141.660   8.448  1.00 18.73     0.001 C 
HETATM   34  C32 8UH E4621     -44.689 140.631   8.929  1.00 18.34     0.007 C 
HETATM   35  C33 8UH E4621     -43.636 139.850   8.259  1.00 16.35    -0.062 C 
HETATM   36  C34 8UH E4621     -42.949 138.955   9.000  1.00 13.70     0.007 C 
HETATM   37  C35 8UH E4621     -41.845 138.139   8.553  1.00 15.99     0.001 C 
HETATM   38  C36 8UH E4621     -51.700 146.049   9.407  1.00 23.73     0.020 C 
HETATM   39  C37 8UH E4621     -51.399 143.859  10.532  1.00 23.42     0.020 C 
HETATM   40  C38 8UH E4621     -47.902 146.777  12.385  1.00 22.78     0.044 C 
HETATM   41  C39 8UH E4621     -46.781 144.291   7.731  1.00 19.63     0.048 C 
HETATM   42  C40 8UH E4621     -43.339 140.154   6.819  1.00 14.68     0.048 C 
HETATM   43  O23 8UH E4621     -52.550 147.495  13.489  1.00 21.52    -0.395 OA
ATOM     44  H23 8UH E4621     -53.461 147.222  13.488  1.00  0.00     0.210 HD
ENDROOT
TORSDOF 12
BEGIN_RES PHE A  61
REMARK  2 active torsions:
REMARK  status: ('A' for Active; 'I' for Inactive)
REMARK    1  A    between atoms: CA   and  CB  
REMARK    2  A    between atoms: CB   and  CG  
ROOT
ATOM      1  CA  PHE A  61     -36.237 128.293  12.768  1.00 39.40     0.164 C 
ENDROOT
BRANCH   1   2
ATOM      2  CB  PHE A  61     -36.813 128.951  11.509  1.00 39.41     0.058 C 
BRANCH   2   3
ATOM      3  CG  PHE A  61     -37.007 128.008  10.346  1.00 39.01    -0.020 A 
ATOM      4  CD2 PHE A  61     -36.295 126.822  10.264  1.00 40.32    -0.004 A 
ATOM      5  CE2 PHE A  61     -36.473 125.957   9.191  1.00 40.20    -0.000 A 
ATOM      6  CZ  PHE A  61     -37.366 126.267   8.191  1.00 40.34    -0.000 A 
ATOM      7  CE1 PHE A  61     -38.083 127.441   8.258  1.00 41.51    -0.000 A 
ATOM      8  CD1 PHE A  61     -37.901 128.309   9.327  1.00 39.94    -0.004 A 
ENDBRANCH   2   3
ENDBRANCH   1   2
END_RES PHE A  61
BEGIN_RES VAL A 134
REMARK  1 active torsions:
REMARK  status: ('A' for Active; 'I' for Inactive)
REMARK    3  A    between atoms: CA   and  CB  
ROOT
ATOM      9  CA  VAL A 134     -29.766 132.051   9.815  1.00 40.75     0.159 C 
ENDROOT
BRANCH   9  10
ATOM     10  CB  VAL A 134     -30.864 132.765   9.009  1.00 40.76     0.029 C 
ATOM     11  CG1 VAL A 134     -32.096 133.003   9.871  1.00 41.76     0.002 C 
ATOM     12  CG2 VAL A 134     -30.362 134.071   8.411  1.00 40.56     0.002 C 
ENDBRANCH   9  10
END_RES VAL A 134
BEGIN_RES TYR A 338
REMARK  3 active torsions:
REMARK  status: ('A' for Active; 'I' for Inactive)
REMARK    4  A    between atoms: CA   and  CB  
REMARK    5  A    between atoms: CB   and  CG  
REMARK    6  A    between atoms: CZ   and  OH  
ROOT
ATOM     13  CA  TYR A 338     -41.631 124.950   6.058  1.00 38.23     0.164 C 
ENDROOT
BRANCH  13  14
ATOM     14  CB  TYR A 338     -41.621 126.456   6.339  1.00 39.15     0.058 C 
BRANCH  14  15
ATOM     15  CG  TYR A 338     -40.421 127.213   5.818  1.00 39.03    -0.020 A 
ATOM     16  CD2 TYR A 338     -40.273 128.563   6.087  1.00 40.65    -0.002 A 
ATOM     17  CE2 TYR A 338     -39.193 129.291   5.612  1.00 40.91     0.024 A 
ATOM     18  CZ  TYR A 338     -38.228 128.667   4.845  1.00 42.33     0.089 A 
ATOM     19  CE1 TYR A 338     -38.351 127.317   4.567  1.00 40.63     0.024 A 
ATOM     20  CD1 TYR A 338     -39.445 126.609   5.040  1.00 39.27    -0.002 A 
BRANCH  18  21
ATOM     21  OH  TYR A 338     -37.156 129.374   4.376  1.00 43.36    -0.359 OA
ATOM     22  HH  TYR A 338     -37.218 130.314   4.252  1.00  0.00     0.217 HD
ENDBRANCH  18  21
ENDBRANCH  14  15
ENDBRANCH  13  14
END_RES TYR A 338
ENDMDL
