MODEL 1
REMARK VINA RESULT:   -12.007      0.000      0.000
REMARK INTER + INTRA:         -14.510
REMARK INTER:                 -12.007
REMARK INTRA:                  -2.503
REMARK UNBOUND:                -2.503
REMARK  0 active torsions:
REMARK  status: ('A' for Active; 'I' for Inactive)
REMARK       I    between atoms: C3_3  and  O3_21 
REMARK       I    between atoms: C6_6  and  C7_7 
REMARK       I    between atoms: C8_8  and  C9_9 
REMARK       I    between atoms: C10_10  and  C11_11 
REMARK       I    between atoms: C12_12  and  C13_13 
REMARK       I    between atoms: C14_14  and  C15_15 
REMARK       I    between atoms: C23_25  and  O23_43 
REMARK       I    between atoms: C26_28  and  C27_29 
REMARK       I    between atoms: C28_30  and  C29_31 
REMARK       I    between atoms: C30_32  and  C31_33 
REMARK       I    between atoms: C32_34  and  C33_35 
REMARK       I    between atoms: C34_36  and  C35_37 
ROOT
HETATM    1  C1  8UH F5620     -49.175 144.748  12.356  1.00 19.30    -0.018 C 
HETATM    2  C2  8UH F5620     -49.710 145.345  13.672  1.00 17.68     0.045 C 
HETATM    3  C3  8UH F5620     -48.924 146.467  14.342  1.00 17.79     0.123 C 
HETATM    4  C4  8UH F5620     -47.962 147.231  13.431  1.00 18.50     0.066 C 
HETATM    5  C5  8UH F5620     -47.312 146.506  12.298  1.00 19.40    -0.074 C 
HETATM    6  C6  8UH F5620     -47.853 145.346  11.778  1.00 19.02    -0.048 C 
HETATM    7  C7  8UH F5620     -47.205 144.622  10.674  1.00 18.60     0.009 C 
HETATM    8  C8  8UH F5620     -46.126 143.815  10.760  1.00 18.09     0.007 C 
HETATM    9  C9  8UH F5620     -45.403 143.185   9.652  1.00 18.23    -0.062 C 
HETATM   10  C10 8UH F5620     -44.407 142.326   9.959  1.00 15.81     0.007 C 
HETATM   11  C11 8UH F5620     -43.590 141.590   9.035  1.00 18.00     0.001 C 
HETATM   12  C12 8UH F5620     -42.762 140.638   9.493  1.00 18.12     0.007 C 
HETATM   13  C13 8UH F5620     -41.886 139.739   8.752  1.00 18.88    -0.062 C 
HETATM   14  C14 8UH F5620     -41.236 138.790   9.459  1.00 21.10     0.007 C 
HETATM   15  C15 8UH F5620     -40.391 137.739   8.958  1.00 24.06     0.001 C 
HETATM   16  C16 8UH F5620     -50.328 144.985  11.365  1.00 17.17     0.020 C 
HETATM   17  C17 8UH F5620     -49.039 143.224  12.573  1.00 16.95     0.020 C 
HETATM   18  C18 8UH F5620     -46.071 147.240  11.904  1.00 19.80     0.044 C 
HETATM   19  C19 8UH F5620     -45.856 143.501   8.244  1.00 17.09     0.048 C 
HETATM   20  C20 8UH F5620     -41.826 139.879   7.263  1.00 16.35     0.048 C 
HETATM   21  O3  8UH F5620     -49.809 147.371  14.978  1.00 17.38    -0.395 OA
ATOM     22  H3  8UH F5620     -49.320 148.070  15.395  1.00  0.00     0.210 HD
HETATM   23  C21 8UH F5620     -34.304 127.052   6.524  1.00 97.95    -0.018 C 
HETATM   24  C22 8UH F5620     -33.996 126.589   5.104  1.00 97.95     0.045 C 
HETATM   25  C23 8UH F5620     -32.924 127.347   4.339  1.00 97.95     0.123 C 
HETATM   26  C24 8UH F5620     -31.795 127.784   5.246  1.00 97.95     0.066 C 
HETATM   27  C25 8UH F5620     -32.361 128.608   6.363  1.00 97.95    -0.074 C 
HETATM   28  C26 8UH F5620     -33.497 128.255   6.976  1.00 97.95    -0.048 C 
HETATM   29  C27 8UH F5620     -34.006 129.038   8.126  1.00 97.95     0.009 C 
HETATM   30  C28 8UH F5620     -34.820 130.079   7.952  1.00 97.95     0.007 C 
HETATM   31  C29 8UH F5620     -35.376 130.891   9.069  1.00 26.61    -0.062 C 
HETATM   32  C30 8UH F5620     -36.190 131.913   8.733  1.00 25.24     0.007 C 
HETATM   33  C31 8UH F5620     -36.877 132.794   9.631  1.00 26.40     0.001 C 
HETATM   34  C32 8UH F5620     -37.631 133.813   9.177  1.00 26.29     0.007 C 
HETATM   35  C33 8UH F5620     -38.383 134.808   9.948  1.00 26.99    -0.062 C 
HETATM   36  C34 8UH F5620     -39.038 135.767   9.258  1.00 26.65     0.007 C 
HETATM   37  C35 8UH F5620     -39.830 136.845   9.780  1.00 25.43     0.001 C 
HETATM   38  C36 8UH F5620     -34.077 125.853   7.440  1.00 97.95     0.020 C 
HETATM   39  C37 8UH F5620     -35.775 127.442   6.584  1.00 97.95     0.020 C 
HETATM   40  C38 8UH F5620     -31.508 129.754   6.822  1.00 97.95     0.044 C 
HETATM   41  C39 8UH F5620     -35.007 130.539  10.489  1.00 26.87     0.048 C 
HETATM   42  C40 8UH F5620     -38.352 134.707  11.444  1.00 24.17     0.048 C 
HETATM   43  O23 8UH F5620     -32.376 126.490   3.332  1.00 97.95    -0.395 OA
ATOM     44  H23 8UH F5620     -33.086 126.215   2.763  1.00  0.00     0.210 HD
ENDROOT
TORSDOF 12
BEGIN_RES PHE A  61
REMARK  2 active torsions:
REMARK  status: ('A' for Active; 'I' for Inactive)
REMARK    1  A    between atoms: CA   and  CB  
REMARK    2  A    between atoms: CB   and  CG  
ROOT
ATOM      1  CA  PHE A  61     -36.237 128.293  12.768  1.00 39.40     0.164 C 
ENDROOT
BRANCH   1   2
ATOM      2  CB  PHE A  61     -36.813 128.951  11.509  1.00 39.41     0.058 C 
BRANCH   2   3
ATOM      3  CG  PHE A  61     -37.074 127.995  10.369  1.00 39.01    -0.020 A 
ATOM      4  CD2 PHE A  61     -36.356 126.816  10.250  1.00 40.32    -0.004 A 
ATOM      5  CE2 PHE A  61     -36.595 125.940   9.199  1.00 40.20    -0.000 A 
ATOM      6  CZ  PHE A  61     -37.557 126.230   8.259  1.00 40.34    -0.000 A 
ATOM      7  CE1 PHE A  61     -38.282 127.396   8.365  1.00 41.51    -0.000 A 
ATOM      8  CD1 PHE A  61     -38.038 128.276   9.411  1.00 39.94    -0.004 A 
ENDBRANCH   2   3
ENDBRANCH   1   2
END_RES PHE A  61
BEGIN_RES VAL A 134
REMARK  1 active torsions:
REMARK  status: ('A' for Active; 'I' for Inactive)
REMARK    3  A    between atoms: CA   and  CB  
ROOT
ATOM      9  CA  VAL A 134     -29.766 132.051   9.815  1.00 40.75     0.159 C 
ENDROOT
BRANCH   9  10
ATOM     10  CB  VAL A 134     -30.864 132.765   9.009  1.00 40.76     0.029 C 
ATOM     11  CG1 VAL A 134     -30.847 132.310   7.557  1.00 41.76     0.002 C 
ATOM     12  CG2 VAL A 134     -32.239 132.555   9.625  1.00 40.56     0.002 C 
ENDBRANCH   9  10
END_RES VAL A 134
BEGIN_RES TYR A 338
REMARK  3 active torsions:
REMARK  status: ('A' for Active; 'I' for Inactive)
REMARK    4  A    between atoms: CA   and  CB  
REMARK    5  A    between atoms: CB   and  CG  
REMARK    6  A    between atoms: CZ   and  OH  
ROOT
ATOM     13  CA  TYR A 338     -41.631 124.950   6.058  1.00 38.23     0.164 C 
ENDROOT
BRANCH  13  14
ATOM     14  CB  TYR A 338     -41.621 126.456   6.339  1.00 39.15     0.058 C 
BRANCH  14  15
ATOM     15  CG  TYR A 338     -40.411 127.209   5.836  1.00 39.03    -0.020 A 
ATOM     16  CD2 TYR A 338     -40.250 128.553   6.129  1.00 40.65    -0.002 A 
ATOM     17  CE2 TYR A 338     -39.161 129.278   5.671  1.00 40.91     0.024 A 
ATOM     18  CZ  TYR A 338     -38.200 128.657   4.897  1.00 42.33     0.089 A 
ATOM     19  CE1 TYR A 338     -38.336 127.314   4.594  1.00 40.63     0.024 A 
ATOM     20  CD1 TYR A 338     -39.439 126.609   5.050  1.00 39.27    -0.002 A 
BRANCH  18  21
ATOM     21  OH  TYR A 338     -37.120 129.362   4.443  1.00 43.36    -0.359 OA
ATOM     22  HH  TYR A 338     -36.539 129.799   5.056  1.00  0.00     0.217 HD
ENDBRANCH  18  21
ENDBRANCH  14  15
ENDBRANCH  13  14
END_RES TYR A 338
ENDMDL
