MODEL 1
REMARK VINA RESULT:    -8.843      0.000      0.000
REMARK INTER + INTRA:         -11.636
REMARK INTER:                  -8.843
REMARK INTRA:                  -2.794
REMARK UNBOUND:                -2.794
REMARK  0 active torsions:
REMARK  status: ('A' for Active; 'I' for Inactive)
REMARK       I    between atoms: C3_3  and  O3_21 
REMARK       I    between atoms: C6_6  and  C7_7 
REMARK       I    between atoms: C8_8  and  C9_9 
REMARK       I    between atoms: C10_10  and  C11_11 
REMARK       I    between atoms: C12_12  and  C13_13 
REMARK       I    between atoms: C14_14  and  C15_15 
REMARK       I    between atoms: C23_25  and  O23_43 
REMARK       I    between atoms: C26_28  and  C27_29 
REMARK       I    between atoms: C28_30  and  C29_31 
REMARK       I    between atoms: C30_32  and  C31_33 
REMARK       I    between atoms: C32_34  and  C33_35 
REMARK       I    between atoms: C34_36  and  C35_37 
ROOT
HETATM    1  C1  8UH 61620     -34.455 127.892   6.479  1.00 97.95    -0.018 C 
HETATM    2  C2  8UH 61620     -33.742 127.587   5.166  1.00 97.95     0.045 C 
HETATM    3  C3  8UH 61620     -32.365 128.196   4.962  1.00 97.95     0.123 C 
HETATM    4  C4  8UH 61620     -31.576 128.236   6.251  1.00 97.95     0.066 C 
HETATM    5  C5  8UH 61620     -32.363 128.990   7.279  1.00 97.95    -0.074 C 
HETATM    6  C6  8UH 61620     -33.683 128.809   7.409  1.00 97.95    -0.048 C 
HETATM    7  C7  8UH 61620     -34.437 129.504   8.479  1.00 97.95     0.009 C 
HETATM    8  C8  8UH 61620     -34.965 130.712   8.281  1.00 97.95     0.007 C 
HETATM    9  C9  8UH 61620     -35.727 131.415   9.314  1.00 97.95    -0.062 C 
HETATM   10  C10 8UH 61620     -36.278 132.574   8.962  1.00 97.95     0.007 C 
HETATM   11  C11 8UH 61620     -37.077 133.388   9.859  1.00 97.95     0.001 C 
HETATM   12  C12 8UH 61620     -37.525 134.506   9.314  1.00 97.95     0.007 C 
HETATM   13  C13 8UH 61620     -38.378 135.468  10.021  1.00 97.95    -0.062 C 
HETATM   14  C14 8UH 61620     -39.002 136.353   9.246  1.00 97.95     0.007 C 
HETATM   15  C15 8UH 61620     -39.918 137.353   9.760  1.00 97.95     0.001 C 
HETATM   16  C16 8UH 61620     -34.756 126.551   7.140  1.00 97.95     0.020 C 
HETATM   17  C17 8UH 61620     -35.773 128.582   6.150  1.00 97.95     0.020 C 
HETATM   18  C18 8UH 61620     -31.561 129.841   8.218  1.00 97.95     0.044 C 
HETATM   19  C19 8UH 61620     -35.880 130.850  10.693  1.00 97.95     0.048 C 
HETATM   20  C20 8UH 61620     -38.548 135.448  11.509  1.00 97.95     0.048 C 
HETATM   21  O3  8UH 61620     -31.638 127.398   4.022  1.00 97.95    -0.395 OA
ATOM     22  H3  8UH 61620     -32.134 127.373   3.213  1.00  0.00     0.210 HD
HETATM   23  C21 8UH 61620     -49.799 144.866   9.569  1.00 15.23    -0.018 C 
HETATM   24  C22 8UH 61620     -50.497 144.419  10.838  1.00 15.23     0.045 C 
HETATM   25  C23 8UH 61620     -49.601 144.308  12.044  1.00 15.23     0.123 C 
HETATM   26  C24 8UH 61620     -48.767 145.553  12.110  1.00 15.23     0.066 C 
HETATM   27  C25 8UH 61620     -47.892 145.660  10.900  1.00 15.23    -0.074 C 
HETATM   28  C26 8UH 61620     -48.344 145.228   9.720  1.00 15.23    -0.048 C 
HETATM   29  C27 8UH 61620     -47.434 144.805   8.651  1.00 15.23     0.009 C 
HETATM   30  C28 8UH 61620     -46.577 143.869   9.068  1.00 15.23     0.007 C 
HETATM   31  C29 8UH 61620     -45.704 143.144   8.131  1.00 97.95    -0.062 C 
HETATM   32  C30 8UH 61620     -44.922 142.230   8.693  1.00 97.95     0.007 C 
HETATM   33  C31 8UH 61620     -43.988 141.378   7.983  1.00 97.95     0.001 C 
HETATM   34  C32 8UH 61620     -43.328 140.571   8.794  1.00 97.95     0.007 C 
HETATM   35  C33 8UH 61620     -42.337 139.606   8.326  1.00 97.95    -0.062 C 
HETATM   36  C34 8UH 61620     -41.725 138.866   9.250  1.00 97.95     0.007 C 
HETATM   37  C35 8UH 61620     -40.740 137.874   8.862  1.00 97.95     0.001 C 
HETATM   38  C36 8UH 61620     -50.473 146.156   9.144  1.00 15.23     0.020 C 
HETATM   39  C37 8UH 61620     -49.984 143.783   8.521  1.00 15.23     0.020 C 
HETATM   40  C38 8UH 61620     -46.450 145.941  11.204  1.00 15.23     0.044 C 
HETATM   41  C39 8UH 61620     -45.705 143.405   6.656  1.00 97.95     0.048 C 
HETATM   42  C40 8UH 61620     -42.032 139.467   6.868  1.00 97.95     0.048 C 
HETATM   43  O23 8UH 61620     -50.399 144.280  13.222  1.00 15.23    -0.395 OA
ATOM     44  H23 8UH 61620     -50.927 143.491  13.180  1.00  0.00     0.210 HD
ENDROOT
TORSDOF 12
BEGIN_RES PHE A  61
REMARK  2 active torsions:
REMARK  status: ('A' for Active; 'I' for Inactive)
REMARK    1  A    between atoms: CA   and  CB  
REMARK    2  A    between atoms: CB   and  CG  
ROOT
ATOM      1  CA  PHE A  61     -36.237 128.293  12.768  1.00 39.40     0.164 C 
ENDROOT
BRANCH   1   2
ATOM      2  CB  PHE A  61     -36.813 128.951  11.509  1.00 39.41     0.058 C 
BRANCH   2   3
ATOM      3  CG  PHE A  61     -37.030 128.004  10.353  1.00 39.01    -0.020 A 
ATOM      4  CD2 PHE A  61     -36.266 126.855  10.222  1.00 40.32    -0.004 A 
ATOM      5  CE2 PHE A  61     -36.464 125.986   9.156  1.00 40.20    -0.000 A 
ATOM      6  CZ  PHE A  61     -37.431 126.253   8.214  1.00 40.34    -0.000 A 
ATOM      7  CE1 PHE A  61     -38.200 127.389   8.331  1.00 41.51    -0.000 A 
ATOM      8  CD1 PHE A  61     -37.997 128.262   9.393  1.00 39.94    -0.004 A 
ENDBRANCH   2   3
ENDBRANCH   1   2
END_RES PHE A  61
BEGIN_RES VAL A 134
REMARK  1 active torsions:
REMARK  status: ('A' for Active; 'I' for Inactive)
REMARK    3  A    between atoms: CA   and  CB  
ROOT
ATOM      9  CA  VAL A 134     -29.766 132.051   9.815  1.00 40.75     0.159 C 
ENDROOT
BRANCH   9  10
ATOM     10  CB  VAL A 134     -30.864 132.765   9.009  1.00 40.76     0.029 C 
ATOM     11  CG1 VAL A 134     -30.886 132.267   7.571  1.00 41.76     0.002 C 
ATOM     12  CG2 VAL A 134     -32.230 132.605   9.657  1.00 40.56     0.002 C 
ENDBRANCH   9  10
END_RES VAL A 134
BEGIN_RES TYR A 338
REMARK  3 active torsions:
REMARK  status: ('A' for Active; 'I' for Inactive)
REMARK    4  A    between atoms: CA   and  CB  
REMARK    5  A    between atoms: CB   and  CG  
REMARK    6  A    between atoms: CZ   and  OH  
ROOT
ATOM     13  CA  TYR A 338     -41.631 124.950   6.058  1.00 38.23     0.164 C 
ENDROOT
BRANCH  13  14
ATOM     14  CB  TYR A 338     -41.621 126.456   6.339  1.00 39.15     0.058 C 
BRANCH  14  15
ATOM     15  CG  TYR A 338     -40.433 127.217   5.796  1.00 39.03    -0.020 A 
ATOM     16  CD2 TYR A 338     -40.284 128.567   6.063  1.00 40.65    -0.002 A 
ATOM     17  CE2 TYR A 338     -39.216 129.299   5.569  1.00 40.91     0.024 A 
ATOM     18  CZ  TYR A 338     -38.264 128.679   4.782  1.00 42.33     0.089 A 
ATOM     19  CE1 TYR A 338     -38.389 127.329   4.505  1.00 40.63     0.024 A 
ATOM     20  CD1 TYR A 338     -39.471 126.617   4.998  1.00 39.27    -0.002 A 
BRANCH  18  21
ATOM     21  OH  TYR A 338     -37.204 129.390   4.293  1.00 43.36    -0.359 OA
ATOM     22  HH  TYR A 338     -37.337 130.252   3.916  1.00  0.00     0.217 HD
ENDBRANCH  18  21
ENDBRANCH  14  15
ENDBRANCH  13  14
END_RES TYR A 338
ENDMDL
MODEL 2
REMARK VINA RESULT:    -7.851      1.739     16.067
REMARK INTER + INTRA:         -10.645
REMARK INTER:                  -7.608
REMARK INTRA:                  -3.037
REMARK UNBOUND:                -2.794
REMARK  0 active torsions:
REMARK  status: ('A' for Active; 'I' for Inactive)
REMARK       I    between atoms: C3_3  and  O3_21 
REMARK       I    between atoms: C6_6  and  C7_7 
REMARK       I    between atoms: C8_8  and  C9_9 
REMARK       I    between atoms: C10_10  and  C11_11 
REMARK       I    between atoms: C12_12  and  C13_13 
REMARK       I    between atoms: C14_14  and  C15_15 
REMARK       I    between atoms: C23_25  and  O23_43 
REMARK       I    between atoms: C26_28  and  C27_29 
REMARK       I    between atoms: C28_30  and  C29_31 
REMARK       I    between atoms: C30_32  and  C31_33 
REMARK       I    between atoms: C32_34  and  C33_35 
REMARK       I    between atoms: C34_36  and  C35_37 
ROOT
HETATM    1  C1  8UH 61620     -49.161 146.209   8.235  1.00 97.95    -0.018 C 
HETATM    2  C2  8UH 61620     -50.660 145.991   8.407  1.00 97.95     0.045 C 
HETATM    3  C3  8UH 61620     -51.212 146.020   9.822  1.00 97.95     0.123 C 
HETATM    4  C4  8UH 61620     -50.502 147.045  10.677  1.00 97.95     0.066 C 
HETATM    5  C5  8UH 61620     -49.032 146.751  10.667  1.00 97.95    -0.074 C 
HETATM    6  C6  8UH 61620     -48.406 146.399   9.538  1.00 97.95    -0.048 C 
HETATM    7  C7  8UH 61620     -46.940 146.185   9.525  1.00 97.95     0.009 C 
HETATM    8  C8  8UH 61620     -46.412 144.990   9.790  1.00 97.95     0.007 C 
HETATM    9  C9  8UH 61620     -44.969 144.746   9.769  1.00 97.95    -0.062 C 
HETATM   10  C10 8UH 61620     -44.575 143.490   9.962  1.00 97.95     0.007 C 
HETATM   11  C11 8UH 61620     -43.184 143.075   9.957  1.00 97.95     0.001 C 
HETATM   12  C12 8UH 61620     -43.008 141.784  10.176  1.00 97.95     0.007 C 
HETATM   13  C13 8UH 61620     -41.693 141.134  10.185  1.00 97.95    -0.062 C 
HETATM   14  C14 8UH 61620     -41.712 139.806  10.089  1.00 97.95     0.007 C 
HETATM   15  C15 8UH 61620     -40.511 138.995  10.039  1.00 97.95     0.001 C 
HETATM   16  C16 8UH 61620     -48.993 147.411   7.312  1.00 97.95     0.020 C 
HETATM   17  C17 8UH 61620     -48.582 144.979   7.549  1.00 97.95     0.020 C 
HETATM   18  C18 8UH 61620     -48.309 147.006  11.955  1.00 97.95     0.044 C 
HETATM   19  C19 8UH 61620     -43.991 145.858   9.537  1.00 97.95     0.048 C 
HETATM   20  C20 8UH 61620     -40.415 141.911  10.278  1.00 97.95     0.048 C 
HETATM   21  O3  8UH 61620     -52.600 146.369   9.774  1.00 97.95    -0.395 OA
ATOM     22  H3  8UH 61620     -53.046 145.725   9.236  1.00  0.00     0.210 HD
HETATM   23  C21 8UH 61620     -33.442 129.373   6.639  1.00 15.23    -0.018 C 
HETATM   24  C22 8UH 61620     -32.266 130.110   6.028  1.00 15.23     0.045 C 
HETATM   25  C23 8UH 61620     -31.728 131.241   6.865  1.00 15.23     0.123 C 
HETATM   26  C24 8UH 61620     -31.579 130.738   8.271  1.00 15.23     0.066 C 
HETATM   27  C25 8UH 61620     -32.913 130.352   8.831  1.00 15.23    -0.074 C 
HETATM   28  C26 8UH 61620     -33.832 129.810   8.028  1.00 15.23    -0.048 C 
HETATM   29  C27 8UH 61620     -35.265 129.896   8.325  1.00 15.23     0.009 C 
HETATM   30  C28 8UH 61620     -35.660 131.157   8.516  1.00 15.23     0.007 C 
HETATM   31  C29 8UH 61620     -37.082 131.517   8.626  1.00 97.95    -0.062 C 
HETATM   32  C30 8UH 61620     -37.318 132.813   8.795  1.00 97.95     0.007 C 
HETATM   33  C31 8UH 61620     -38.631 133.416   8.915  1.00 97.95     0.001 C 
HETATM   34  C32 8UH 61620     -38.568 134.724   9.090  1.00 97.95     0.007 C 
HETATM   35  C33 8UH 61620     -39.752 135.567   9.227  1.00 97.95    -0.062 C 
HETATM   36  C34 8UH 61620     -39.552 136.870   9.423  1.00 97.95     0.007 C 
HETATM   37  C35 8UH 61620     -40.679 137.775   9.552  1.00 97.95     0.001 C 
HETATM   38  C36 8UH 61620     -33.002 127.931   6.801  1.00 15.23     0.020 C 
HETATM   39  C37 8UH 61620     -34.616 129.482   5.684  1.00 15.23     0.020 C 
HETATM   40  C38 8UH 61620     -33.204 130.926  10.186  1.00 15.23     0.044 C 
HETATM   41  C39 8UH 61620     -38.183 130.504   8.542  1.00 97.95     0.048 C 
HETATM   42  C40 8UH 61620     -41.126 134.978   9.151  1.00 97.95     0.048 C 
HETATM   43  O23 8UH 61620     -30.425 131.585   6.408  1.00 15.23    -0.395 OA
ATOM     44  H23 8UH 61620     -30.519 131.903   5.518  1.00  0.00     0.210 HD
ENDROOT
TORSDOF 12
BEGIN_RES PHE A  61
REMARK  2 active torsions:
REMARK  status: ('A' for Active; 'I' for Inactive)
REMARK    1  A    between atoms: CA   and  CB  
REMARK    2  A    between atoms: CB   and  CG  
ROOT
ATOM      1  CA  PHE A  61     -36.237 128.293  12.768  1.00 39.40     0.164 C 
ENDROOT
BRANCH   1   2
ATOM      2  CB  PHE A  61     -36.813 128.951  11.509  1.00 39.41     0.058 C 
BRANCH   2   3
ATOM      3  CG  PHE A  61     -36.743 128.093  10.269  1.00 39.01    -0.020 A 
ATOM      4  CD2 PHE A  61     -37.834 127.975   9.422  1.00 40.32    -0.004 A 
ATOM      5  CE2 PHE A  61     -37.769 127.182   8.283  1.00 40.20    -0.000 A 
ATOM      6  CZ  PHE A  61     -36.612 126.503   7.975  1.00 40.34    -0.000 A 
ATOM      7  CE1 PHE A  61     -35.519 126.611   8.805  1.00 41.51    -0.000 A 
ATOM      8  CD1 PHE A  61     -35.585 127.398   9.948  1.00 39.94    -0.004 A 
ENDBRANCH   2   3
ENDBRANCH   1   2
END_RES PHE A  61
BEGIN_RES VAL A 134
REMARK  1 active torsions:
REMARK  status: ('A' for Active; 'I' for Inactive)
REMARK    3  A    between atoms: CA   and  CB  
ROOT
ATOM      9  CA  VAL A 134     -29.766 132.051   9.815  1.00 40.75     0.159 C 
ENDROOT
BRANCH   9  10
ATOM     10  CB  VAL A 134     -30.864 132.765   9.009  1.00 40.76     0.029 C 
ATOM     11  CG1 VAL A 134     -31.976 133.251   9.927  1.00 41.76     0.002 C 
ATOM     12  CG2 VAL A 134     -30.300 133.915   8.188  1.00 40.56     0.002 C 
ENDBRANCH   9  10
END_RES VAL A 134
BEGIN_RES TYR A 338
REMARK  3 active torsions:
REMARK  status: ('A' for Active; 'I' for Inactive)
REMARK    4  A    between atoms: CA   and  CB  
REMARK    5  A    between atoms: CB   and  CG  
REMARK    6  A    between atoms: CZ   and  OH  
ROOT
ATOM     13  CA  TYR A 338     -41.631 124.950   6.058  1.00 38.23     0.164 C 
ENDROOT
BRANCH  13  14
ATOM     14  CB  TYR A 338     -41.621 126.456   6.339  1.00 39.15     0.058 C 
BRANCH  14  15
ATOM     15  CG  TYR A 338     -40.403 127.206   5.852  1.00 39.03    -0.020 A 
ATOM     16  CD2 TYR A 338     -40.233 128.545   6.163  1.00 40.65    -0.002 A 
ATOM     17  CE2 TYR A 338     -39.136 129.267   5.721  1.00 40.91     0.024 A 
ATOM     18  CZ  TYR A 338     -38.175 128.649   4.943  1.00 42.33     0.089 A 
ATOM     19  CE1 TYR A 338     -38.320 127.311   4.622  1.00 40.63     0.024 A 
ATOM     20  CD1 TYR A 338     -39.431 126.609   5.064  1.00 39.27    -0.002 A 
BRANCH  18  21
ATOM     21  OH  TYR A 338     -37.087 129.351   4.504  1.00 43.36    -0.359 OA
ATOM     22  HH  TYR A 338     -37.200 130.118   3.956  1.00  0.00     0.217 HD
ENDBRANCH  18  21
ENDBRANCH  14  15
ENDBRANCH  13  14
END_RES TYR A 338
ENDMDL
