MODEL 1
REMARK VINA RESULT:    -8.852      0.000      0.000
REMARK INTER + INTRA:         -11.942
REMARK INTER:                  -8.852
REMARK INTRA:                  -3.089
REMARK UNBOUND:                -3.089
REMARK  0 active torsions:
REMARK  status: ('A' for Active; 'I' for Inactive)
REMARK       I    between atoms: C3_3  and  O3_21 
REMARK       I    between atoms: C6_6  and  C7_7 
REMARK       I    between atoms: C8_8  and  C9_9 
REMARK       I    between atoms: C10_10  and  C11_11 
REMARK       I    between atoms: C12_12  and  C13_13 
REMARK       I    between atoms: C14_14  and  C15_15 
REMARK       I    between atoms: C23_25  and  O23_43 
REMARK       I    between atoms: C26_28  and  C27_29 
REMARK       I    between atoms: C28_30  and  C29_31 
REMARK       I    between atoms: C30_32  and  C31_33 
REMARK       I    between atoms: C32_34  and  C33_35 
REMARK       I    between atoms: C34_36  and  C35_37 
ROOT
HETATM    1  C1  8UH 31620     -50.268 142.228  13.016  1.00 70.34    -0.018 C 
HETATM    2  C2  8UH 31620     -50.296 143.011  14.314  1.00 70.34     0.045 C 
HETATM    3  C3  8UH 31620     -50.581 144.498  14.199  1.00 70.34     0.123 C 
HETATM    4  C4  8UH 31620     -49.814 145.161  13.071  1.00 70.34     0.066 C 
HETATM    5  C5  8UH 31620     -49.468 144.303  11.890  1.00 70.34    -0.074 C 
HETATM    6  C6  8UH 31620     -49.595 142.973  11.886  1.00 70.34    -0.048 C 
HETATM    7  C7  8UH 31620     -49.113 142.171  10.736  1.00 70.34     0.009 C 
HETATM    8  C8  8UH 31620     -47.906 141.615  10.705  1.00 70.34     0.007 C 
HETATM    9  C9  8UH 31620     -47.454 140.806   9.574  1.00 70.34    -0.062 C 
HETATM   10  C10 8UH 31620     -46.215 140.336   9.660  1.00 70.34     0.007 C 
HETATM   11  C11 8UH 31620     -45.571 139.493   8.675  1.00 70.34     0.001 C 
HETATM   12  C12 8UH 31620     -44.541 138.836   9.182  1.00 70.34     0.007 C 
HETATM   13  C13 8UH 31620     -43.712 137.897   8.426  1.00 70.34    -0.062 C 
HETATM   14  C14 8UH 31620     -42.747 137.285   9.102  1.00 70.34     0.007 C 
HETATM   15  C15 8UH 31620     -41.866 136.317   8.478  1.00 70.34     0.001 C 
HETATM   16  C16 8UH 31620     -51.694 141.837  12.652  1.00 70.34     0.020 C 
HETATM   17  C17 8UH 31620     -49.456 140.968  13.291  1.00 70.34     0.020 C 
HETATM   18  C18 8UH 31620     -48.667 145.030  10.850  1.00 70.34     0.044 C 
HETATM   19  C19 8UH 31620     -48.360 140.527   8.418  1.00 70.34     0.048 C 
HETATM   20  C20 8UH 31620     -43.944 137.636   6.971  1.00 70.34     0.048 C 
HETATM   21  O3  8UH 31620     -51.981 144.752  14.058  1.00 70.34    -0.395 OA
ATOM     22  H3  8UH 31620     -52.462 144.336  14.765  1.00  0.00     0.210 HD
HETATM   23  C21 8UH 31620     -34.343 126.799   6.237  1.00 16.14    -0.018 C 
HETATM   24  C22 8UH 31620     -33.855 126.036   5.006  1.00 16.14     0.045 C 
HETATM   25  C23 8UH 31620     -32.935 126.786   4.060  1.00 16.14     0.123 C 
HETATM   26  C24 8UH 31620     -31.919 127.590   4.837  1.00 16.14     0.066 C 
HETATM   27  C25 8UH 31620     -32.662 128.564   5.700  1.00 16.14    -0.074 C 
HETATM   28  C26 8UH 31620     -33.700 128.159   6.441  1.00 16.14    -0.048 C 
HETATM   29  C27 8UH 31620     -34.218 129.044   7.509  1.00 16.14     0.009 C 
HETATM   30  C28 8UH 31620     -35.110 130.015   7.295  1.00 16.14     0.007 C 
HETATM   31  C29 8UH 31620     -35.578 130.866   8.396  1.00 70.34    -0.062 C 
HETATM   32  C30 8UH 31620     -36.614 131.646   8.112  1.00 70.34     0.007 C 
HETATM   33  C31 8UH 31620     -37.237 132.559   9.053  1.00 70.34     0.001 C 
HETATM   34  C32 8UH 31620     -38.259 133.216   8.530  1.00 70.34     0.007 C 
HETATM   35  C33 8UH 31620     -39.062 134.194   9.263  1.00 70.34    -0.062 C 
HETATM   36  C34 8UH 31620     -40.100 134.724   8.620  1.00 70.34     0.007 C 
HETATM   37  C35 8UH 31620     -40.972 135.702   9.240  1.00 70.34     0.001 C 
HETATM   38  C36 8UH 31620     -34.122 125.892   7.443  1.00 16.14     0.020 C 
HETATM   39  C37 8UH 31620     -35.836 127.042   6.084  1.00 16.14     0.020 C 
HETATM   40  C38 8UH 31620     -31.815 129.748   6.066  1.00 16.14     0.044 C 
HETATM   41  C39 8UH 31620     -34.933 130.853   9.747  1.00 70.34     0.048 C 
HETATM   42  C40 8UH 31620     -38.716 134.581  10.663  1.00 70.34     0.048 C 
HETATM   43  O23 8UH 31620     -32.241 125.851   3.232  1.00 16.14    -0.395 OA
ATOM     44  H23 8UH 31620     -31.665 126.321   2.640  1.00  0.00     0.210 HD
ENDROOT
TORSDOF 12
BEGIN_RES PHE A  61
REMARK  2 active torsions:
REMARK  status: ('A' for Active; 'I' for Inactive)
REMARK    1  A    between atoms: CA   and  CB  
REMARK    2  A    between atoms: CB   and  CG  
ROOT
ATOM      1  CA  PHE A  61     -36.237 128.293  12.768  1.00 39.40     0.164 C 
ENDROOT
BRANCH   1   2
ATOM      2  CB  PHE A  61     -36.813 128.951  11.509  1.00 39.41     0.058 C 
BRANCH   2   3
ATOM      3  CG  PHE A  61     -37.034 128.003  10.355  1.00 39.01    -0.020 A 
ATOM      4  CD2 PHE A  61     -37.965 128.288   9.368  1.00 40.32    -0.004 A 
ATOM      5  CE2 PHE A  61     -38.170 127.413   8.309  1.00 40.20    -0.000 A 
ATOM      6  CZ  PHE A  61     -37.445 126.246   8.222  1.00 40.34    -0.000 A 
ATOM      7  CE1 PHE A  61     -36.515 125.949   9.193  1.00 41.51    -0.000 A 
ATOM      8  CD1 PHE A  61     -36.314 126.821  10.256  1.00 39.94    -0.004 A 
ENDBRANCH   2   3
ENDBRANCH   1   2
END_RES PHE A  61
BEGIN_RES VAL A 134
REMARK  1 active torsions:
REMARK  status: ('A' for Active; 'I' for Inactive)
REMARK    3  A    between atoms: CA   and  CB  
ROOT
ATOM      9  CA  VAL A 134     -29.766 132.051   9.815  1.00 40.75     0.159 C 
ENDROOT
BRANCH   9  10
ATOM     10  CB  VAL A 134     -30.864 132.765   9.009  1.00 40.76     0.029 C 
ATOM     11  CG1 VAL A 134     -31.257 131.944   7.790  1.00 41.76     0.002 C 
ATOM     12  CG2 VAL A 134     -32.081 133.073   9.868  1.00 40.56     0.002 C 
ENDBRANCH   9  10
END_RES VAL A 134
BEGIN_RES TYR A 338
REMARK  3 active torsions:
REMARK  status: ('A' for Active; 'I' for Inactive)
REMARK    4  A    between atoms: CA   and  CB  
REMARK    5  A    between atoms: CB   and  CG  
REMARK    6  A    between atoms: CZ   and  OH  
ROOT
ATOM     13  CA  TYR A 338     -41.631 124.950   6.058  1.00 38.23     0.164 C 
ENDROOT
BRANCH  13  14
ATOM     14  CB  TYR A 338     -41.621 126.456   6.339  1.00 39.15     0.058 C 
BRANCH  14  15
ATOM     15  CG  TYR A 338     -40.419 127.212   5.821  1.00 39.03    -0.020 A 
ATOM     16  CD2 TYR A 338     -40.238 128.546   6.145  1.00 40.65    -0.002 A 
ATOM     17  CE2 TYR A 338     -39.156 129.274   5.675  1.00 40.91     0.024 A 
ATOM     18  CZ  TYR A 338     -38.222 128.666   4.857  1.00 42.33     0.089 A 
ATOM     19  CE1 TYR A 338     -38.379 127.332   4.524  1.00 40.63     0.024 A 
ATOM     20  CD1 TYR A 338     -39.475 126.625   4.993  1.00 39.27    -0.002 A 
BRANCH  18  21
ATOM     21  OH  TYR A 338     -37.149 129.373   4.392  1.00 43.36    -0.359 OA
ATOM     22  HH  TYR A 338     -36.469 128.939   3.888  1.00  0.00     0.217 HD
ENDBRANCH  18  21
ENDBRANCH  14  15
ENDBRANCH  13  14
END_RES TYR A 338
ENDMDL
MODEL 2
REMARK VINA RESULT:    -8.513      1.957     16.600
REMARK INTER + INTRA:         -11.603
REMARK INTER:                 -10.538
REMARK INTRA:                  -1.064
REMARK UNBOUND:                -3.089
REMARK  0 active torsions:
REMARK  status: ('A' for Active; 'I' for Inactive)
REMARK       I    between atoms: C3_3  and  O3_21 
REMARK       I    between atoms: C6_6  and  C7_7 
REMARK       I    between atoms: C8_8  and  C9_9 
REMARK       I    between atoms: C10_10  and  C11_11 
REMARK       I    between atoms: C12_12  and  C13_13 
REMARK       I    between atoms: C14_14  and  C15_15 
REMARK       I    between atoms: C23_25  and  O23_43 
REMARK       I    between atoms: C26_28  and  C27_29 
REMARK       I    between atoms: C28_30  and  C29_31 
REMARK       I    between atoms: C30_32  and  C31_33 
REMARK       I    between atoms: C32_34  and  C33_35 
REMARK       I    between atoms: C34_36  and  C35_37 
ROOT
HETATM    1  C1  8UH 31620     -34.297 128.736   6.656  1.00 70.34    -0.018 C 
HETATM    2  C2  8UH 31620     -33.413 128.543   5.440  1.00 70.34     0.045 C 
HETATM    3  C3  8UH 31620     -31.936 128.319   5.709  1.00 70.34     0.123 C 
HETATM    4  C4  8UH 31620     -31.377 129.260   6.759  1.00 70.34     0.066 C 
HETATM    5  C5  8UH 31620     -32.332 129.749   7.808  1.00 70.34    -0.074 C 
HETATM    6  C6  8UH 31620     -33.656 129.586   7.729  1.00 70.34    -0.048 C 
HETATM    7  C7  8UH 31620     -34.555 130.207   8.731  1.00 70.34     0.009 C 
HETATM    8  C8  8UH 31620     -35.131 131.390   8.543  1.00 70.34     0.007 C 
HETATM    9  C9  8UH 31620     -36.035 131.977   9.531  1.00 70.34    -0.062 C 
HETATM   10  C10 8UH 31620     -36.518 133.178   9.229  1.00 70.34     0.007 C 
HETATM   11  C11 8UH 31620     -37.447 133.933  10.041  1.00 70.34     0.001 C 
HETATM   12  C12 8UH 31620     -38.078 134.861   9.341  1.00 70.34     0.007 C 
HETATM   13  C13 8UH 31620     -39.088 135.763   9.893  1.00 70.34    -0.062 C 
HETATM   14  C14 8UH 31620     -39.660 136.603   9.038  1.00 70.34     0.007 C 
HETATM   15  C15 8UH 31620     -40.689 137.537   9.451  1.00 70.34     0.001 C 
HETATM   16  C16 8UH 31620     -34.693 127.367   7.195  1.00 70.34     0.020 C 
HETATM   17  C17 8UH 31620     -35.545 129.464   6.170  1.00 70.34     0.020 C 
HETATM   18  C18 8UH 31620     -31.704 130.712   8.772  1.00 70.34     0.044 C 
HETATM   19  C19 8UH 31620     -36.390 131.241  10.782  1.00 70.34     0.048 C 
HETATM   20  C20 8UH 31620     -39.460 135.737  11.342  1.00 70.34     0.048 C 
HETATM   21  O3  8UH 31620     -31.671 126.962   6.071  1.00 70.34    -0.395 OA
ATOM     22  H3  8UH 31620     -32.020 126.373   5.413  1.00  0.00     0.210 HD
HETATM   23  C21 8UH 31620     -50.479 145.036   9.834  1.00 16.14    -0.018 C 
HETATM   24  C22 8UH 31620     -51.346 145.675  10.918  1.00 16.14     0.045 C 
HETATM   25  C23 8UH 31620     -50.688 146.743  11.774  1.00 16.14     0.123 C 
HETATM   26  C24 8UH 31620     -49.843 147.658  10.921  1.00 16.14     0.066 C 
HETATM   27  C25 8UH 31620     -48.790 146.825  10.253  1.00 16.14    -0.074 C 
HETATM   28  C26 8UH 31620     -49.118 145.680   9.642  1.00 16.14    -0.048 C 
HETATM   29  C27 8UH 31620     -48.142 145.038   8.732  1.00 16.14     0.009 C 
HETATM   30  C28 8UH 31620     -47.176 144.215   9.148  1.00 16.14     0.007 C 
HETATM   31  C29 8UH 31620     -46.233 143.616   8.196  1.00 70.34    -0.062 C 
HETATM   32  C30 8UH 31620     -45.461 142.654   8.687  1.00 70.34     0.007 C 
HETATM   33  C31 8UH 31620     -44.465 141.927   7.920  1.00 70.34     0.001 C 
HETATM   34  C32 8UH 31620     -43.836 141.010   8.635  1.00 70.34     0.007 C 
HETATM   35  C33 8UH 31620     -42.789 140.138   8.104  1.00 70.34    -0.062 C 
HETATM   36  C34 8UH 31620     -42.295 139.219   8.931  1.00 70.34     0.007 C 
HETATM   37  C35 8UH 31620     -41.256 138.294   8.522  1.00 70.34     0.001 C 
HETATM   38  C36 8UH 31620     -51.290 145.055   8.543  1.00 16.14     0.020 C 
HETATM   39  C37 8UH 31620     -50.224 143.588  10.222  1.00 16.14     0.020 C 
HETATM   40  C38 8UH 31620     -47.596 147.644   9.858  1.00 16.14     0.044 C 
HETATM   41  C39 8UH 31620     -46.149 144.058   6.768  1.00 70.34     0.048 C 
HETATM   42  C40 8UH 31620     -42.298 140.288   6.702  1.00 70.34     0.048 C 
HETATM   43  O23 8UH 31620     -51.698 147.523  12.417  1.00 16.14    -0.395 OA
ATOM     44  H23 8UH 31620     -51.286 148.191  12.953  1.00  0.00     0.210 HD
ENDROOT
TORSDOF 12
BEGIN_RES PHE A  61
REMARK  2 active torsions:
REMARK  status: ('A' for Active; 'I' for Inactive)
REMARK    1  A    between atoms: CA   and  CB  
REMARK    2  A    between atoms: CB   and  CG  
ROOT
ATOM      1  CA  PHE A  61     -36.237 128.293  12.768  1.00 39.40     0.164 C 
ENDROOT
BRANCH   1   2
ATOM      2  CB  PHE A  61     -36.813 128.951  11.509  1.00 39.41     0.058 C 
BRANCH   2   3
ATOM      3  CG  PHE A  61     -36.945 128.023  10.325  1.00 39.01    -0.020 A 
ATOM      4  CD2 PHE A  61     -36.097 126.937  10.174  1.00 40.32    -0.004 A 
ATOM      5  CE2 PHE A  61     -36.218 126.087   9.082  1.00 40.20    -0.000 A 
ATOM      6  CZ  PHE A  61     -37.189 126.310   8.132  1.00 40.34    -0.000 A 
ATOM      7  CE1 PHE A  61     -38.040 127.383   8.269  1.00 41.51    -0.000 A 
ATOM      8  CD1 PHE A  61     -37.916 128.238   9.357  1.00 39.94    -0.004 A 
ENDBRANCH   2   3
ENDBRANCH   1   2
END_RES PHE A  61
BEGIN_RES VAL A 134
REMARK  1 active torsions:
REMARK  status: ('A' for Active; 'I' for Inactive)
REMARK    3  A    between atoms: CA   and  CB  
ROOT
ATOM      9  CA  VAL A 134     -29.766 132.051   9.815  1.00 40.75     0.159 C 
ENDROOT
BRANCH   9  10
ATOM     10  CB  VAL A 134     -30.864 132.765   9.009  1.00 40.76     0.029 C 
ATOM     11  CG1 VAL A 134     -32.060 133.084   9.894  1.00 41.76     0.002 C 
ATOM     12  CG2 VAL A 134     -30.338 134.024   8.337  1.00 40.56     0.002 C 
ENDBRANCH   9  10
END_RES VAL A 134
BEGIN_RES TYR A 338
REMARK  3 active torsions:
REMARK  status: ('A' for Active; 'I' for Inactive)
REMARK    4  A    between atoms: CA   and  CB  
REMARK    5  A    between atoms: CB   and  CG  
REMARK    6  A    between atoms: CZ   and  OH  
ROOT
ATOM     13  CA  TYR A 338     -41.631 124.950   6.058  1.00 38.23     0.164 C 
ENDROOT
BRANCH  13  14
ATOM     14  CB  TYR A 338     -41.621 126.456   6.339  1.00 39.15     0.058 C 
BRANCH  14  15
ATOM     15  CG  TYR A 338     -40.426 127.214   5.809  1.00 39.03    -0.020 A 
ATOM     16  CD2 TYR A 338     -40.297 128.573   6.045  1.00 40.65    -0.002 A 
ATOM     17  CE2 TYR A 338     -39.223 129.303   5.560  1.00 40.91     0.024 A 
ATOM     18  CZ  TYR A 338     -38.243 128.671   4.817  1.00 42.33     0.089 A 
ATOM     19  CE1 TYR A 338     -38.347 127.313   4.572  1.00 40.63     0.024 A 
ATOM     20  CD1 TYR A 338     -39.436 126.604   5.054  1.00 39.27    -0.002 A 
BRANCH  18  21
ATOM     21  OH  TYR A 338     -37.177 129.380   4.338  1.00 43.36    -0.359 OA
ATOM     22  HH  TYR A 338     -36.289 129.099   4.527  1.00  0.00     0.217 HD
ENDBRANCH  18  21
ENDBRANCH  14  15
ENDBRANCH  13  14
END_RES TYR A 338
ENDMDL
MODEL 3
REMARK VINA RESULT:    -7.989      1.512      1.840
REMARK INTER + INTRA:         -11.078
REMARK INTER:                  -8.188
REMARK INTRA:                  -2.890
REMARK UNBOUND:                -3.089
REMARK  0 active torsions:
REMARK  status: ('A' for Active; 'I' for Inactive)
REMARK       I    between atoms: C3_3  and  O3_21 
REMARK       I    between atoms: C6_6  and  C7_7 
REMARK       I    between atoms: C8_8  and  C9_9 
REMARK       I    between atoms: C10_10  and  C11_11 
REMARK       I    between atoms: C12_12  and  C13_13 
REMARK       I    between atoms: C14_14  and  C15_15 
REMARK       I    between atoms: C23_25  and  O23_43 
REMARK       I    between atoms: C26_28  and  C27_29 
REMARK       I    between atoms: C28_30  and  C29_31 
REMARK       I    between atoms: C30_32  and  C31_33 
REMARK       I    between atoms: C32_34  and  C33_35 
REMARK       I    between atoms: C34_36  and  C35_37 
ROOT
HETATM    1  C1  8UH 31620     -49.162 144.354  12.459  1.00 70.34    -0.018 C 
HETATM    2  C2  8UH 31620     -49.468 144.853  13.858  1.00 70.34     0.045 C 
HETATM    3  C3  8UH 31620     -49.488 146.359  14.047  1.00 70.34     0.123 C 
HETATM    4  C4  8UH 31620     -48.329 147.057  13.361  1.00 70.34     0.066 C 
HETATM    5  C5  8UH 31620     -47.769 146.396  12.136  1.00 70.34    -0.074 C 
HETATM    6  C6  8UH 31620     -48.079 145.149  11.767  1.00 70.34    -0.048 C 
HETATM    7  C7  8UH 31620     -47.393 144.508  10.620  1.00 70.34     0.009 C 
HETATM    8  C8  8UH 31620     -46.325 143.729  10.767  1.00 70.34     0.007 C 
HETATM    9  C9  8UH 31620     -45.674 143.084   9.628  1.00 70.34    -0.062 C 
HETATM   10  C10 8UH 31620     -44.600 142.357   9.915  1.00 70.34     0.007 C 
HETATM   11  C11 8UH 31620     -43.817 141.610   8.954  1.00 70.34     0.001 C 
HETATM   12  C12 8UH 31620     -43.093 140.665   9.532  1.00 70.34     0.007 C 
HETATM   13  C13 8UH 31620     -42.219 139.741   8.809  1.00 70.34    -0.062 C 
HETATM   14  C14 8UH 31620     -41.601 138.819   9.538  1.00 70.34     0.007 C 
HETATM   15  C15 8UH 31620     -40.722 137.831   8.945  1.00 70.34     0.001 C 
HETATM   16  C16 8UH 31620     -50.452 144.350  11.649  1.00 70.34     0.020 C 
HETATM   17  C17 8UH 31620     -48.661 142.923  12.613  1.00 70.34     0.020 C 
HETATM   18  C18 8UH 31620     -46.596 147.130  11.556  1.00 70.34     0.044 C 
HETATM   19  C19 8UH 31620     -46.218 143.235   8.245  1.00 70.34     0.048 C 
HETATM   20  C20 8UH 31620     -42.035 139.827   7.326  1.00 70.34     0.048 C 
HETATM   21  O3  8UH 31620     -50.728 146.923  13.614  1.00 70.34    -0.395 OA
ATOM     22  H3  8UH 31620     -51.454 146.487  14.044  1.00  0.00     0.210 HD
HETATM   23  C21 8UH 31620     -34.322 127.584   6.443  1.00 16.14    -0.018 C 
HETATM   24  C22 8UH 31620     -33.600 126.995   5.232  1.00 16.14     0.045 C 
HETATM   25  C23 8UH 31620     -32.339 127.708   4.777  1.00 16.14     0.123 C 
HETATM   26  C24 8UH 31620     -31.501 128.111   5.967  1.00 16.14     0.066 C 
HETATM   27  C25 8UH 31620     -32.322 129.029   6.821  1.00 16.14    -0.074 C 
HETATM   28  C26 8UH 31620     -33.582 128.712   7.141  1.00 16.14    -0.048 C 
HETATM   29  C27 8UH 31620     -34.266 129.457   8.222  1.00 16.14     0.009 C 
HETATM   30  C28 8UH 31620     -34.902 130.616   8.032  1.00 16.14     0.007 C 
HETATM   31  C29 8UH 31620     -35.554 131.311   9.149  1.00 70.34    -0.062 C 
HETATM   32  C30 8UH 31620     -36.333 132.331   8.808  1.00 70.34     0.007 C 
HETATM   33  C31 8UH 31620     -37.073 133.150   9.751  1.00 70.34     0.001 C 
HETATM   34  C32 8UH 31620     -37.784 134.096   9.161  1.00 70.34     0.007 C 
HETATM   35  C33 8UH 31620     -38.621 135.056   9.879  1.00 70.34    -0.062 C 
HETATM   36  C34 8UH 31620     -39.329 135.908   9.140  1.00 70.34     0.007 C 
HETATM   37  C35 8UH 31620     -40.197 136.905   9.735  1.00 70.34     0.001 C 
HETATM   38  C36 8UH 31620     -34.608 126.432   7.399  1.00 16.14     0.020 C 
HETATM   39  C37 8UH 31620     -35.648 128.160   5.971  1.00 16.14     0.020 C 
HETATM   40  C38 8UH 31620     -31.464 129.913   7.679  1.00 16.14     0.044 C 
HETATM   41  C39 8UH 31620     -35.356 130.897  10.574  1.00 70.34     0.048 C 
HETATM   42  C40 8UH 31620     -38.663 135.077  11.371  1.00 70.34     0.048 C 
HETATM   43  O23 8UH 31620     -31.570 126.831   3.953  1.00 16.14    -0.395 OA
ATOM     44  H23 8UH 31620     -30.780 127.277   3.668  1.00  0.00     0.210 HD
ENDROOT
TORSDOF 12
BEGIN_RES PHE A  61
REMARK  2 active torsions:
REMARK  status: ('A' for Active; 'I' for Inactive)
REMARK    1  A    between atoms: CA   and  CB  
REMARK    2  A    between atoms: CB   and  CG  
ROOT
ATOM      1  CA  PHE A  61     -36.237 128.293  12.768  1.00 39.40     0.164 C 
ENDROOT
BRANCH   1   2
ATOM      2  CB  PHE A  61     -36.813 128.951  11.509  1.00 39.41     0.058 C 
BRANCH   2   3
ATOM      3  CG  PHE A  61     -37.024 128.005  10.351  1.00 39.01    -0.020 A 
ATOM      4  CD2 PHE A  61     -36.281 126.841  10.239  1.00 40.32    -0.004 A 
ATOM      5  CE2 PHE A  61     -36.474 125.973   9.172  1.00 40.20    -0.000 A 
ATOM      6  CZ  PHE A  61     -37.414 126.256   8.208  1.00 40.34    -0.000 A 
ATOM      7  CE1 PHE A  61     -38.163 127.408   8.306  1.00 41.51    -0.000 A 
ATOM      8  CD1 PHE A  61     -37.965 128.280   9.369  1.00 39.94    -0.004 A 
ENDBRANCH   2   3
ENDBRANCH   1   2
END_RES PHE A  61
BEGIN_RES VAL A 134
REMARK  1 active torsions:
REMARK  status: ('A' for Active; 'I' for Inactive)
REMARK    3  A    between atoms: CA   and  CB  
ROOT
ATOM      9  CA  VAL A 134     -29.766 132.051   9.815  1.00 40.75     0.159 C 
ENDROOT
BRANCH   9  10
ATOM     10  CB  VAL A 134     -30.864 132.765   9.009  1.00 40.76     0.029 C 
ATOM     11  CG1 VAL A 134     -30.873 132.281   7.566  1.00 41.76     0.002 C 
ATOM     12  CG2 VAL A 134     -32.233 132.588   9.647  1.00 40.56     0.002 C 
ENDBRANCH   9  10
END_RES VAL A 134
BEGIN_RES TYR A 338
REMARK  3 active torsions:
REMARK  status: ('A' for Active; 'I' for Inactive)
REMARK    4  A    between atoms: CA   and  CB  
REMARK    5  A    between atoms: CB   and  CG  
REMARK    6  A    between atoms: CZ   and  OH  
ROOT
ATOM     13  CA  TYR A 338     -41.631 124.950   6.058  1.00 38.23     0.164 C 
ENDROOT
BRANCH  13  14
ATOM     14  CB  TYR A 338     -41.621 126.456   6.339  1.00 39.15     0.058 C 
BRANCH  14  15
ATOM     15  CG  TYR A 338     -40.429 127.215   5.804  1.00 39.03    -0.020 A 
ATOM     16  CD2 TYR A 338     -40.261 128.557   6.102  1.00 40.65    -0.002 A 
ATOM     17  CE2 TYR A 338     -39.188 129.288   5.615  1.00 40.91     0.024 A 
ATOM     18  CZ  TYR A 338     -38.250 128.675   4.807  1.00 42.33     0.089 A 
ATOM     19  CE1 TYR A 338     -38.393 127.333   4.499  1.00 40.63     0.024 A 
ATOM     20  CD1 TYR A 338     -39.480 126.623   4.984  1.00 39.27    -0.002 A 
BRANCH  18  21
ATOM     21  OH  TYR A 338     -37.186 129.385   4.325  1.00 43.36    -0.359 OA
ATOM     22  HH  TYR A 338     -36.334 129.313   4.739  1.00  0.00     0.217 HD
ENDBRANCH  18  21
ENDBRANCH  14  15
ENDBRANCH  13  14
END_RES TYR A 338
ENDMDL
