MODEL 1
REMARK VINA RESULT:   -10.909      0.000      0.000
REMARK INTER + INTRA:         -13.619
REMARK INTER:                 -10.909
REMARK INTRA:                  -2.710
REMARK UNBOUND:                -2.710
REMARK  0 active torsions:
REMARK  status: ('A' for Active; 'I' for Inactive)
REMARK       I    between atoms: C3_3  and  O3_21 
REMARK       I    between atoms: C6_6  and  C7_7 
REMARK       I    between atoms: C8_8  and  C9_9 
REMARK       I    between atoms: C10_10  and  C11_11 
REMARK       I    between atoms: C12_12  and  C13_13 
REMARK       I    between atoms: C14_14  and  C15_15 
REMARK       I    between atoms: C23_25  and  O23_43 
REMARK       I    between atoms: C26_28  and  C27_29 
REMARK       I    between atoms: C28_30  and  C29_31 
REMARK       I    between atoms: C30_32  and  C31_33 
REMARK       I    between atoms: C32_34  and  C33_35 
REMARK       I    between atoms: C34_36  and  C35_37 
ROOT
HETATM    1  C1  8UH 1 617     -34.386 127.419   6.464  1.00 21.49    -0.018 C 
HETATM    2  C2  8UH 1 617     -33.866 127.072   5.073  1.00 21.49     0.045 C 
HETATM    3  C3  8UH 1 617     -32.560 127.712   4.627  1.00 21.49     0.123 C 
HETATM    4  C4  8UH 1 617     -31.590 127.882   5.774  1.00 21.49     0.066 C 
HETATM    5  C5  8UH 1 617     -32.247 128.634   6.897  1.00 21.49    -0.074 C 
HETATM    6  C6  8UH 1 617     -33.529 128.419   7.225  1.00 21.49    -0.048 C 
HETATM    7  C7  8UH 1 617     -34.134 129.159   8.364  1.00 21.49     0.009 C 
HETATM    8  C8  8UH 1 617     -34.815 130.290   8.179  1.00 21.49     0.007 C 
HETATM    9  C9  8UH 1 617     -35.429 131.061   9.271  1.00 21.49    -0.062 C 
HETATM   10  C10 8UH 1 617     -36.170 132.112   8.903  1.00 21.49     0.007 C 
HETATM   11  C11 8UH 1 617     -36.886 133.023   9.785  1.00 21.49     0.001 C 
HETATM   12  C12 8UH 1 617     -37.539 133.961   9.116  1.00 21.49     0.007 C 
HETATM   13  C13 8UH 1 617     -38.381 135.009   9.705  1.00 21.49    -0.062 C 
HETATM   14  C14 8UH 1 617     -39.120 135.720   8.849  1.00 21.49     0.007 C 
HETATM   15  C15 8UH 1 617     -40.036 136.766   9.277  1.00 21.49     0.001 C 
HETATM   16  C16 8UH 1 617     -34.522 126.099   7.221  1.00 21.49     0.020 C 
HETATM   17  C17 8UH 1 617     -35.768 128.030   6.295  1.00 21.49     0.020 C 
HETATM   18  C18 8UH 1 617     -31.380 129.599   7.654  1.00 21.49     0.044 C 
HETATM   19  C19 8UH 1 617     -35.212 130.692  10.705  1.00 21.49     0.048 C 
HETATM   20  C20 8UH 1 617     -38.430 135.260  11.180  1.00 21.49     0.048 C 
HETATM   21  O3  8UH 1 617     -31.951 126.851   3.660  1.00 21.49    -0.395 OA
ATOM     22  H3  8UH 1 617     -31.136 127.251   3.381  1.00  0.00     0.210 HD
HETATM   23  C21 8UH 1 617     -49.725 144.675   9.478  1.00 73.56    -0.018 C 
HETATM   24  C22 8UH 1 617     -50.485 145.344  10.625  1.00 73.56     0.045 C 
HETATM   25  C23 8UH 1 617     -49.772 146.425  11.435  1.00 73.56     0.123 C 
HETATM   26  C24 8UH 1 617     -48.765 147.185  10.584  1.00 73.56     0.066 C 
HETATM   27  C25 8UH 1 617     -47.809 146.175  10.009  1.00 73.56    -0.074 C 
HETATM   28  C26 8UH 1 617     -48.275 145.116   9.338  1.00 73.56    -0.048 C 
HETATM   29  C27 8UH 1 617     -47.385 144.370   8.415  1.00 73.56     0.009 C 
HETATM   30  C28 8UH 1 617     -46.561 143.403   8.829  1.00 73.56     0.007 C 
HETATM   31  C29 8UH 1 617     -45.695 142.683   7.887  1.00 21.49    -0.062 C 
HETATM   32  C30 8UH 1 617     -45.134 141.572   8.353  1.00 21.49     0.007 C 
HETATM   33  C31 8UH 1 617     -44.264 140.706   7.578  1.00 21.49     0.001 C 
HETATM   34  C32 8UH 1 617     -43.500 139.929   8.328  1.00 21.49     0.007 C 
HETATM   35  C33 8UH 1 617     -42.539 138.950   7.816  1.00 21.49    -0.062 C 
HETATM   36  C34 8UH 1 617     -41.806 138.295   8.724  1.00 21.49     0.007 C 
HETATM   37  C35 8UH 1 617     -40.843 137.276   8.353  1.00 21.49     0.001 C 
HETATM   38  C36 8UH 1 617     -50.503 144.947   8.192  1.00 73.56     0.020 C 
HETATM   39  C37 8UH 1 617     -49.708 143.172   9.729  1.00 73.56     0.020 C 
HETATM   40  C38 8UH 1 617     -46.559 146.889   9.579  1.00 73.56     0.044 C 
HETATM   41  C39 8UH 1 617     -45.468 143.161   6.486  1.00 21.49     0.048 C 
HETATM   42  C40 8UH 1 617     -42.407 138.697   6.349  1.00 21.49     0.048 C 
HETATM   43  O23 8UH 1 617     -50.746 147.344  11.944  1.00 73.56    -0.395 OA
ATOM     44  H23 8UH 1 617     -50.303 148.016  12.448  1.00  0.00     0.210 HD
ENDROOT
TORSDOF 12
BEGIN_RES PHE A  61
REMARK  2 active torsions:
REMARK  status: ('A' for Active; 'I' for Inactive)
REMARK    1  A    between atoms: CA   and  CB  
REMARK    2  A    between atoms: CB   and  CG  
ROOT
ATOM      1  CA  PHE A  61     -36.237 128.293  12.768  1.00 39.40     0.164 C 
ENDROOT
BRANCH   1   2
ATOM      2  CB  PHE A  61     -36.813 128.951  11.509  1.00 39.41     0.058 C 
BRANCH   2   3
ATOM      3  CG  PHE A  61     -37.051 128.000  10.361  1.00 39.01    -0.020 A 
ATOM      4  CD2 PHE A  61     -36.318 126.829  10.243  1.00 40.32    -0.004 A 
ATOM      5  CE2 PHE A  61     -36.537 125.956   9.184  1.00 40.20    -0.000 A 
ATOM      6  CZ  PHE A  61     -37.492 126.241   8.235  1.00 40.34    -0.000 A 
ATOM      7  CE1 PHE A  61     -38.230 127.399   8.340  1.00 41.51    -0.000 A 
ATOM      8  CD1 PHE A  61     -38.008 128.275   9.394  1.00 39.94    -0.004 A 
ENDBRANCH   2   3
ENDBRANCH   1   2
END_RES PHE A  61
BEGIN_RES VAL A 134
REMARK  1 active torsions:
REMARK  status: ('A' for Active; 'I' for Inactive)
REMARK    3  A    between atoms: CA   and  CB  
ROOT
ATOM      9  CA  VAL A 134     -29.766 132.051   9.815  1.00 40.75     0.159 C 
ENDROOT
BRANCH   9  10
ATOM     10  CB  VAL A 134     -30.864 132.765   9.009  1.00 40.76     0.029 C 
ATOM     11  CG1 VAL A 134     -30.892 132.260   7.574  1.00 41.76     0.002 C 
ATOM     12  CG2 VAL A 134     -32.229 132.612   9.662  1.00 40.56     0.002 C 
ENDBRANCH   9  10
END_RES VAL A 134
BEGIN_RES TYR A 338
REMARK  3 active torsions:
REMARK  status: ('A' for Active; 'I' for Inactive)
REMARK    4  A    between atoms: CA   and  CB  
REMARK    5  A    between atoms: CB   and  CG  
REMARK    6  A    between atoms: CZ   and  OH  
ROOT
ATOM     13  CA  TYR A 338     -41.631 124.950   6.058  1.00 38.23     0.164 C 
ENDROOT
BRANCH  13  14
ATOM     14  CB  TYR A 338     -41.621 126.456   6.339  1.00 39.15     0.058 C 
BRANCH  14  15
ATOM     15  CG  TYR A 338     -40.424 127.214   5.812  1.00 39.03    -0.020 A 
ATOM     16  CD2 TYR A 338     -40.259 128.556   6.108  1.00 40.65    -0.002 A 
ATOM     17  CE2 TYR A 338     -39.182 129.286   5.629  1.00 40.91     0.024 A 
ATOM     18  CZ  TYR A 338     -38.237 128.670   4.830  1.00 42.33     0.089 A 
ATOM     19  CE1 TYR A 338     -38.377 127.328   4.525  1.00 40.63     0.024 A 
ATOM     20  CD1 TYR A 338     -39.469 126.619   5.003  1.00 39.27    -0.002 A 
BRANCH  18  21
ATOM     21  OH  TYR A 338     -37.168 129.379   4.356  1.00 43.36    -0.359 OA
ATOM     22  HH  TYR A 338     -37.229 130.320   4.240  1.00  0.00     0.217 HD
ENDBRANCH  18  21
ENDBRANCH  14  15
ENDBRANCH  13  14
END_RES TYR A 338
ENDMDL
MODEL 2
REMARK VINA RESULT:    -9.687      1.354     16.523
REMARK INTER + INTRA:         -12.397
REMARK INTER:                 -12.208
REMARK INTRA:                  -0.190
REMARK UNBOUND:                -2.710
REMARK  0 active torsions:
REMARK  status: ('A' for Active; 'I' for Inactive)
REMARK       I    between atoms: C3_3  and  O3_21 
REMARK       I    between atoms: C6_6  and  C7_7 
REMARK       I    between atoms: C8_8  and  C9_9 
REMARK       I    between atoms: C10_10  and  C11_11 
REMARK       I    between atoms: C12_12  and  C13_13 
REMARK       I    between atoms: C14_14  and  C15_15 
REMARK       I    between atoms: C23_25  and  O23_43 
REMARK       I    between atoms: C26_28  and  C27_29 
REMARK       I    between atoms: C28_30  and  C29_31 
REMARK       I    between atoms: C30_32  and  C31_33 
REMARK       I    between atoms: C32_34  and  C33_35 
REMARK       I    between atoms: C34_36  and  C35_37 
ROOT
HETATM    1  C1  8UH 1 617     -49.495 144.765  12.162  1.00 21.49    -0.018 C 
HETATM    2  C2  8UH 1 617     -49.910 145.020  13.607  1.00 21.49     0.045 C 
HETATM    3  C3  8UH 1 617     -49.154 146.090  14.380  1.00 21.49     0.123 C 
HETATM    4  C4  8UH 1 617     -48.746 147.247  13.497  1.00 21.49     0.066 C 
HETATM    5  C5  8UH 1 617     -47.977 146.742  12.309  1.00 21.49    -0.074 C 
HETATM    6  C6  8UH 1 617     -48.322 145.607  11.686  1.00 21.49    -0.048 C 
HETATM    7  C7  8UH 1 617     -47.556 145.157  10.493  1.00 21.49     0.009 C 
HETATM    8  C8  8UH 1 617     -46.546 144.292  10.597  1.00 21.49     0.007 C 
HETATM    9  C9  8UH 1 617     -45.756 143.819   9.449  1.00 21.49    -0.062 C 
HETATM   10  C10 8UH 1 617     -44.852 142.869   9.711  1.00 21.49     0.007 C 
HETATM   11  C11 8UH 1 617     -43.958 142.232   8.755  1.00 21.49     0.001 C 
HETATM   12  C12 8UH 1 617     -43.184 141.319   9.322  1.00 21.49     0.007 C 
HETATM   13  C13 8UH 1 617     -42.200 140.476   8.631  1.00 21.49    -0.062 C 
HETATM   14  C14 8UH 1 617     -41.679 139.474   9.344  1.00 21.49     0.007 C 
HETATM   15  C15 8UH 1 617     -40.723 138.527   8.794  1.00 21.49     0.001 C 
HETATM   16  C16 8UH 1 617     -50.740 144.991  11.305  1.00 21.49     0.020 C 
HETATM   17  C17 8UH 1 617     -49.088 143.303  12.055  1.00 21.49     0.020 C 
HETATM   18  C18 8UH 1 617     -46.837 147.598  11.836  1.00 21.49     0.044 C 
HETATM   19  C19 8UH 1 617     -45.949 144.391   8.079  1.00 21.49     0.048 C 
HETATM   20  C20 8UH 1 617     -41.811 140.708   7.204  1.00 21.49     0.048 C 
HETATM   21  O3  8UH 1 617     -50.021 146.598  15.399  1.00 21.49    -0.395 OA
ATOM     22  H3  8UH 1 617     -49.549 147.266  15.881  1.00  0.00     0.210 HD
HETATM   23  C21 8UH 1 617     -34.153 128.043   6.950  1.00 73.56    -0.018 C 
HETATM   24  C22 8UH 1 617     -33.476 127.457   5.709  1.00 73.56     0.045 C 
HETATM   25  C23 8UH 1 617     -32.236 128.158   5.158  1.00 73.56     0.123 C 
HETATM   26  C24 8UH 1 617     -31.442 128.835   6.265  1.00 73.56     0.066 C 
HETATM   27  C25 8UH 1 617     -32.372 129.785   6.971  1.00 73.56    -0.074 C 
HETATM   28  C26 8UH 1 617     -33.544 129.348   7.444  1.00 73.56    -0.048 C 
HETATM   29  C27 8UH 1 617     -34.257 130.120   8.491  1.00 73.56     0.009 C 
HETATM   30  C28 8UH 1 617     -35.064 131.147   8.209  1.00 73.56     0.007 C 
HETATM   31  C29 8UH 1 617     -35.756 131.889   9.270  1.00 21.49    -0.062 C 
HETATM   32  C30 8UH 1 617     -36.733 132.694   8.868  1.00 21.49     0.007 C 
HETATM   33  C31 8UH 1 617     -37.553 133.496   9.759  1.00 21.49     0.001 C 
HETATM   34  C32 8UH 1 617     -38.145 134.510   9.150  1.00 21.49     0.007 C 
HETATM   35  C33 8UH 1 617     -39.038 135.473   9.797  1.00 21.49    -0.062 C 
HETATM   36  C34 8UH 1 617     -39.499 136.473   9.036  1.00 21.49     0.007 C 
HETATM   37  C35 8UH 1 617     -40.417 137.474   9.544  1.00 21.49     0.001 C 
HETATM   38  C36 8UH 1 617     -34.113 126.976   8.042  1.00 73.56     0.020 C 
HETATM   39  C37 8UH 1 617     -35.608 128.336   6.607  1.00 73.56     0.020 C 
HETATM   40  C38 8UH 1 617     -31.549 130.794   7.721  1.00 73.56     0.044 C 
HETATM   41  C39 8UH 1 617     -35.395 131.736  10.716  1.00 21.49     0.048 C 
HETATM   42  C40 8UH 1 617     -39.417 135.324  11.235  1.00 21.49     0.048 C 
HETATM   43  O23 8UH 1 617     -31.405 127.190   4.506  1.00 73.56    -0.395 OA
ATOM     44  H23 8UH 1 617     -30.634 127.627   4.163  1.00  0.00     0.210 HD
ENDROOT
TORSDOF 12
BEGIN_RES PHE A  61
REMARK  2 active torsions:
REMARK  status: ('A' for Active; 'I' for Inactive)
REMARK    1  A    between atoms: CA   and  CB  
REMARK    2  A    between atoms: CB   and  CG  
ROOT
ATOM      1  CA  PHE A  61     -36.237 128.293  12.768  1.00 39.40     0.164 C 
ENDROOT
BRANCH   1   2
ATOM      2  CB  PHE A  61     -36.813 128.951  11.509  1.00 39.41     0.058 C 
BRANCH   2   3
ATOM      3  CG  PHE A  61     -37.040 128.002  10.357  1.00 39.01    -0.020 A 
ATOM      4  CD2 PHE A  61     -36.314 126.825  10.250  1.00 40.32    -0.004 A 
ATOM      5  CE2 PHE A  61     -36.522 125.955   9.188  1.00 40.20    -0.000 A 
ATOM      6  CZ  PHE A  61     -37.459 126.247   8.223  1.00 40.34    -0.000 A 
ATOM      7  CE1 PHE A  61     -38.189 127.411   8.316  1.00 41.51    -0.000 A 
ATOM      8  CD1 PHE A  61     -37.978 128.286   9.374  1.00 39.94    -0.004 A 
ENDBRANCH   2   3
ENDBRANCH   1   2
END_RES PHE A  61
BEGIN_RES VAL A 134
REMARK  1 active torsions:
REMARK  status: ('A' for Active; 'I' for Inactive)
REMARK    3  A    between atoms: CA   and  CB  
ROOT
ATOM      9  CA  VAL A 134     -29.766 132.051   9.815  1.00 40.75     0.159 C 
ENDROOT
BRANCH   9  10
ATOM     10  CB  VAL A 134     -30.864 132.765   9.009  1.00 40.76     0.029 C 
ATOM     11  CG1 VAL A 134     -32.108 132.973   9.861  1.00 41.76     0.002 C 
ATOM     12  CG2 VAL A 134     -30.372 134.086   8.439  1.00 40.56     0.002 C 
ENDBRANCH   9  10
END_RES VAL A 134
BEGIN_RES TYR A 338
REMARK  3 active torsions:
REMARK  status: ('A' for Active; 'I' for Inactive)
REMARK    4  A    between atoms: CA   and  CB  
REMARK    5  A    between atoms: CB   and  CG  
REMARK    6  A    between atoms: CZ   and  OH  
ROOT
ATOM     13  CA  TYR A 338     -41.631 124.950   6.058  1.00 38.23     0.164 C 
ENDROOT
BRANCH  13  14
ATOM     14  CB  TYR A 338     -41.621 126.456   6.339  1.00 39.15     0.058 C 
BRANCH  14  15
ATOM     15  CG  TYR A 338     -40.419 127.212   5.821  1.00 39.03    -0.020 A 
ATOM     16  CD2 TYR A 338     -40.261 128.558   6.106  1.00 40.65    -0.002 A 
ATOM     17  CE2 TYR A 338     -39.180 129.286   5.635  1.00 40.91     0.024 A 
ATOM     18  CZ  TYR A 338     -38.223 128.665   4.854  1.00 42.33     0.089 A 
ATOM     19  CE1 TYR A 338     -38.357 127.320   4.558  1.00 40.63     0.024 A 
ATOM     20  CD1 TYR A 338     -39.452 126.613   5.029  1.00 39.27    -0.002 A 
BRANCH  18  21
ATOM     21  OH  TYR A 338     -37.151 129.373   4.387  1.00 43.36    -0.359 OA
ATOM     22  HH  TYR A 338     -36.306 128.951   4.282  1.00  0.00     0.217 HD
ENDBRANCH  18  21
ENDBRANCH  14  15
ENDBRANCH  13  14
END_RES TYR A 338
ENDMDL
