MODEL 1
REMARK VINA RESULT:   -11.250      0.000      0.000
REMARK INTER + INTRA:         -13.565
REMARK INTER:                 -11.250
REMARK INTRA:                  -2.314
REMARK UNBOUND:                -2.314
REMARK  0 active torsions:
REMARK  status: ('A' for Active; 'I' for Inactive)
REMARK       I    between atoms: C3_3  and  O3_21 
REMARK       I    between atoms: C6_6  and  C7_7 
REMARK       I    between atoms: C8_8  and  C9_9 
REMARK       I    between atoms: C10_10  and  C11_11 
REMARK       I    between atoms: C12_12  and  C13_13 
REMARK       I    between atoms: C14_14  and  C15_15 
REMARK       I    between atoms: C23_25  and  O23_43 
REMARK       I    between atoms: C26_28  and  C27_29 
REMARK       I    between atoms: C28_30  and  C29_31 
REMARK       I    between atoms: C30_32  and  C31_33 
REMARK       I    between atoms: C32_34  and  C33_35 
REMARK       I    between atoms: C34_36  and  C35_37 
ROOT
HETATM    1  C1  8UH G1620     -48.771 144.884  12.460  1.00 59.27    -0.018 C 
HETATM    2  C2  8UH G1620     -49.562 145.450  13.628  1.00 64.60     0.045 C 
HETATM    3  C3  8UH G1620     -48.728 146.123  14.697  1.00 63.28     0.123 C 
HETATM    4  C4  8UH G1620     -47.861 147.187  14.077  1.00 61.00     0.066 C 
HETATM    5  C5  8UH G1620     -47.009 146.593  12.991  1.00 64.87    -0.074 C 
HETATM    6  C6  8UH G1620     -47.431 145.566  12.226  1.00 63.96    -0.048 C 
HETATM    7  C7  8UH G1620     -46.612 145.086  11.081  1.00 64.82     0.009 C 
HETATM    8  C8  8UH G1620     -45.622 144.199  11.221  1.00 58.91     0.007 C 
HETATM    9  C9  8UH G1620     -44.825 143.718  10.092  1.00 59.76    -0.062 C 
HETATM   10  C10 8UH G1620     -43.930 142.769  10.381  1.00 59.44     0.007 C 
HETATM   11  C11 8UH G1620     -43.035 142.127   9.436  1.00 53.66     0.001 C 
HETATM   12  C12 8UH G1620     -42.390 141.096   9.956  1.00 59.47     0.007 C 
HETATM   13  C13 8UH G1620     -41.450 140.264   9.198  1.00 64.69    -0.062 C 
HETATM   14  C14 8UH G1620     -40.997 139.157   9.793  1.00 66.67     0.007 C 
HETATM   15  C15 8UH G1620     -40.090 138.235   9.127  1.00 73.65     0.001 C 
HETATM   16  C16 8UH G1620     -49.703 144.974  11.257  1.00 56.55     0.020 C 
HETATM   17  C17 8UH G1620     -48.472 143.419  12.744  1.00 59.14     0.020 C 
HETATM   18  C18 8UH G1620     -45.731 147.342  12.735  1.00 61.00     0.044 C 
HETATM   19  C19 8UH G1620     -45.012 144.288   8.719  1.00 55.95     0.048 C 
HETATM   20  C20 8UH G1620     -41.036 140.645   7.810  1.00 67.83     0.048 C 
HETATM   21  O3  8UH G1620     -49.598 146.731  15.654  1.00 73.40    -0.395 OA
ATOM     22  H3  8UH G1620     -49.074 147.154  16.325  1.00  0.00     0.210 HD
HETATM   23  C21 8UH G1620     -34.279 127.281   6.683  1.00 57.09    -0.018 C 
HETATM   24  C22 8UH G1620     -33.795 126.672   5.374  1.00 57.09     0.045 C 
HETATM   25  C23 8UH G1620     -32.735 127.434   4.601  1.00 57.09     0.123 C 
HETATM   26  C24 8UH G1620     -31.754 128.089   5.546  1.00 57.09     0.066 C 
HETATM   27  C25 8UH G1620     -32.509 129.003   6.465  1.00 57.09    -0.074 C 
HETATM   28  C26 8UH G1620     -33.608 128.574   7.097  1.00 57.09    -0.048 C 
HETATM   29  C27 8UH G1620     -34.196 129.332   8.235  1.00 57.09     0.009 C 
HETATM   30  C28 8UH G1620     -34.990 130.390   8.044  1.00 57.09     0.007 C 
HETATM   31  C29 8UH G1620     -35.608 131.156   9.129  1.00 93.82    -0.062 C 
HETATM   32  C30 8UH G1620     -36.392 132.156   8.734  1.00 83.29     0.007 C 
HETATM   33  C31 8UH G1620     -37.132 133.026   9.626  1.00 75.18     0.001 C 
HETATM   34  C32 8UH G1620     -37.712 134.052   9.027  1.00 71.38     0.007 C 
HETATM   35  C33 8UH G1620     -38.538 135.017   9.757  1.00 70.67    -0.062 C 
HETATM   36  C34 8UH G1620     -39.001 136.079   9.089  1.00 74.09     0.007 C 
HETATM   37  C35 8UH G1620     -39.863 137.068   9.717  1.00 74.87     0.001 C 
HETATM   38  C36 8UH G1620     -34.113 126.217   7.757  1.00 57.09     0.020 C 
HETATM   39  C37 8UH G1620     -35.750 127.593   6.517  1.00 57.09     0.020 C 
HETATM   40  C38 8UH G1620     -31.632 130.085   7.020  1.00 57.09     0.044 C 
HETATM   41  C39 8UH G1620     -35.382 130.830  10.574  1.00 99.93     0.048 C 
HETATM   42  C40 8UH G1620     -38.865 134.785  11.197  1.00 65.73     0.048 C 
HETATM   43  O23 8UH G1620     -32.033 126.493   3.786  1.00 57.09    -0.395 OA
ATOM     44  H23 8UH G1620     -31.368 126.970   3.302  1.00  0.00     0.210 HD
ENDROOT
TORSDOF 12
BEGIN_RES PHE A  61
REMARK  2 active torsions:
REMARK  status: ('A' for Active; 'I' for Inactive)
REMARK    1  A    between atoms: CA   and  CB  
REMARK    2  A    between atoms: CB   and  CG  
ROOT
ATOM      1  CA  PHE A  61     -36.237 128.293  12.768  1.00 39.40     0.164 C 
ENDROOT
BRANCH   1   2
ATOM      2  CB  PHE A  61     -36.813 128.951  11.509  1.00 39.41     0.058 C 
BRANCH   2   3
ATOM      3  CG  PHE A  61     -37.080 127.994  10.372  1.00 39.01    -0.020 A 
ATOM      4  CD2 PHE A  61     -36.366 126.813  10.253  1.00 40.32    -0.004 A 
ATOM      5  CE2 PHE A  61     -36.611 125.935   9.204  1.00 40.20    -0.000 A 
ATOM      6  CZ  PHE A  61     -37.574 126.227   8.266  1.00 40.34    -0.000 A 
ATOM      7  CE1 PHE A  61     -38.294 127.396   8.371  1.00 41.51    -0.000 A 
ATOM      8  CD1 PHE A  61     -38.045 128.277   9.415  1.00 39.94    -0.004 A 
ENDBRANCH   2   3
ENDBRANCH   1   2
END_RES PHE A  61
BEGIN_RES VAL A 134
REMARK  1 active torsions:
REMARK  status: ('A' for Active; 'I' for Inactive)
REMARK    3  A    between atoms: CA   and  CB  
ROOT
ATOM      9  CA  VAL A 134     -29.766 132.051   9.815  1.00 40.75     0.159 C 
ENDROOT
BRANCH   9  10
ATOM     10  CB  VAL A 134     -30.864 132.765   9.009  1.00 40.76     0.029 C 
ATOM     11  CG1 VAL A 134     -30.848 132.309   7.557  1.00 41.76     0.002 C 
ATOM     12  CG2 VAL A 134     -32.239 132.557   9.626  1.00 40.56     0.002 C 
ENDBRANCH   9  10
END_RES VAL A 134
BEGIN_RES TYR A 338
REMARK  3 active torsions:
REMARK  status: ('A' for Active; 'I' for Inactive)
REMARK    4  A    between atoms: CA   and  CB  
REMARK    5  A    between atoms: CB   and  CG  
REMARK    6  A    between atoms: CZ   and  OH  
ROOT
ATOM     13  CA  TYR A 338     -41.631 124.950   6.058  1.00 38.23     0.164 C 
ENDROOT
BRANCH  13  14
ATOM     14  CB  TYR A 338     -41.621 126.456   6.339  1.00 39.15     0.058 C 
BRANCH  14  15
ATOM     15  CG  TYR A 338     -40.420 127.212   5.820  1.00 39.03    -0.020 A 
ATOM     16  CD2 TYR A 338     -40.261 128.558   6.106  1.00 40.65    -0.002 A 
ATOM     17  CE2 TYR A 338     -39.181 129.286   5.633  1.00 40.91     0.024 A 
ATOM     18  CZ  TYR A 338     -38.225 128.666   4.851  1.00 42.33     0.089 A 
ATOM     19  CE1 TYR A 338     -38.359 127.321   4.555  1.00 40.63     0.024 A 
ATOM     20  CD1 TYR A 338     -39.454 126.613   5.026  1.00 39.27    -0.002 A 
BRANCH  18  21
ATOM     21  OH  TYR A 338     -37.153 129.373   4.383  1.00 43.36    -0.359 OA
ATOM     22  HH  TYR A 338     -36.329 128.935   4.205  1.00  0.00     0.217 HD
ENDBRANCH  18  21
ENDBRANCH  14  15
ENDBRANCH  13  14
END_RES TYR A 338
ENDMDL
MODEL 2
REMARK VINA RESULT:    -8.759      1.151     16.612
REMARK INTER + INTRA:         -11.073
REMARK INTER:                  -8.106
REMARK INTRA:                  -2.967
REMARK UNBOUND:                -2.314
REMARK  0 active torsions:
REMARK  status: ('A' for Active; 'I' for Inactive)
REMARK       I    between atoms: C3_3  and  O3_21 
REMARK       I    between atoms: C6_6  and  C7_7 
REMARK       I    between atoms: C8_8  and  C9_9 
REMARK       I    between atoms: C10_10  and  C11_11 
REMARK       I    between atoms: C12_12  and  C13_13 
REMARK       I    between atoms: C14_14  and  C15_15 
REMARK       I    between atoms: C23_25  and  O23_43 
REMARK       I    between atoms: C26_28  and  C27_29 
REMARK       I    between atoms: C28_30  and  C29_31 
REMARK       I    between atoms: C30_32  and  C31_33 
REMARK       I    between atoms: C32_34  and  C33_35 
REMARK       I    between atoms: C34_36  and  C35_37 
ROOT
HETATM    1  C1  8UH G1620     -34.432 126.885   6.229  1.00 59.27    -0.018 C 
HETATM    2  C2  8UH G1620     -33.862 126.092   5.064  1.00 64.60     0.045 C 
HETATM    3  C3  8UH G1620     -32.902 126.857   4.180  1.00 63.28     0.123 C 
HETATM    4  C4  8UH G1620     -31.794 127.446   5.014  1.00 61.00     0.066 C 
HETATM    5  C5  8UH G1620     -32.368 128.311   6.100  1.00 64.87    -0.074 C 
HETATM    6  C6  8UH G1620     -33.554 128.042   6.684  1.00 63.96    -0.048 C 
HETATM    7  C7  8UH G1620     -34.032 128.848   7.840  1.00 64.82     0.009 C 
HETATM    8  C8  8UH G1620     -34.691 130.001   7.694  1.00 58.91     0.007 C 
HETATM    9  C9  8UH G1620     -35.171 130.787   8.831  1.00 59.76    -0.062 C 
HETATM   10  C10 8UH G1620     -35.888 131.871   8.521  1.00 59.44     0.007 C 
HETATM   11  C11 8UH G1620     -36.480 132.798   9.467  1.00 53.66     0.001 C 
HETATM   12  C12 8UH G1620     -37.290 133.673   8.893  1.00 59.47     0.007 C 
HETATM   13  C13 8UH G1620     -38.032 134.697   9.635  1.00 64.69    -0.062 C 
HETATM   14  C14 8UH G1620     -38.940 135.404   8.958  1.00 66.67     0.007 C 
HETATM   15  C15 8UH G1620     -39.764 136.420   9.595  1.00 73.65     0.001 C 
HETATM   16  C16 8UH G1620     -34.687 125.863   7.331  1.00 56.55     0.020 C 
HETATM   17  C17 8UH G1620     -35.761 127.489   5.798  1.00 59.14     0.020 C 
HETATM   18  C18 8UH G1620     -31.440 129.392   6.578  1.00 61.00     0.044 C 
HETATM   19  C19 8UH G1620     -34.846 130.384  10.237  1.00 55.95     0.048 C 
HETATM   20  C20 8UH G1620     -37.781 134.917  11.095  1.00 67.83     0.048 C 
HETATM   21  O3  8UH G1620     -32.336 125.962   3.220  1.00 73.40    -0.395 OA
ATOM     22  H3  8UH G1620     -31.733 126.442   2.665  1.00  0.00     0.210 HD
HETATM   23  C21 8UH G1620     -49.687 144.070  11.250  1.00 57.09    -0.018 C 
HETATM   24  C22 8UH G1620     -50.376 144.561  12.516  1.00 57.09     0.045 C 
HETATM   25  C23 8UH G1620     -49.548 145.386  13.484  1.00 57.09     0.123 C 
HETATM   26  C24 8UH G1620     -48.595 146.290  12.734  1.00 57.09     0.066 C 
HETATM   27  C25 8UH G1620     -47.716 145.442  11.863  1.00 57.09    -0.074 C 
HETATM   28  C26 8UH G1620     -48.247 144.503  11.072  1.00 57.09    -0.048 C 
HETATM   29  C27 8UH G1620     -47.458 143.867   9.982  1.00 57.09     0.009 C 
HETATM   30  C28 8UH G1620     -46.602 142.868  10.219  1.00 57.09     0.007 C 
HETATM   31  C29 8UH G1620     -45.818 142.198   9.179  1.00 93.82    -0.062 C 
HETATM   32  C30 8UH G1620     -45.047 141.203   9.612  1.00 83.29     0.007 C 
HETATM   33  C31 8UH G1620     -44.211 140.378   8.763  1.00 75.18     0.001 C 
HETATM   34  C32 8UH G1620     -43.406 139.562   9.421  1.00 71.38     0.007 C 
HETATM   35  C33 8UH G1620     -42.517 138.621   8.734  1.00 70.67    -0.062 C 
HETATM   36  C34 8UH G1620     -41.664 137.907   9.478  1.00 74.09     0.007 C 
HETATM   37  C35 8UH G1620     -40.773 136.919   8.891  1.00 74.87     0.001 C 
HETATM   38  C36 8UH G1620     -50.539 144.525  10.076  1.00 57.09     0.020 C 
HETATM   39  C37 8UH G1620     -49.680 142.558  11.300  1.00 57.09     0.020 C 
HETATM   40  C38 8UH G1620     -46.422 146.130  11.540  1.00 57.09     0.044 C 
HETATM   41  C39 8UH G1620     -45.889 142.595   7.736  1.00 99.93     0.048 C 
HETATM   42  C40 8UH G1620     -42.599 138.460   7.251  1.00 65.73     0.048 C 
HETATM   43  O23 8UH G1620     -50.448 146.195  14.245  1.00 57.09    -0.395 OA
ATOM     44  H23 8UH G1620     -49.930 146.712  14.850  1.00  0.00     0.210 HD
ENDROOT
TORSDOF 12
BEGIN_RES PHE A  61
REMARK  2 active torsions:
REMARK  status: ('A' for Active; 'I' for Inactive)
REMARK    1  A    between atoms: CA   and  CB  
REMARK    2  A    between atoms: CB   and  CG  
ROOT
ATOM      1  CA  PHE A  61     -36.237 128.293  12.768  1.00 39.40     0.164 C 
ENDROOT
BRANCH   1   2
ATOM      2  CB  PHE A  61     -36.813 128.951  11.509  1.00 39.41     0.058 C 
BRANCH   2   3
ATOM      3  CG  PHE A  61     -37.042 128.001  10.358  1.00 39.01    -0.020 A 
ATOM      4  CD2 PHE A  61     -36.318 126.824  10.251  1.00 40.32    -0.004 A 
ATOM      5  CE2 PHE A  61     -36.527 125.953   9.189  1.00 40.20    -0.000 A 
ATOM      6  CZ  PHE A  61     -37.465 126.246   8.226  1.00 40.34    -0.000 A 
ATOM      7  CE1 PHE A  61     -38.194 127.411   8.318  1.00 41.51    -0.000 A 
ATOM      8  CD1 PHE A  61     -37.981 128.286   9.376  1.00 39.94    -0.004 A 
ENDBRANCH   2   3
ENDBRANCH   1   2
END_RES PHE A  61
BEGIN_RES VAL A 134
REMARK  1 active torsions:
REMARK  status: ('A' for Active; 'I' for Inactive)
REMARK    3  A    between atoms: CA   and  CB  
ROOT
ATOM      9  CA  VAL A 134     -29.766 132.051   9.815  1.00 40.75     0.159 C 
ENDROOT
BRANCH   9  10
ATOM     10  CB  VAL A 134     -30.864 132.765   9.009  1.00 40.76     0.029 C 
ATOM     11  CG1 VAL A 134     -31.174 132.002   7.729  1.00 41.76     0.002 C 
ATOM     12  CG2 VAL A 134     -32.124 132.969   9.836  1.00 40.56     0.002 C 
ENDBRANCH   9  10
END_RES VAL A 134
BEGIN_RES TYR A 338
REMARK  3 active torsions:
REMARK  status: ('A' for Active; 'I' for Inactive)
REMARK    4  A    between atoms: CA   and  CB  
REMARK    5  A    between atoms: CB   and  CG  
REMARK    6  A    between atoms: CZ   and  OH  
ROOT
ATOM     13  CA  TYR A 338     -41.631 124.950   6.058  1.00 38.23     0.164 C 
ENDROOT
BRANCH  13  14
ATOM     14  CB  TYR A 338     -41.621 126.456   6.339  1.00 39.15     0.058 C 
BRANCH  14  15
ATOM     15  CG  TYR A 338     -40.426 127.215   5.808  1.00 39.03    -0.020 A 
ATOM     16  CD2 TYR A 338     -40.251 128.552   6.118  1.00 40.65    -0.002 A 
ATOM     17  CE2 TYR A 338     -39.176 129.283   5.636  1.00 40.91     0.024 A 
ATOM     18  CZ  TYR A 338     -38.243 128.673   4.819  1.00 42.33     0.089 A 
ATOM     19  CE1 TYR A 338     -38.394 127.335   4.499  1.00 40.63     0.024 A 
ATOM     20  CD1 TYR A 338     -39.483 126.625   4.980  1.00 39.27    -0.002 A 
BRANCH  18  21
ATOM     21  OH  TYR A 338     -37.177 129.382   4.342  1.00 43.36    -0.359 OA
ATOM     22  HH  TYR A 338     -37.002 129.417   3.408  1.00  0.00     0.217 HD
ENDBRANCH  18  21
ENDBRANCH  14  15
ENDBRANCH  13  14
END_RES TYR A 338
ENDMDL
