MODEL 1
REMARK VINA RESULT:   -11.463      0.000      0.000
REMARK INTER + INTRA:         -12.282
REMARK INTER:                 -11.463
REMARK INTRA:                  -0.819
REMARK UNBOUND:                -0.819
REMARK  0 active torsions:
REMARK  status: ('A' for Active; 'I' for Inactive)
REMARK       I    between atoms: C3_3  and  O3_21 
REMARK       I    between atoms: C6_6  and  C7_7 
REMARK       I    between atoms: C8_8  and  C9_9 
REMARK       I    between atoms: C10_10  and  C11_11 
REMARK       I    between atoms: C12_12  and  C13_13 
REMARK       I    between atoms: C14_14  and  C15_15 
REMARK       I    between atoms: C23_25  and  O23_43 
REMARK       I    between atoms: C26_28  and  C27_29 
REMARK       I    between atoms: C28_30  and  C29_31 
REMARK       I    between atoms: C30_32  and  C31_33 
REMARK       I    between atoms: C32_34  and  C33_35 
REMARK       I    between atoms: C34_36  and  C35_37 
ROOT
HETATM    1  C1  8UH V1620     -50.201 144.715  10.561  1.00 15.23    -0.018 C 
HETATM    2  C2  8UH V1620     -50.622 144.406  11.984  1.00 15.23     0.045 C 
HETATM    3  C3  8UH V1620     -49.663 144.882  13.043  1.00 15.23     0.123 C 
HETATM    4  C4  8UH V1620     -49.293 146.300  12.720  1.00 15.23     0.066 C 
HETATM    5  C5  8UH V1620     -48.586 146.367  11.402  1.00 15.23    -0.074 C 
HETATM    6  C6  8UH V1620     -48.945 145.536  10.420  1.00 15.23    -0.048 C 
HETATM    7  C7  8UH V1620     -48.019 145.164   9.346  1.00 15.23     0.009 C 
HETATM    8  C8  8UH V1620     -46.871 144.675   9.825  1.00 15.23     0.007 C 
HETATM    9  C9  8UH V1620     -45.870 144.046   8.943  1.00 15.23    -0.062 C 
HETATM   10  C10 8UH V1620     -44.927 143.299   9.533  1.00 15.23     0.007 C 
HETATM   11  C11 8UH V1620     -43.951 142.506   8.798  1.00 15.23     0.001 C 
HETATM   12  C12 8UH V1620     -43.227 141.607   9.446  1.00 15.23     0.007 C 
HETATM   13  C13 8UH V1620     -42.305 140.709   8.738  1.00 15.23    -0.062 C 
HETATM   14  C14 8UH V1620     -41.783 139.694   9.434  1.00 15.23     0.007 C 
HETATM   15  C15 8UH V1620     -40.894 138.684   8.872  1.00 15.23     0.001 C 
HETATM   16  C16 8UH V1620     -51.295 145.584   9.971  1.00 15.23     0.020 C 
HETATM   17  C17 8UH V1620     -50.080 143.403   9.808  1.00 15.23     0.020 C 
HETATM   18  C18 8UH V1620     -47.306 147.149  11.426  1.00 15.23     0.044 C 
HETATM   19  C19 8UH V1620     -45.966 144.217   7.454  1.00 15.23     0.048 C 
HETATM   20  C20 8UH V1620     -42.034 140.938   7.289  1.00 15.23     0.048 C 
HETATM   21  O3  8UH V1620     -50.326 144.903  14.302  1.00 15.23    -0.395 OA
ATOM     22  H3  8UH V1620     -49.721 145.204  14.969  1.00  0.00     0.210 HD
HETATM   23  C21 8UH V1620     -34.231 128.411   6.857  1.00 70.34    -0.018 C 
HETATM   24  C22 8UH V1620     -33.508 128.088   5.564  1.00 70.34     0.045 C 
HETATM   25  C23 8UH V1620     -31.991 128.041   5.632  1.00 70.34     0.123 C 
HETATM   26  C24 8UH V1620     -31.401 129.196   6.421  1.00 70.34     0.066 C 
HETATM   27  C25 8UH V1620     -32.250 129.774   7.513  1.00 70.34    -0.074 C 
HETATM   28  C26 8UH V1620     -33.546 129.487   7.668  1.00 70.34    -0.048 C 
HETATM   29  C27 8UH V1620     -34.361 130.192   8.686  1.00 70.34     0.009 C 
HETATM   30  C28 8UH V1620     -35.086 131.270   8.404  1.00 70.34     0.007 C 
HETATM   31  C29 8UH V1620     -35.907 131.944   9.414  1.00 15.23    -0.062 C 
HETATM   32  C30 8UH V1620     -36.671 132.932   8.945  1.00 15.23     0.007 C 
HETATM   33  C31 8UH V1620     -37.573 133.751   9.735  1.00 15.23     0.001 C 
HETATM   34  C32 8UH V1620     -38.203 134.737   9.108  1.00 15.23     0.007 C 
HETATM   35  C33 8UH V1620     -39.103 135.657   9.808  1.00 15.23    -0.062 C 
HETATM   36  C34 8UH V1620     -39.601 136.679   9.100  1.00 15.23     0.007 C 
HETATM   37  C35 8UH V1620     -40.485 137.696   9.648  1.00 15.23     0.001 C 
HETATM   38  C36 8UH V1620     -34.393 127.129   7.661  1.00 70.34     0.020 C 
HETATM   39  C37 8UH V1620     -35.605 128.933   6.461  1.00 70.34     0.020 C 
HETATM   40  C38 8UH V1620     -31.605 130.941   8.203  1.00 70.34     0.044 C 
HETATM   41  C39 8UH V1620     -35.886 131.481  10.837  1.00 15.23     0.048 C 
HETATM   42  C40 8UH V1620     -39.382 135.411  11.254  1.00 15.23     0.048 C 
HETATM   43  O23 8UH V1620     -31.529 126.796   6.161  1.00 70.34    -0.395 OA
ATOM     44  H23 8UH V1620     -31.899 126.074   5.667  1.00  0.00     0.210 HD
ENDROOT
TORSDOF 12
BEGIN_RES PHE A  61
REMARK  2 active torsions:
REMARK  status: ('A' for Active; 'I' for Inactive)
REMARK    1  A    between atoms: CA   and  CB  
REMARK    2  A    between atoms: CB   and  CG  
ROOT
ATOM      1  CA  PHE A  61     -36.237 128.293  12.768  1.00 39.40     0.164 C 
ENDROOT
BRANCH   1   2
ATOM      2  CB  PHE A  61     -36.813 128.951  11.509  1.00 39.41     0.058 C 
BRANCH   2   3
ATOM      3  CG  PHE A  61     -36.985 128.013  10.338  1.00 39.01    -0.020 A 
ATOM      4  CD2 PHE A  61     -36.187 126.888  10.204  1.00 40.32    -0.004 A 
ATOM      5  CE2 PHE A  61     -36.344 126.028   9.125  1.00 40.20    -0.000 A 
ATOM      6  CZ  PHE A  61     -37.302 126.281   8.169  1.00 40.34    -0.000 A 
ATOM      7  CE1 PHE A  61     -38.105 127.394   8.289  1.00 41.51    -0.000 A 
ATOM      8  CD1 PHE A  61     -37.943 128.258   9.365  1.00 39.94    -0.004 A 
ENDBRANCH   2   3
ENDBRANCH   1   2
END_RES PHE A  61
BEGIN_RES VAL A 134
REMARK  1 active torsions:
REMARK  status: ('A' for Active; 'I' for Inactive)
REMARK    3  A    between atoms: CA   and  CB  
ROOT
ATOM      9  CA  VAL A 134     -29.766 132.051   9.815  1.00 40.75     0.159 C 
ENDROOT
BRANCH   9  10
ATOM     10  CB  VAL A 134     -30.864 132.765   9.009  1.00 40.76     0.029 C 
ATOM     11  CG1 VAL A 134     -32.106 132.977   9.862  1.00 41.76     0.002 C 
ATOM     12  CG2 VAL A 134     -30.371 134.084   8.435  1.00 40.56     0.002 C 
ENDBRANCH   9  10
END_RES VAL A 134
BEGIN_RES TYR A 338
REMARK  3 active torsions:
REMARK  status: ('A' for Active; 'I' for Inactive)
REMARK    4  A    between atoms: CA   and  CB  
REMARK    5  A    between atoms: CB   and  CG  
REMARK    6  A    between atoms: CZ   and  OH  
ROOT
ATOM     13  CA  TYR A 338     -41.631 124.950   6.058  1.00 38.23     0.164 C 
ENDROOT
BRANCH  13  14
ATOM     14  CB  TYR A 338     -41.621 126.456   6.339  1.00 39.15     0.058 C 
BRANCH  14  15
ATOM     15  CG  TYR A 338     -40.424 127.214   5.813  1.00 39.03    -0.020 A 
ATOM     16  CD2 TYR A 338     -40.273 128.563   6.084  1.00 40.65    -0.002 A 
ATOM     17  CE2 TYR A 338     -39.197 129.292   5.605  1.00 40.91     0.024 A 
ATOM     18  CZ  TYR A 338     -38.237 128.670   4.830  1.00 42.33     0.089 A 
ATOM     19  CE1 TYR A 338     -38.362 127.321   4.548  1.00 40.63     0.024 A 
ATOM     20  CD1 TYR A 338     -39.454 126.612   5.026  1.00 39.27    -0.002 A 
BRANCH  18  21
ATOM     21  OH  TYR A 338     -37.168 129.378   4.355  1.00 43.36    -0.359 OA
ATOM     22  HH  TYR A 338     -37.291 130.047   3.691  1.00  0.00     0.217 HD
ENDBRANCH  18  21
ENDBRANCH  14  15
ENDBRANCH  13  14
END_RES TYR A 338
ENDMDL
MODEL 2
REMARK VINA RESULT:   -10.660      1.265     16.332
REMARK INTER + INTRA:         -11.480
REMARK INTER:                  -9.498
REMARK INTRA:                  -1.982
REMARK UNBOUND:                -0.819
REMARK  0 active torsions:
REMARK  status: ('A' for Active; 'I' for Inactive)
REMARK       I    between atoms: C3_3  and  O3_21 
REMARK       I    between atoms: C6_6  and  C7_7 
REMARK       I    between atoms: C8_8  and  C9_9 
REMARK       I    between atoms: C10_10  and  C11_11 
REMARK       I    between atoms: C12_12  and  C13_13 
REMARK       I    between atoms: C14_14  and  C15_15 
REMARK       I    between atoms: C23_25  and  O23_43 
REMARK       I    between atoms: C26_28  and  C27_29 
REMARK       I    between atoms: C28_30  and  C29_31 
REMARK       I    between atoms: C30_32  and  C31_33 
REMARK       I    between atoms: C32_34  and  C33_35 
REMARK       I    between atoms: C34_36  and  C35_37 
ROOT
HETATM    1  C1  8UH V1620     -34.235 127.210   6.751  1.00 15.23    -0.018 C 
HETATM    2  C2  8UH V1620     -33.985 127.281   5.257  1.00 15.23     0.045 C 
HETATM    3  C3  8UH V1620     -33.078 128.402   4.823  1.00 15.23     0.123 C 
HETATM    4  C4  8UH V1620     -31.882 128.398   5.728  1.00 15.23     0.066 C 
HETATM    5  C5  8UH V1620     -32.296 128.670   7.141  1.00 15.23    -0.074 C 
HETATM    6  C6  8UH V1620     -33.465 128.200   7.586  1.00 15.23    -0.048 C 
HETATM    7  C7  8UH V1620     -34.175 128.828   8.704  1.00 15.23     0.009 C 
HETATM    8  C8  8UH V1620     -34.371 130.133   8.500  1.00 15.23     0.007 C 
HETATM    9  C9  8UH V1620     -35.238 130.934   9.386  1.00 15.23    -0.062 C 
HETATM   10  C10 8UH V1620     -35.638 132.126   8.925  1.00 15.23     0.007 C 
HETATM   11  C11 8UH V1620     -36.599 132.975   9.616  1.00 15.23     0.001 C 
HETATM   12  C12 8UH V1620     -37.129 134.006   8.977  1.00 15.23     0.007 C 
HETATM   13  C13 8UH V1620     -38.179 134.832   9.590  1.00 15.23    -0.062 C 
HETATM   14  C14 8UH V1620     -38.808 135.707   8.800  1.00 15.23     0.007 C 
HETATM   15  C15 8UH V1620     -39.906 136.564   9.235  1.00 15.23     0.001 C 
HETATM   16  C16 8UH V1620     -33.730 125.853   7.203  1.00 15.23     0.020 C 
HETATM   17  C17 8UH V1620     -35.728 127.344   6.987  1.00 15.23     0.020 C 
HETATM   18  C18 8UH V1620     -31.496 129.738   7.826  1.00 15.23     0.044 C 
HETATM   19  C19 8UH V1620     -35.669 130.382  10.714  1.00 15.23     0.048 C 
HETATM   20  C20 8UH V1620     -38.521 134.625  11.027  1.00 15.23     0.048 C 
HETATM   21  O3  8UH V1620     -32.602 128.139   3.508  1.00 15.23    -0.395 OA
ATOM     22  H3  8UH V1620     -32.030 128.845   3.234  1.00  0.00     0.210 HD
HETATM   23  C21 8UH V1620     -49.749 144.110   9.621  1.00 70.34    -0.018 C 
HETATM   24  C22 8UH V1620     -50.512 144.475  10.879  1.00 70.34     0.045 C 
HETATM   25  C23 8UH V1620     -50.441 145.929  11.314  1.00 70.34     0.123 C 
HETATM   26  C24 8UH V1620     -49.038 146.502  11.231  1.00 70.34     0.066 C 
HETATM   27  C25 8UH V1620     -48.127 145.914  10.194  1.00 70.34    -0.074 C 
HETATM   28  C26 8UH V1620     -48.404 144.793   9.522  1.00 70.34    -0.048 C 
HETATM   29  C27 8UH V1620     -47.404 144.193   8.607  1.00 70.34     0.009 C 
HETATM   30  C28 8UH V1620     -46.566 143.234   8.989  1.00 70.34     0.007 C 
HETATM   31  C29 8UH V1620     -45.598 142.633   8.067  1.00 15.23    -0.062 C 
HETATM   32  C30 8UH V1620     -44.918 141.599   8.568  1.00 15.23     0.007 C 
HETATM   33  C31 8UH V1620     -43.907 140.832   7.862  1.00 15.23     0.001 C 
HETATM   34  C32 8UH V1620     -43.284 139.879   8.545  1.00 15.23     0.007 C 
HETATM   35  C33 8UH V1620     -42.216 139.068   7.955  1.00 15.23    -0.062 C 
HETATM   36  C34 8UH V1620     -41.584 138.210   8.766  1.00 15.23     0.007 C 
HETATM   37  C35 8UH V1620     -40.485 137.352   8.347  1.00 15.23     0.001 C 
HETATM   38  C36 8UH V1620     -50.620 144.423   8.413  1.00 70.34     0.020 C 
HETATM   39  C37 8UH V1620     -49.503 142.609   9.688  1.00 70.34     0.020 C 
HETATM   40  C38 8UH V1620     -46.749 146.508  10.220  1.00 70.34     0.044 C 
HETATM   41  C39 8UH V1620     -45.464 143.147   6.669  1.00 15.23     0.048 C 
HETATM   42  C40 8UH V1620     -41.891 139.268   6.511  1.00 15.23     0.048 C 
HETATM   43  O23 8UH V1620     -51.351 146.742  10.569  1.00 70.34    -0.395 OA
ATOM     44  H23 8UH V1620     -52.229 146.383  10.622  1.00  0.00     0.210 HD
ENDROOT
TORSDOF 12
BEGIN_RES PHE A  61
REMARK  2 active torsions:
REMARK  status: ('A' for Active; 'I' for Inactive)
REMARK    1  A    between atoms: CA   and  CB  
REMARK    2  A    between atoms: CB   and  CG  
ROOT
ATOM      1  CA  PHE A  61     -36.237 128.293  12.768  1.00 39.40     0.164 C 
ENDROOT
BRANCH   1   2
ATOM      2  CB  PHE A  61     -36.813 128.951  11.509  1.00 39.41     0.058 C 
BRANCH   2   3
ATOM      3  CG  PHE A  61     -37.131 127.987  10.391  1.00 39.01    -0.020 A 
ATOM      4  CD2 PHE A  61     -36.442 126.791  10.265  1.00 40.32    -0.004 A 
ATOM      5  CE2 PHE A  61     -36.733 125.907   9.234  1.00 40.20    -0.000 A 
ATOM      6  CZ  PHE A  61     -37.717 126.206   8.320  1.00 40.34    -0.000 A 
ATOM      7  CE1 PHE A  61     -38.413 127.390   8.433  1.00 41.51    -0.000 A 
ATOM      8  CD1 PHE A  61     -38.117 128.277   9.459  1.00 39.94    -0.004 A 
ENDBRANCH   2   3
ENDBRANCH   1   2
END_RES PHE A  61
BEGIN_RES VAL A 134
REMARK  1 active torsions:
REMARK  status: ('A' for Active; 'I' for Inactive)
REMARK    3  A    between atoms: CA   and  CB  
ROOT
ATOM      9  CA  VAL A 134     -29.766 132.051   9.815  1.00 40.75     0.159 C 
ENDROOT
BRANCH   9  10
ATOM     10  CB  VAL A 134     -30.864 132.765   9.009  1.00 40.76     0.029 C 
ATOM     11  CG1 VAL A 134     -30.990 132.160   7.618  1.00 41.76     0.002 C 
ATOM     12  CG2 VAL A 134     -32.201 132.736   9.734  1.00 40.56     0.002 C 
ENDBRANCH   9  10
END_RES VAL A 134
BEGIN_RES TYR A 338
REMARK  3 active torsions:
REMARK  status: ('A' for Active; 'I' for Inactive)
REMARK    4  A    between atoms: CA   and  CB  
REMARK    5  A    between atoms: CB   and  CG  
REMARK    6  A    between atoms: CZ   and  OH  
ROOT
ATOM     13  CA  TYR A 338     -41.631 124.950   6.058  1.00 38.23     0.164 C 
ENDROOT
BRANCH  13  14
ATOM     14  CB  TYR A 338     -41.621 126.456   6.339  1.00 39.15     0.058 C 
BRANCH  14  15
ATOM     15  CG  TYR A 338     -40.404 127.207   5.849  1.00 39.03    -0.020 A 
ATOM     16  CD2 TYR A 338     -40.246 128.551   6.141  1.00 40.65    -0.002 A 
ATOM     17  CE2 TYR A 338     -39.150 129.274   5.695  1.00 40.91     0.024 A 
ATOM     18  CZ  TYR A 338     -38.180 128.650   4.934  1.00 42.33     0.089 A 
ATOM     19  CE1 TYR A 338     -38.313 127.306   4.633  1.00 40.63     0.024 A 
ATOM     20  CD1 TYR A 338     -39.423 126.604   5.078  1.00 39.27    -0.002 A 
BRANCH  18  21
ATOM     21  OH  TYR A 338     -37.093 129.353   4.492  1.00 43.36    -0.359 OA
ATOM     22  HH  TYR A 338     -36.236 128.945   4.466  1.00  0.00     0.217 HD
ENDBRANCH  18  21
ENDBRANCH  14  15
ENDBRANCH  13  14
END_RES TYR A 338
ENDMDL
