MODEL 1
REMARK VINA RESULT:    -9.426      0.000      0.000
REMARK INTER + INTRA:         -12.459
REMARK INTER:                  -9.426
REMARK INTRA:                  -3.033
REMARK UNBOUND:                -3.033
REMARK  0 active torsions:
REMARK  status: ('A' for Active; 'I' for Inactive)
REMARK       I    between atoms: C3_3  and  O3_21 
REMARK       I    between atoms: C6_6  and  C7_7 
REMARK       I    between atoms: C8_8  and  C9_9 
REMARK       I    between atoms: C10_10  and  C11_11 
REMARK       I    between atoms: C12_12  and  C13_13 
REMARK       I    between atoms: C14_14  and  C15_15 
REMARK       I    between atoms: C23_25  and  O23_43 
REMARK       I    between atoms: C26_28  and  C27_29 
REMARK       I    between atoms: C28_30  and  C29_31 
REMARK       I    between atoms: C30_32  and  C31_33 
REMARK       I    between atoms: C32_34  and  C33_35 
REMARK       I    between atoms: C34_36  and  C35_37 
ROOT
HETATM    1  C1  8UH 1 316     -48.990 144.330  12.022  1.00 73.24    -0.018 C 
HETATM    2  C2  8UH 1 316     -49.562 144.831  13.351  1.00 72.84     0.045 C 
HETATM    3  C3  8UH 1 316     -48.677 145.764  14.169  1.00 72.53     0.123 C 
HETATM    4  C4  8UH 1 316     -47.997 146.769  13.260  1.00 72.61     0.066 C 
HETATM    5  C5  8UH 1 316     -47.180 146.034  12.231  1.00 72.68    -0.074 C 
HETATM    6  C6  8UH 1 316     -47.671 144.960  11.611  1.00 72.79    -0.048 C 
HETATM    7  C7  8UH 1 316     -46.913 144.351  10.491  1.00 71.90     0.009 C 
HETATM    8  C8  8UH 1 316     -45.927 143.483  10.735  1.00 71.51     0.007 C 
HETATM    9  C9  8UH 1 316     -45.140 142.840   9.661  1.00 70.48    -0.062 C 
HETATM   10  C10 8UH 1 316     -44.212 141.937  10.014  1.00 69.46     0.007 C 
HETATM   11  C11 8UH 1 316     -43.358 141.212   9.075  1.00 69.85     0.001 C 
HETATM   12  C12 8UH 1 316     -42.514 140.328   9.607  1.00 72.15     0.007 C 
HETATM   13  C13 8UH 1 316     -41.583 139.485   8.826  1.00 73.74    -0.062 C 
HETATM   14  C14 8UH 1 316     -40.977 138.468   9.464  1.00 74.04     0.007 C 
HETATM   15  C15 8UH 1 316     -40.055 137.544   8.806  1.00 74.62     0.001 C 
HETATM   16  C16 8UH 1 316     -50.019 144.606  10.932  1.00 72.68     0.020 C 
HETATM   17  C17 8UH 1 316     -48.769 142.826  12.136  1.00 73.05     0.020 C 
HETATM   18  C18 8UH 1 316     -45.970 146.742  11.691  1.00 72.13     0.044 C 
HETATM   19  C19 8UH 1 316     -45.368 143.196   8.221  1.00 70.45     0.048 C 
HETATM   20  C20 8UH 1 316     -41.323 139.760   7.371  1.00 72.89     0.048 C 
HETATM   21  O3  8UH 1 316     -49.482 146.464  15.128  1.00 71.04    -0.395 OA
ATOM     22  H3  8UH 1 316     -49.908 145.833  15.698  1.00  0.00     0.210 HD
HETATM   23  C21 8UH 1 316     -33.565 126.640   6.949  1.00 32.96    -0.018 C 
HETATM   24  C22 8UH 1 316     -34.051 126.216   5.564  1.00 32.96     0.045 C 
HETATM   25  C23 8UH 1 316     -33.631 127.117   4.410  1.00 32.96     0.123 C 
HETATM   26  C24 8UH 1 316     -32.356 127.856   4.754  1.00 32.96     0.066 C 
HETATM   27  C25 8UH 1 316     -32.627 128.690   5.974  1.00 32.96    -0.074 C 
HETATM   28  C26 8UH 1 316     -33.165 128.089   7.040  1.00 32.96    -0.048 C 
HETATM   29  C27 8UH 1 316     -33.619 128.847   8.213  1.00 32.96     0.009 C 
HETATM   30  C28 8UH 1 316     -34.379 129.895   7.887  1.00 32.96     0.007 C 
HETATM   31  C29 8UH 1 316     -35.113 130.666   8.912  1.00 94.72    -0.062 C 
HETATM   32  C30 8UH 1 316     -35.865 131.692   8.495  1.00 91.32     0.007 C 
HETATM   33  C31 8UH 1 316     -36.662 132.534   9.384  1.00 87.88     0.001 C 
HETATM   34  C32 8UH 1 316     -37.262 133.581   8.824  1.00 84.19     0.007 C 
HETATM   35  C33 8UH 1 316     -38.130 134.524   9.552  1.00 80.79    -0.062 C 
HETATM   36  C34 8UH 1 316     -38.640 135.573   8.881  1.00 78.84     0.007 C 
HETATM   37  C35 8UH 1 316     -39.536 136.538   9.514  1.00 76.79     0.001 C 
HETATM   38  C36 8UH 1 316     -32.307 125.851   7.294  1.00 32.96     0.020 C 
HETATM   39  C37 8UH 1 316     -34.641 126.360   7.988  1.00 32.96     0.020 C 
HETATM   40  C38 8UH 1 316     -32.002 130.062   6.005  1.00 32.96     0.044 C 
HETATM   41  C39 8UH 1 316     -35.028 130.305  10.365  1.00 95.37     0.048 C 
HETATM   42  C40 8UH 1 316     -38.450 134.297  10.999  1.00 90.13     0.048 C 
HETATM   43  O23 8UH 1 316     -33.389 126.324   3.244  1.00 32.96    -0.395 OA
ATOM     44  H23 8UH 1 316     -34.189 125.860   3.028  1.00  0.00     0.210 HD
ENDROOT
TORSDOF 12
BEGIN_RES PHE A  61
REMARK  2 active torsions:
REMARK  status: ('A' for Active; 'I' for Inactive)
REMARK    1  A    between atoms: CA   and  CB  
REMARK    2  A    between atoms: CB   and  CG  
ROOT
ATOM      1  CA  PHE A  61     -36.237 128.293  12.768  1.00 39.40     0.164 C 
ENDROOT
BRANCH   1   2
ATOM      2  CB  PHE A  61     -36.813 128.951  11.509  1.00 39.41     0.058 C 
BRANCH   2   3
ATOM      3  CG  PHE A  61     -37.049 128.000  10.360  1.00 39.01    -0.020 A 
ATOM      4  CD2 PHE A  61     -37.974 128.295   9.371  1.00 40.32    -0.004 A 
ATOM      5  CE2 PHE A  61     -38.192 127.417   8.316  1.00 40.20    -0.000 A 
ATOM      6  CZ  PHE A  61     -37.486 126.238   8.237  1.00 40.34    -0.000 A 
ATOM      7  CE1 PHE A  61     -36.562 125.932   9.211  1.00 41.51    -0.000 A 
ATOM      8  CD1 PHE A  61     -36.348 126.806  10.269  1.00 39.94    -0.004 A 
ENDBRANCH   2   3
ENDBRANCH   1   2
END_RES PHE A  61
BEGIN_RES VAL A 134
REMARK  1 active torsions:
REMARK  status: ('A' for Active; 'I' for Inactive)
REMARK    3  A    between atoms: CA   and  CB  
ROOT
ATOM      9  CA  VAL A 134     -29.766 132.051   9.815  1.00 40.75     0.159 C 
ENDROOT
BRANCH   9  10
ATOM     10  CB  VAL A 134     -30.864 132.765   9.009  1.00 40.76     0.029 C 
ATOM     11  CG1 VAL A 134     -31.028 132.125   7.638  1.00 41.76     0.002 C 
ATOM     12  CG2 VAL A 134     -32.187 132.784   9.758  1.00 40.56     0.002 C 
ENDBRANCH   9  10
END_RES VAL A 134
BEGIN_RES TYR A 338
REMARK  3 active torsions:
REMARK  status: ('A' for Active; 'I' for Inactive)
REMARK    4  A    between atoms: CA   and  CB  
REMARK    5  A    between atoms: CB   and  CG  
REMARK    6  A    between atoms: CZ   and  OH  
ROOT
ATOM     13  CA  TYR A 338     -41.631 124.950   6.058  1.00 38.23     0.164 C 
ENDROOT
BRANCH  13  14
ATOM     14  CB  TYR A 338     -41.621 126.456   6.339  1.00 39.15     0.058 C 
BRANCH  14  15
ATOM     15  CG  TYR A 338     -40.390 127.201   5.877  1.00 39.03    -0.020 A 
ATOM     16  CD2 TYR A 338     -40.225 128.541   6.186  1.00 40.65    -0.002 A 
ATOM     17  CE2 TYR A 338     -39.116 129.259   5.766  1.00 40.91     0.024 A 
ATOM     18  CZ  TYR A 338     -38.138 128.635   5.014  1.00 42.33     0.089 A 
ATOM     19  CE1 TYR A 338     -38.278 127.296   4.697  1.00 40.63     0.024 A 
ATOM     20  CD1 TYR A 338     -39.401 126.598   5.116  1.00 39.27    -0.002 A 
BRANCH  18  21
ATOM     21  OH  TYR A 338     -37.039 129.333   4.598  1.00 43.36    -0.359 OA
ATOM     22  HH  TYR A 338     -37.015 130.280   4.669  1.00  0.00     0.217 HD
ENDBRANCH  18  21
ENDBRANCH  14  15
ENDBRANCH  13  14
END_RES TYR A 338
ENDMDL
MODEL 2
REMARK VINA RESULT:    -9.211      0.909     16.632
REMARK INTER + INTRA:         -12.244
REMARK INTER:                  -9.838
REMARK INTRA:                  -2.406
REMARK UNBOUND:                -3.033
REMARK  0 active torsions:
REMARK  status: ('A' for Active; 'I' for Inactive)
REMARK       I    between atoms: C3_3  and  O3_21 
REMARK       I    between atoms: C6_6  and  C7_7 
REMARK       I    between atoms: C8_8  and  C9_9 
REMARK       I    between atoms: C10_10  and  C11_11 
REMARK       I    between atoms: C12_12  and  C13_13 
REMARK       I    between atoms: C14_14  and  C15_15 
REMARK       I    between atoms: C23_25  and  O23_43 
REMARK       I    between atoms: C26_28  and  C27_29 
REMARK       I    between atoms: C28_30  and  C29_31 
REMARK       I    between atoms: C30_32  and  C31_33 
REMARK       I    between atoms: C32_34  and  C33_35 
REMARK       I    between atoms: C34_36  and  C35_37 
ROOT
HETATM    1  C1  8UH 1 316     -34.298 127.273   6.605  1.00 73.24    -0.018 C 
HETATM    2  C2  8UH 1 316     -33.722 126.725   5.296  1.00 72.84     0.045 C 
HETATM    3  C3  8UH 1 316     -32.571 127.506   4.675  1.00 72.53     0.123 C 
HETATM    4  C4  8UH 1 316     -31.599 127.950   5.752  1.00 72.61     0.066 C 
HETATM    5  C5  8UH 1 316     -32.329 128.798   6.759  1.00 72.68    -0.074 C 
HETATM    6  C6  8UH 1 316     -33.535 128.442   7.204  1.00 72.79    -0.048 C 
HETATM    7  C7  8UH 1 316     -34.162 129.205   8.310  1.00 71.90     0.009 C 
HETATM    8  C8  8UH 1 316     -34.834 130.332   8.058  1.00 71.51     0.007 C 
HETATM    9  C9  8UH 1 316     -35.484 131.133   9.118  1.00 70.48    -0.062 C 
HETATM   10  C10 8UH 1 316     -36.185 132.216   8.749  1.00 69.46     0.007 C 
HETATM   11  C11 8UH 1 316     -36.888 133.105   9.671  1.00 69.85     0.001 C 
HETATM   12  C12 8UH 1 316     -37.560 134.116   9.120  1.00 72.15     0.007 C 
HETATM   13  C13 8UH 1 316     -38.347 135.111   9.880  1.00 73.74    -0.062 C 
HETATM   14  C14 8UH 1 316     -39.172 135.916   9.186  1.00 74.04     0.007 C 
HETATM   15  C15 8UH 1 316     -40.024 136.924   9.814  1.00 74.62     0.001 C 
HETATM   16  C16 8UH 1 316     -34.321 126.138   7.621  1.00 72.68     0.020 C 
HETATM   17  C17 8UH 1 316     -35.724 127.739   6.339  1.00 73.05     0.020 C 
HETATM   18  C18 8UH 1 316     -31.523 129.838   7.485  1.00 72.13     0.044 C 
HETATM   19  C19 8UH 1 316     -35.354 130.748  10.562  1.00 70.45     0.048 C 
HETATM   20  C20 8UH 1 316     -38.225 135.219  11.374  1.00 72.89     0.048 C 
HETATM   21  O3  8UH 1 316     -31.882 126.671   3.734  1.00 71.04    -0.395 OA
ATOM     22  H3  8UH 1 316     -32.491 126.393   3.059  1.00  0.00     0.210 HD
HETATM   23  C21 8UH 1 316     -49.980 144.924  10.982  1.00 32.96    -0.018 C 
HETATM   24  C22 8UH 1 316     -50.645 144.413  12.259  1.00 32.96     0.045 C 
HETATM   25  C23 8UH 1 316     -49.847 144.601  13.543  1.00 32.96     0.123 C 
HETATM   26  C24 8UH 1 316     -48.887 145.763  13.403  1.00 32.96     0.066 C 
HETATM   27  C25 8UH 1 316     -47.954 145.449  12.268  1.00 32.96    -0.074 C 
HETATM   28  C26 8UH 1 316     -48.488 145.093  11.096  1.00 32.96    -0.048 C 
HETATM   29  C27 8UH 1 316     -47.662 144.608   9.981  1.00 32.96     0.009 C 
HETATM   30  C28 8UH 1 316     -46.791 143.669  10.356  1.00 32.96     0.007 C 
HETATM   31  C29 8UH 1 316     -46.013 142.897   9.364  1.00 94.72    -0.062 C 
HETATM   32  C30 8UH 1 316     -45.173 141.963   9.827  1.00 91.32     0.007 C 
HETATM   33  C31 8UH 1 316     -44.353 141.106   8.972  1.00 87.88     0.001 C 
HETATM   34  C32 8UH 1 316     -43.488 140.308   9.592  1.00 84.19     0.007 C 
HETATM   35  C33 8UH 1 316     -42.600 139.356   8.903  1.00 80.79    -0.062 C 
HETATM   36  C34 8UH 1 316     -41.734 138.638   9.641  1.00 78.84     0.007 C 
HETATM   37  C35 8UH 1 316     -40.842 137.647   9.045  1.00 76.79     0.001 C 
HETATM   38  C36 8UH 1 316     -50.521 146.313  10.664  1.00 32.96     0.020 C 
HETATM   39  C37 8UH 1 316     -50.282 143.983   9.824  1.00 32.96     0.020 C 
HETATM   40  C38 8UH 1 316     -46.512 145.848  12.453  1.00 32.96     0.044 C 
HETATM   41  C39 8UH 1 316     -46.168 143.142   7.894  1.00 95.37     0.048 C 
HETATM   42  C40 8UH 1 316     -42.686 139.180   7.416  1.00 90.13     0.048 C 
HETATM   43  O23 8UH 1 316     -50.737 144.881  14.626  1.00 32.96    -0.395 OA
ATOM     44  H23 8UH 1 316     -51.340 144.153  14.714  1.00  0.00     0.210 HD
ENDROOT
TORSDOF 12
BEGIN_RES PHE A  61
REMARK  2 active torsions:
REMARK  status: ('A' for Active; 'I' for Inactive)
REMARK    1  A    between atoms: CA   and  CB  
REMARK    2  A    between atoms: CB   and  CG  
ROOT
ATOM      1  CA  PHE A  61     -36.237 128.293  12.768  1.00 39.40     0.164 C 
ENDROOT
BRANCH   1   2
ATOM      2  CB  PHE A  61     -36.813 128.951  11.509  1.00 39.41     0.058 C 
BRANCH   2   3
ATOM      3  CG  PHE A  61     -37.070 127.996  10.368  1.00 39.01    -0.020 A 
ATOM      4  CD2 PHE A  61     -36.363 126.809  10.260  1.00 40.32    -0.004 A 
ATOM      5  CE2 PHE A  61     -36.598 125.933   9.208  1.00 40.20    -0.000 A 
ATOM      6  CZ  PHE A  61     -37.545 126.232   8.255  1.00 40.34    -0.000 A 
ATOM      7  CE1 PHE A  61     -38.258 127.406   8.349  1.00 41.51    -0.000 A 
ATOM      8  CD1 PHE A  61     -38.019 128.286   9.397  1.00 39.94    -0.004 A 
ENDBRANCH   2   3
ENDBRANCH   1   2
END_RES PHE A  61
BEGIN_RES VAL A 134
REMARK  1 active torsions:
REMARK  status: ('A' for Active; 'I' for Inactive)
REMARK    3  A    between atoms: CA   and  CB  
ROOT
ATOM      9  CA  VAL A 134     -29.766 132.051   9.815  1.00 40.75     0.159 C 
ENDROOT
BRANCH   9  10
ATOM     10  CB  VAL A 134     -30.864 132.765   9.009  1.00 40.76     0.029 C 
ATOM     11  CG1 VAL A 134     -30.872 132.283   7.566  1.00 41.76     0.002 C 
ATOM     12  CG2 VAL A 134     -32.234 132.587   9.646  1.00 40.56     0.002 C 
ENDBRANCH   9  10
END_RES VAL A 134
BEGIN_RES TYR A 338
REMARK  3 active torsions:
REMARK  status: ('A' for Active; 'I' for Inactive)
REMARK    4  A    between atoms: CA   and  CB  
REMARK    5  A    between atoms: CB   and  CG  
REMARK    6  A    between atoms: CZ   and  OH  
ROOT
ATOM     13  CA  TYR A 338     -41.631 124.950   6.058  1.00 38.23     0.164 C 
ENDROOT
BRANCH  13  14
ATOM     14  CB  TYR A 338     -41.621 126.456   6.339  1.00 39.15     0.058 C 
BRANCH  14  15
ATOM     15  CG  TYR A 338     -40.423 127.213   5.814  1.00 39.03    -0.020 A 
ATOM     16  CD2 TYR A 338     -40.255 128.555   6.114  1.00 40.65    -0.002 A 
ATOM     17  CE2 TYR A 338     -39.177 129.284   5.637  1.00 40.91     0.024 A 
ATOM     18  CZ  TYR A 338     -38.234 128.669   4.835  1.00 42.33     0.089 A 
ATOM     19  CE1 TYR A 338     -38.377 127.329   4.525  1.00 40.63     0.024 A 
ATOM     20  CD1 TYR A 338     -39.470 126.620   5.001  1.00 39.27    -0.002 A 
BRANCH  18  21
ATOM     21  OH  TYR A 338     -37.165 129.378   4.362  1.00 43.36    -0.359 OA
ATOM     22  HH  TYR A 338     -37.046 129.503   3.428  1.00  0.00     0.217 HD
ENDBRANCH  18  21
ENDBRANCH  14  15
ENDBRANCH  13  14
END_RES TYR A 338
ENDMDL
MODEL 3
REMARK VINA RESULT:    -8.540      2.157      3.202
REMARK INTER + INTRA:         -11.573
REMARK INTER:                  -8.569
REMARK INTRA:                  -3.004
REMARK UNBOUND:                -3.033
REMARK  0 active torsions:
REMARK  status: ('A' for Active; 'I' for Inactive)
REMARK       I    between atoms: C3_3  and  O3_21 
REMARK       I    between atoms: C6_6  and  C7_7 
REMARK       I    between atoms: C8_8  and  C9_9 
REMARK       I    between atoms: C10_10  and  C11_11 
REMARK       I    between atoms: C12_12  and  C13_13 
REMARK       I    between atoms: C14_14  and  C15_15 
REMARK       I    between atoms: C23_25  and  O23_43 
REMARK       I    between atoms: C26_28  and  C27_29 
REMARK       I    between atoms: C28_30  and  C29_31 
REMARK       I    between atoms: C30_32  and  C31_33 
REMARK       I    between atoms: C32_34  and  C33_35 
REMARK       I    between atoms: C34_36  and  C35_37 
ROOT
HETATM    1  C1  8UH 1 316     -48.953 147.712   8.746  1.00 73.24    -0.018 C 
HETATM    2  C2  8UH 1 316     -50.481 147.768   8.670  1.00 72.84     0.045 C 
HETATM    3  C3  8UH 1 316     -51.245 147.379   9.930  1.00 72.53     0.123 C 
HETATM    4  C4  8UH 1 316     -50.569 147.968  11.153  1.00 72.61     0.066 C 
HETATM    5  C5  8UH 1 316     -49.149 147.473  11.222  1.00 72.68    -0.074 C 
HETATM    6  C6  8UH 1 316     -48.388 147.430  10.127  1.00 72.79    -0.048 C 
HETATM    7  C7  8UH 1 316     -46.950 147.091  10.249  1.00 71.90     0.009 C 
HETATM    8  C8  8UH 1 316     -46.557 145.815  10.301  1.00 71.51     0.007 C 
HETATM    9  C9  8UH 1 316     -45.138 145.415  10.417  1.00 70.48    -0.062 C 
HETATM   10  C10 8UH 1 316     -44.849 144.105  10.400  1.00 69.46     0.007 C 
HETATM   11  C11 8UH 1 316     -43.501 143.550  10.499  1.00 69.85     0.001 C 
HETATM   12  C12 8UH 1 316     -43.402 142.223  10.433  1.00 72.15     0.007 C 
HETATM   13  C13 8UH 1 316     -42.129 141.473  10.496  1.00 73.74    -0.062 C 
HETATM   14  C14 8UH 1 316     -42.154 140.170  10.164  1.00 74.04     0.007 C 
HETATM   15  C15 8UH 1 316     -40.965 139.320  10.159  1.00 74.62     0.001 C 
HETATM   16  C16 8UH 1 316     -48.408 149.051   8.265  1.00 72.68     0.020 C 
HETATM   17  C17 8UH 1 316     -48.470 146.607   7.814  1.00 73.05     0.020 C 
HETATM   18  C18 8UH 1 316     -48.531 147.368  12.587  1.00 72.13     0.044 C 
HETATM   19  C19 8UH 1 316     -44.058 146.447  10.559  1.00 70.45     0.048 C 
HETATM   20  C20 8UH 1 316     -40.853 142.147  10.918  1.00 72.89     0.048 C 
HETATM   21  O3  8UH 1 316     -52.587 147.877   9.846  1.00 71.04    -0.395 OA
ATOM     22  H3  8UH 1 316     -53.010 147.507   9.080  1.00  0.00     0.210 HD
HETATM   23  C21 8UH 1 316     -33.544 129.391   6.870  1.00 32.96    -0.018 C 
HETATM   24  C22 8UH 1 316     -32.327 130.093   6.270  1.00 32.96     0.045 C 
HETATM   25  C23 8UH 1 316     -31.481 130.901   7.245  1.00 32.96     0.123 C 
HETATM   26  C24 8UH 1 316     -31.635 130.362   8.651  1.00 32.96     0.066 C 
HETATM   27  C25 8UH 1 316     -33.086 130.476   9.026  1.00 32.96    -0.074 C 
HETATM   28  C26 8UH 1 316     -33.993 129.965   8.188  1.00 32.96    -0.048 C 
HETATM   29  C27 8UH 1 316     -35.435 130.173   8.382  1.00 32.96     0.009 C 
HETATM   30  C28 8UH 1 316     -35.744 131.449   8.619  1.00 32.96     0.007 C 
HETATM   31  C29 8UH 1 316     -37.147 131.914   8.634  1.00 94.72    -0.062 C 
HETATM   32  C30 8UH 1 316     -37.366 133.215   8.864  1.00 91.32     0.007 C 
HETATM   33  C31 8UH 1 316     -38.693 133.828   8.889  1.00 87.88     0.001 C 
HETATM   34  C32 8UH 1 316     -38.744 135.109   9.243  1.00 84.19     0.007 C 
HETATM   35  C33 8UH 1 316     -39.985 135.902   9.298  1.00 80.79    -0.062 C 
HETATM   36  C34 8UH 1 316     -39.910 137.178   9.720  1.00 78.84     0.007 C 
HETATM   37  C35 8UH 1 316     -41.084 138.047   9.773  1.00 76.79     0.001 C 
HETATM   38  C36 8UH 1 316     -33.183 127.940   7.164  1.00 32.96     0.020 C 
HETATM   39  C37 8UH 1 316     -34.708 129.436   5.891  1.00 32.96     0.020 C 
HETATM   40  C38 8UH 1 316     -33.384 130.886  10.446  1.00 32.96     0.044 C 
HETATM   41  C39 8UH 1 316     -38.282 130.967   8.389  1.00 95.37     0.048 C 
HETATM   42  C40 8UH 1 316     -41.289 135.301   8.868  1.00 90.13     0.048 C 
HETATM   43  O23 8UH 1 316     -30.101 130.807   6.878  1.00 32.96    -0.395 OA
ATOM     44  H23 8UH 1 316     -30.004 131.145   5.996  1.00  0.00     0.210 HD
ENDROOT
TORSDOF 12
BEGIN_RES PHE A  61
REMARK  2 active torsions:
REMARK  status: ('A' for Active; 'I' for Inactive)
REMARK    1  A    between atoms: CA   and  CB  
REMARK    2  A    between atoms: CB   and  CG  
ROOT
ATOM      1  CA  PHE A  61     -36.237 128.293  12.768  1.00 39.40     0.164 C 
ENDROOT
BRANCH   1   2
ATOM      2  CB  PHE A  61     -36.813 128.951  11.509  1.00 39.41     0.058 C 
BRANCH   2   3
ATOM      3  CG  PHE A  61     -36.704 128.110  10.260  1.00 39.01    -0.020 A 
ATOM      4  CD2 PHE A  61     -37.746 128.052   9.347  1.00 40.32    -0.004 A 
ATOM      5  CE2 PHE A  61     -37.646 127.275   8.200  1.00 40.20    -0.000 A 
ATOM      6  CZ  PHE A  61     -36.503 126.551   7.950  1.00 40.34    -0.000 A 
ATOM      7  CE1 PHE A  61     -35.458 126.599   8.846  1.00 41.51    -0.000 A 
ATOM      8  CD1 PHE A  61     -35.560 127.370   9.997  1.00 39.94    -0.004 A 
ENDBRANCH   2   3
ENDBRANCH   1   2
END_RES PHE A  61
BEGIN_RES VAL A 134
REMARK  1 active torsions:
REMARK  status: ('A' for Active; 'I' for Inactive)
REMARK    3  A    between atoms: CA   and  CB  
ROOT
ATOM      9  CA  VAL A 134     -29.766 132.051   9.815  1.00 40.75     0.159 C 
ENDROOT
BRANCH   9  10
ATOM     10  CB  VAL A 134     -30.864 132.765   9.009  1.00 40.76     0.029 C 
ATOM     11  CG1 VAL A 134     -31.923 133.342   9.937  1.00 41.76     0.002 C 
ATOM     12  CG2 VAL A 134     -30.286 133.847   8.109  1.00 40.56     0.002 C 
ENDBRANCH   9  10
END_RES VAL A 134
BEGIN_RES TYR A 338
REMARK  3 active torsions:
REMARK  status: ('A' for Active; 'I' for Inactive)
REMARK    4  A    between atoms: CA   and  CB  
REMARK    5  A    between atoms: CB   and  CG  
REMARK    6  A    between atoms: CZ   and  OH  
ROOT
ATOM     13  CA  TYR A 338     -41.631 124.950   6.058  1.00 38.23     0.164 C 
ENDROOT
BRANCH  13  14
ATOM     14  CB  TYR A 338     -41.621 126.456   6.339  1.00 39.15     0.058 C 
BRANCH  14  15
ATOM     15  CG  TYR A 338     -40.410 127.209   5.838  1.00 39.03    -0.020 A 
ATOM     16  CD2 TYR A 338     -40.247 128.551   6.136  1.00 40.65    -0.002 A 
ATOM     17  CE2 TYR A 338     -39.157 129.276   5.679  1.00 40.91     0.024 A 
ATOM     18  CZ  TYR A 338     -38.197 128.656   4.902  1.00 42.33     0.089 A 
ATOM     19  CE1 TYR A 338     -38.335 127.314   4.595  1.00 40.63     0.024 A 
ATOM     20  CD1 TYR A 338     -39.439 126.610   5.050  1.00 39.27    -0.002 A 
BRANCH  18  21
ATOM     21  OH  TYR A 338     -37.116 129.361   4.451  1.00 43.36    -0.359 OA
ATOM     22  HH  TYR A 338     -37.162 129.839   3.631  1.00  0.00     0.217 HD
ENDBRANCH  18  21
ENDBRANCH  14  15
ENDBRANCH  13  14
END_RES TYR A 338
ENDMDL
