MODEL 1
REMARK VINA RESULT:   -11.367      0.000      0.000
REMARK INTER + INTRA:         -14.916
REMARK INTER:                 -11.367
REMARK INTRA:                  -3.549
REMARK UNBOUND:                -3.549
REMARK  0 active torsions:
REMARK  status: ('A' for Active; 'I' for Inactive)
REMARK       I    between atoms: C3_3  and  O3_21 
REMARK       I    between atoms: C6_6  and  C7_7 
REMARK       I    between atoms: C8_8  and  C9_9 
REMARK       I    between atoms: C10_10  and  C11_11 
REMARK       I    between atoms: C12_12  and  C13_13 
REMARK       I    between atoms: C14_14  and  C15_15 
REMARK       I    between atoms: C23_25  and  O23_43 
REMARK       I    between atoms: C26_28  and  C27_29 
REMARK       I    between atoms: C28_30  and  C29_31 
REMARK       I    between atoms: C30_32  and  C31_33 
REMARK       I    between atoms: C32_34  and  C33_35 
REMARK       I    between atoms: C34_36  and  C35_37 
ROOT
HETATM    1  C1  8UH V1621     -49.156 144.063  10.389  1.00 16.22    -0.018 C 
HETATM    2  C2  8UH V1621     -49.727 144.008  11.790  1.00 16.22     0.045 C 
HETATM    3  C3  8UH V1621     -48.842 144.599  12.849  1.00 16.22     0.123 C 
HETATM    4  C4  8UH V1621     -48.313 145.897  12.300  1.00 16.22     0.066 C 
HETATM    5  C5  8UH V1621     -47.372 145.507  11.207  1.00 16.22    -0.074 C 
HETATM    6  C6  8UH V1621     -47.796 144.681  10.255  1.00 16.22    -0.048 C 
HETATM    7  C7  8UH V1621     -46.932 144.137   9.198  1.00 16.22     0.009 C 
HETATM    8  C8  8UH V1621     -45.734 143.719   9.595  1.00 16.22     0.007 C 
HETATM    9  C9  8UH V1621     -44.902 142.929   8.671  1.00 16.22    -0.062 C 
HETATM   10  C10 8UH V1621     -44.030 142.070   9.218  1.00 16.22     0.007 C 
HETATM   11  C11 8UH V1621     -43.245 141.114   8.446  1.00 16.22     0.001 C 
HETATM   12  C12 8UH V1621     -42.546 140.179   9.081  1.00 16.22     0.007 C 
HETATM   13  C13 8UH V1621     -41.790 139.149   8.348  1.00 16.22    -0.062 C 
HETATM   14  C14 8UH V1621     -41.206 138.172   9.058  1.00 16.22     0.007 C 
HETATM   15  C15 8UH V1621     -40.440 137.076   8.469  1.00 16.22     0.001 C 
HETATM   16  C16 8UH V1621     -50.050 144.952   9.543  1.00 16.22     0.020 C 
HETATM   17  C17 8UH V1621     -49.143 142.646   9.889  1.00 16.22     0.020 C 
HETATM   18  C18 8UH V1621     -46.188 146.401  11.045  1.00 16.22     0.044 C 
HETATM   19  C19 8UH V1621     -45.120 143.030   7.190  1.00 16.22     0.048 C 
HETATM   20  C20 8UH V1621     -41.733 139.232   6.854  1.00 16.22     0.048 C 
HETATM   21  O3  8UH V1621     -49.665 144.802  13.992  1.00 16.22    -0.395 OA
ATOM     22  H3  8UH V1621     -49.105 145.176  14.663  1.00  0.00     0.210 HD
HETATM   23  C21 8UH V1621     -33.466 126.688   6.917  1.00 45.52    -0.018 C 
HETATM   24  C22 8UH V1621     -34.198 126.383   5.612  1.00 45.52     0.045 C 
HETATM   25  C23 8UH V1621     -33.976 127.416   4.515  1.00 45.52     0.123 C 
HETATM   26  C24 8UH V1621     -32.579 127.998   4.640  1.00 45.52     0.066 C 
HETATM   27  C25 8UH V1621     -32.540 128.744   5.942  1.00 45.52    -0.074 C 
HETATM   28  C26 8UH V1621     -33.036 128.128   7.024  1.00 45.52    -0.048 C 
HETATM   29  C27 8UH V1621     -33.450 128.895   8.202  1.00 45.52     0.009 C 
HETATM   30  C28 8UH V1621     -34.399 129.761   7.840  1.00 45.52     0.007 C 
HETATM   31  C29 8UH V1621     -35.141 130.574   8.812  1.00 16.22    -0.062 C 
HETATM   32  C30 8UH V1621     -36.102 131.378   8.331  1.00 16.22     0.007 C 
HETATM   33  C31 8UH V1621     -36.909 132.272   9.148  1.00 16.22     0.001 C 
HETATM   34  C32 8UH V1621     -37.708 133.145   8.552  1.00 16.22     0.007 C 
HETATM   35  C33 8UH V1621     -38.485 134.123   9.329  1.00 16.22    -0.062 C 
HETATM   36  C34 8UH V1621     -39.132 135.080   8.646  1.00 16.22     0.007 C 
HETATM   37  C35 8UH V1621     -39.905 136.158   9.253  1.00 16.22     0.001 C 
HETATM   38  C36 8UH V1621     -32.195 125.851   6.992  1.00 45.52     0.020 C 
HETATM   39  C37 8UH V1621     -34.354 126.365   8.109  1.00 45.52     0.020 C 
HETATM   40  C38 8UH V1621     -32.098 130.187   5.903  1.00 45.52     0.044 C 
HETATM   41  C39 8UH V1621     -34.813 130.417  10.262  1.00 16.22     0.048 C 
HETATM   42  C40 8UH V1621     -38.472 134.025  10.822  1.00 16.22     0.048 C 
HETATM   43  O23 8UH V1621     -34.115 126.804   3.229  1.00 45.52    -0.395 OA
ATOM     44  H23 8UH V1621     -33.976 127.449   2.545  1.00  0.00     0.210 HD
ENDROOT
TORSDOF 12
BEGIN_RES PHE A  61
REMARK  2 active torsions:
REMARK  status: ('A' for Active; 'I' for Inactive)
REMARK    1  A    between atoms: CA   and  CB  
REMARK    2  A    between atoms: CB   and  CG  
ROOT
ATOM      1  CA  PHE A  61     -36.237 128.293  12.768  1.00 39.40     0.164 C 
ENDROOT
BRANCH   1   2
ATOM      2  CB  PHE A  61     -36.813 128.951  11.509  1.00 39.41     0.058 C 
BRANCH   2   3
ATOM      3  CG  PHE A  61     -37.010 128.008  10.346  1.00 39.01    -0.020 A 
ATOM      4  CD2 PHE A  61     -36.288 126.828  10.257  1.00 40.32    -0.004 A 
ATOM      5  CE2 PHE A  61     -36.468 125.962   9.185  1.00 40.20    -0.000 A 
ATOM      6  CZ  PHE A  61     -37.372 126.265   8.193  1.00 40.34    -0.000 A 
ATOM      7  CE1 PHE A  61     -38.098 127.433   8.268  1.00 41.51    -0.000 A 
ATOM      8  CD1 PHE A  61     -37.914 128.302   9.336  1.00 39.94    -0.004 A 
ENDBRANCH   2   3
ENDBRANCH   1   2
END_RES PHE A  61
BEGIN_RES VAL A 134
REMARK  1 active torsions:
REMARK  status: ('A' for Active; 'I' for Inactive)
REMARK    3  A    between atoms: CA   and  CB  
ROOT
ATOM      9  CA  VAL A 134     -29.766 132.051   9.815  1.00 40.75     0.159 C 
ENDROOT
BRANCH   9  10
ATOM     10  CB  VAL A 134     -30.864 132.765   9.009  1.00 40.76     0.029 C 
ATOM     11  CG1 VAL A 134     -31.145 132.025   7.710  1.00 41.76     0.002 C 
ATOM     12  CG2 VAL A 134     -32.138 132.932   9.822  1.00 40.56     0.002 C 
ENDBRANCH   9  10
END_RES VAL A 134
BEGIN_RES TYR A 338
REMARK  3 active torsions:
REMARK  status: ('A' for Active; 'I' for Inactive)
REMARK    4  A    between atoms: CA   and  CB  
REMARK    5  A    between atoms: CB   and  CG  
REMARK    6  A    between atoms: CZ   and  OH  
ROOT
ATOM     13  CA  TYR A 338     -41.631 124.950   6.058  1.00 38.23     0.164 C 
ENDROOT
BRANCH  13  14
ATOM     14  CB  TYR A 338     -41.621 126.456   6.339  1.00 39.15     0.058 C 
BRANCH  14  15
ATOM     15  CG  TYR A 338     -40.391 127.202   5.875  1.00 39.03    -0.020 A 
ATOM     16  CD2 TYR A 338     -40.221 128.539   6.191  1.00 40.65    -0.002 A 
ATOM     17  CE2 TYR A 338     -39.114 129.258   5.769  1.00 40.91     0.024 A 
ATOM     18  CZ  TYR A 338     -38.142 128.637   5.008  1.00 42.33     0.089 A 
ATOM     19  CE1 TYR A 338     -38.286 127.300   4.683  1.00 40.63     0.024 A 
ATOM     20  CD1 TYR A 338     -39.408 126.602   5.103  1.00 39.27    -0.002 A 
BRANCH  18  21
ATOM     21  OH  TYR A 338     -37.043 129.335   4.590  1.00 43.36    -0.359 OA
ATOM     22  HH  TYR A 338     -37.067 130.283   4.539  1.00  0.00     0.217 HD
ENDBRANCH  18  21
ENDBRANCH  14  15
ENDBRANCH  13  14
END_RES TYR A 338
ENDMDL
MODEL 2
REMARK VINA RESULT:    -9.656      0.864     16.205
REMARK INTER + INTRA:         -13.205
REMARK INTER:                 -10.583
REMARK INTRA:                  -2.622
REMARK UNBOUND:                -3.549
REMARK  0 active torsions:
REMARK  status: ('A' for Active; 'I' for Inactive)
REMARK       I    between atoms: C3_3  and  O3_21 
REMARK       I    between atoms: C6_6  and  C7_7 
REMARK       I    between atoms: C8_8  and  C9_9 
REMARK       I    between atoms: C10_10  and  C11_11 
REMARK       I    between atoms: C12_12  and  C13_13 
REMARK       I    between atoms: C14_14  and  C15_15 
REMARK       I    between atoms: C23_25  and  O23_43 
REMARK       I    between atoms: C26_28  and  C27_29 
REMARK       I    between atoms: C28_30  and  C29_31 
REMARK       I    between atoms: C30_32  and  C31_33 
REMARK       I    between atoms: C32_34  and  C33_35 
REMARK       I    between atoms: C34_36  and  C35_37 
ROOT
HETATM    1  C1  8UH V1621     -34.184 127.038   6.721  1.00 16.22    -0.018 C 
HETATM    2  C2  8UH V1621     -33.990 126.785   5.242  1.00 16.22     0.045 C 
HETATM    3  C3  8UH V1621     -33.067 127.751   4.558  1.00 16.22     0.123 C 
HETATM    4  C4  8UH V1621     -31.872 127.923   5.456  1.00 16.22     0.066 C 
HETATM    5  C5  8UH V1621     -32.379 128.674   6.644  1.00 16.22    -0.074 C 
HETATM    6  C6  8UH V1621     -33.447 128.214   7.291  1.00 16.22    -0.048 C 
HETATM    7  C7  8UH V1621     -34.104 128.925   8.397  1.00 16.22     0.009 C 
HETATM    8  C8  8UH V1621     -34.267 130.232   8.222  1.00 16.22     0.007 C 
HETATM    9  C9  8UH V1621     -35.135 130.982   9.146  1.00 16.22    -0.062 C 
HETATM   10  C10 8UH V1621     -35.730 132.083   8.666  1.00 16.22     0.007 C 
HETATM   11  C11 8UH V1621     -36.730 132.848   9.402  1.00 16.22     0.001 C 
HETATM   12  C12 8UH V1621     -37.400 133.814   8.782  1.00 16.22     0.007 C 
HETATM   13  C13 8UH V1621     -38.466 134.570   9.460  1.00 16.22    -0.062 C 
HETATM   14  C14 8UH V1621     -39.175 135.448   8.733  1.00 16.22     0.007 C 
HETATM   15  C15 8UH V1621     -40.271 136.256   9.264  1.00 16.22     0.001 C 
HETATM   16  C16 8UH V1621     -33.630 125.850   7.487  1.00 16.22     0.020 C 
HETATM   17  C17 8UH V1621     -35.664 127.195   6.926  1.00 16.22     0.020 C 
HETATM   18  C18 8UH V1621     -31.404 129.626   7.253  1.00 16.22     0.044 C 
HETATM   19  C19 8UH V1621     -35.401 130.452  10.524  1.00 16.22     0.048 C 
HETATM   20  C20 8UH V1621     -38.719 134.305  10.912  1.00 16.22     0.048 C 
HETATM   21  O3  8UH V1621     -32.715 127.157   3.313  1.00 16.22    -0.395 OA
ATOM     22  H3  8UH V1621     -32.131 127.769   2.880  1.00  0.00     0.210 HD
HETATM   23  C21 8UH V1621     -49.777 144.461  10.385  1.00 45.52    -0.018 C 
HETATM   24  C22 8UH V1621     -50.461 143.543  11.395  1.00 45.52     0.045 C 
HETATM   25  C23 8UH V1621     -49.684 143.352  12.692  1.00 45.52     0.123 C 
HETATM   26  C24 8UH V1621     -48.919 144.622  13.017  1.00 45.52     0.066 C 
HETATM   27  C25 8UH V1621     -47.897 144.797  11.931  1.00 45.52    -0.074 C 
HETATM   28  C26 8UH V1621     -48.308 144.647  10.664  1.00 45.52    -0.048 C 
HETATM   29  C27 8UH V1621     -47.352 144.356   9.593  1.00 45.52     0.009 C 
HETATM   30  C28 8UH V1621     -46.717 143.217   9.880  1.00 45.52     0.007 C 
HETATM   31  C29 8UH V1621     -45.804 142.561   8.936  1.00 16.22    -0.062 C 
HETATM   32  C30 8UH V1621     -45.258 141.397   9.321  1.00 16.22     0.007 C 
HETATM   33  C31 8UH V1621     -44.311 140.631   8.525  1.00 16.22     0.001 C 
HETATM   34  C32 8UH V1621     -43.704 139.587   9.072  1.00 16.22     0.007 C 
HETATM   35  C33 8UH V1621     -42.680 138.828   8.338  1.00 16.22    -0.062 C 
HETATM   36  C34 8UH V1621     -41.993 137.899   9.020  1.00 16.22     0.007 C 
HETATM   37  C35 8UH V1621     -40.912 137.091   8.467  1.00 16.22     0.001 C 
HETATM   38  C36 8UH V1621     -50.409 145.847  10.454  1.00 45.52     0.020 C 
HETATM   39  C37 8UH V1621     -49.930 143.905   8.978  1.00 45.52     0.020 C 
HETATM   40  C38 8UH V1621     -46.457 144.963  12.352  1.00 45.52     0.044 C 
HETATM   41  C39 8UH V1621     -45.585 143.200   7.603  1.00 16.22     0.048 C 
HETATM   42  C40 8UH V1621     -42.434 139.163   6.900  1.00 16.22     0.048 C 
HETATM   43  O23 8UH V1621     -50.586 143.062  13.765  1.00 45.52    -0.395 OA
ATOM     44  H23 8UH V1621     -50.101 142.943  14.574  1.00  0.00     0.210 HD
ENDROOT
TORSDOF 12
BEGIN_RES PHE A  61
REMARK  2 active torsions:
REMARK  status: ('A' for Active; 'I' for Inactive)
REMARK    1  A    between atoms: CA   and  CB  
REMARK    2  A    between atoms: CB   and  CG  
ROOT
ATOM      1  CA  PHE A  61     -36.237 128.293  12.768  1.00 39.40     0.164 C 
ENDROOT
BRANCH   1   2
ATOM      2  CB  PHE A  61     -36.813 128.951  11.509  1.00 39.41     0.058 C 
BRANCH   2   3
ATOM      3  CG  PHE A  61     -37.092 127.993  10.376  1.00 39.01    -0.020 A 
ATOM      4  CD2 PHE A  61     -36.377 126.812  10.250  1.00 40.32    -0.004 A 
ATOM      5  CE2 PHE A  61     -36.633 125.933   9.205  1.00 40.20    -0.000 A 
ATOM      6  CZ  PHE A  61     -37.608 126.222   8.278  1.00 40.34    -0.000 A 
ATOM      7  CE1 PHE A  61     -38.330 127.389   8.391  1.00 41.51    -0.000 A 
ATOM      8  CD1 PHE A  61     -38.070 128.272   9.431  1.00 39.94    -0.004 A 
ENDBRANCH   2   3
ENDBRANCH   1   2
END_RES PHE A  61
BEGIN_RES VAL A 134
REMARK  1 active torsions:
REMARK  status: ('A' for Active; 'I' for Inactive)
REMARK    3  A    between atoms: CA   and  CB  
ROOT
ATOM      9  CA  VAL A 134     -29.766 132.051   9.815  1.00 40.75     0.159 C 
ENDROOT
BRANCH   9  10
ATOM     10  CB  VAL A 134     -30.864 132.765   9.009  1.00 40.76     0.029 C 
ATOM     11  CG1 VAL A 134     -31.018 132.134   7.633  1.00 41.76     0.002 C 
ATOM     12  CG2 VAL A 134     -32.191 132.772   9.752  1.00 40.56     0.002 C 
ENDBRANCH   9  10
END_RES VAL A 134
BEGIN_RES TYR A 338
REMARK  3 active torsions:
REMARK  status: ('A' for Active; 'I' for Inactive)
REMARK    4  A    between atoms: CA   and  CB  
REMARK    5  A    between atoms: CB   and  CG  
REMARK    6  A    between atoms: CZ   and  OH  
ROOT
ATOM     13  CA  TYR A 338     -41.631 124.950   6.058  1.00 38.23     0.164 C 
ENDROOT
BRANCH  13  14
ATOM     14  CB  TYR A 338     -41.621 126.456   6.339  1.00 39.15     0.058 C 
BRANCH  14  15
ATOM     15  CG  TYR A 338     -40.400 127.205   5.857  1.00 39.03    -0.020 A 
ATOM     16  CD2 TYR A 338     -40.230 128.543   6.169  1.00 40.65    -0.002 A 
ATOM     17  CE2 TYR A 338     -39.131 129.265   5.731  1.00 40.91     0.024 A 
ATOM     18  CZ  TYR A 338     -38.167 128.646   4.958  1.00 42.33     0.089 A 
ATOM     19  CE1 TYR A 338     -38.312 127.308   4.637  1.00 40.63     0.024 A 
ATOM     20  CD1 TYR A 338     -39.425 126.607   5.074  1.00 39.27    -0.002 A 
BRANCH  18  21
ATOM     21  OH  TYR A 338     -37.076 129.347   4.525  1.00 43.36    -0.359 OA
ATOM     22  HH  TYR A 338     -36.822 129.322   3.610  1.00  0.00     0.217 HD
ENDBRANCH  18  21
ENDBRANCH  14  15
ENDBRANCH  13  14
END_RES TYR A 338
ENDMDL
