MODEL 1
REMARK VINA RESULT:   -11.685      0.000      0.000
REMARK INTER + INTRA:         -11.956
REMARK INTER:                 -11.685
REMARK INTRA:                  -0.271
REMARK UNBOUND:                -0.271
REMARK  0 active torsions:
REMARK  status: ('A' for Active; 'I' for Inactive)
REMARK       I    between atoms: C3_3  and  O3_21 
REMARK       I    between atoms: C6_6  and  C7_7 
REMARK       I    between atoms: C8_8  and  C9_9 
REMARK       I    between atoms: C10_10  and  C11_11 
REMARK       I    between atoms: C12_12  and  C13_13 
REMARK       I    between atoms: C14_14  and  C15_15 
REMARK       I    between atoms: C23_25  and  O23_43 
REMARK       I    between atoms: C26_28  and  C27_29 
REMARK       I    between atoms: C28_30  and  C29_31 
REMARK       I    between atoms: C30_32  and  C31_33 
REMARK       I    between atoms: C32_34  and  C33_35 
REMARK       I    between atoms: C34_36  and  C35_37 
ROOT
HETATM    1  C1  8UH S1621     -49.474 145.152  12.354  1.00 98.50    -0.018 C 
HETATM    2  C2  8UH S1621     -50.443 145.835  13.298  1.00 95.05     0.045 C 
HETATM    3  C3  8UH S1621     -49.770 146.262  14.583  1.00 91.19     0.123 C 
HETATM    4  C4  8UH S1621     -48.639 147.228  14.300  1.00 95.39     0.066 C 
HETATM    5  C5  8UH S1621     -47.887 146.959  13.023  1.00 94.24    -0.074 C 
HETATM    6  C6  8UH S1621     -48.178 145.937  12.187  1.00 98.17    -0.048 C 
HETATM    7  C7  8UH S1621     -47.284 145.563  11.051  1.00 96.30     0.009 C 
HETATM    8  C8  8UH S1621     -46.232 144.748  11.185  1.00 99.74     0.007 C 
HETATM    9  C9  8UH S1621     -45.347 144.331  10.097  1.00 91.17    -0.062 C 
HETATM   10  C10 8UH S1621     -44.530 143.324  10.403  1.00 97.68     0.007 C 
HETATM   11  C11 8UH S1621     -43.593 142.730   9.471  1.00 98.02     0.001 C 
HETATM   12  C12 8UH S1621     -43.133 141.560   9.871  1.00 91.18     0.007 C 
HETATM   13  C13 8UH S1621     -42.202 140.752   9.085  1.00 90.92    -0.062 C 
HETATM   14  C14 8UH S1621     -41.830 139.594   9.625  1.00 96.50     0.007 C 
HETATM   15  C15 8UH S1621     -40.932 138.657   8.985  1.00 99.38     0.001 C 
HETATM   16  C16 8UH S1621     -50.261 144.921  11.073  1.00 90.00     0.020 C 
HETATM   17  C17 8UH S1621     -49.088 143.791  12.897  1.00 93.85     0.020 C 
HETATM   18  C18 8UH S1621     -46.533 147.585  13.126  1.00 91.76     0.044 C 
HETATM   19  C19 8UH S1621     -45.366 144.975   8.744  1.00 90.99     0.048 C 
HETATM   20  C20 8UH S1621     -41.719 141.205   7.741  1.00 93.33     0.048 C 
HETATM   21  O3  8UH S1621     -50.725 146.933  15.404  1.00 92.07    -0.395 OA
ATOM     22  H3  8UH S1621     -50.302 147.201  16.211  1.00  0.00     0.210 HD
HETATM   23  C21 8UH S1621     -33.895 128.086   7.427  1.00 98.00    -0.022 C 
HETATM   24  C22 8UH S1621     -32.591 127.451   6.957  1.00 98.00     0.045 C 
HETATM   25  C23 8UH S1621     -31.883 128.223   5.846  1.00 98.00     0.119 C 
HETATM   26  C24 8UH S1621     -31.710 129.685   6.224  1.00 98.00     0.040 C 
HETATM   27  C25 8UH S1621     -33.064 130.226   6.590  1.00 98.00     0.013 C 
HETATM   28  C26 8UH S1621     -33.780 129.586   7.500  1.00 98.00    -0.068 C 
HETATM   29  C27 8UH S1621     -34.430 130.327   8.590  1.00 98.00     0.004 C 
HETATM   30  C28 8UH S1621     -35.387 131.195   8.288  1.00 98.00     0.007 C 
HETATM   31  C29 8UH S1621     -36.086 131.938   9.340  1.00 98.43    -0.062 C 
HETATM   32  C30 8UH S1621     -36.978 132.821   8.918  1.00 92.06     0.007 C 
HETATM   33  C31 8UH S1621     -37.782 133.649   9.792  1.00 98.99     0.001 C 
HETATM   34  C32 8UH S1621     -38.276 134.710   9.182  1.00 98.35     0.007 C 
HETATM   35  C33 8UH S1621     -39.143 135.673   9.855  1.00 93.74    -0.062 C 
HETATM   36  C34 8UH S1621     -39.498 136.759   9.174  1.00 95.45     0.007 C 
HETATM   37  C35 8UH S1621     -40.383 137.741   9.766  1.00 96.56     0.001 C 
HETATM   38  C36 8UH S1621     -34.263 127.511   8.789  1.00 98.00     0.019 C 
HETATM   39  C37 8UH S1621     -35.020 127.768   6.453  1.00 98.00     0.019 C 
HETATM   40  C38 8UH S1621     -32.058 131.267   6.991  1.00 98.00     0.015 C 
HETATM   41  C39 8UH S1621     -35.808 131.711  10.795  1.00 93.10     0.048 C 
HETATM   42  C40 8UH S1621     -39.625 135.408  11.245  1.00 95.49     0.048 C 
HETATM   43  O23 8UH S1621     -30.601 127.643   5.590  1.00 98.00    -0.396 OA
ATOM     44  H23 8UH S1621     -30.709 126.729   5.354  1.00  0.00     0.210 HD
ENDROOT
TORSDOF 12
BEGIN_RES PHE A  61
REMARK  2 active torsions:
REMARK  status: ('A' for Active; 'I' for Inactive)
REMARK    1  A    between atoms: CA   and  CB  
REMARK    2  A    between atoms: CB   and  CG  
ROOT
ATOM      1  CA  PHE A  61     -36.237 128.293  12.768  1.00 39.40     0.164 C 
ENDROOT
BRANCH   1   2
ATOM      2  CB  PHE A  61     -36.813 128.951  11.509  1.00 39.41     0.058 C 
BRANCH   2   3
ATOM      3  CG  PHE A  61     -37.031 128.003  10.354  1.00 39.01    -0.020 A 
ATOM      4  CD2 PHE A  61     -36.357 126.794  10.288  1.00 40.32    -0.004 A 
ATOM      5  CE2 PHE A  61     -36.556 125.925   9.223  1.00 40.20    -0.000 A 
ATOM      6  CZ  PHE A  61     -37.433 126.253   8.214  1.00 40.34    -0.000 A 
ATOM      7  CE1 PHE A  61     -38.111 127.450   8.265  1.00 41.51    -0.000 A 
ATOM      8  CD1 PHE A  61     -37.908 128.322   9.327  1.00 39.94    -0.004 A 
ENDBRANCH   2   3
ENDBRANCH   1   2
END_RES PHE A  61
BEGIN_RES VAL A 134
REMARK  1 active torsions:
REMARK  status: ('A' for Active; 'I' for Inactive)
REMARK    3  A    between atoms: CA   and  CB  
ROOT
ATOM      9  CA  VAL A 134     -29.766 132.051   9.815  1.00 40.75     0.159 C 
ENDROOT
BRANCH   9  10
ATOM     10  CB  VAL A 134     -30.864 132.765   9.009  1.00 40.76     0.029 C 
ATOM     11  CG1 VAL A 134     -32.120 132.940   9.849  1.00 41.76     0.002 C 
ATOM     12  CG2 VAL A 134     -30.384 134.103   8.469  1.00 40.56     0.002 C 
ENDBRANCH   9  10
END_RES VAL A 134
BEGIN_RES TYR A 338
REMARK  3 active torsions:
REMARK  status: ('A' for Active; 'I' for Inactive)
REMARK    4  A    between atoms: CA   and  CB  
REMARK    5  A    between atoms: CB   and  CG  
REMARK    6  A    between atoms: CZ   and  OH  
ROOT
ATOM     13  CA  TYR A 338     -41.631 124.950   6.058  1.00 38.23     0.164 C 
ENDROOT
BRANCH  13  14
ATOM     14  CB  TYR A 338     -41.621 126.456   6.339  1.00 39.15     0.058 C 
BRANCH  14  15
ATOM     15  CG  TYR A 338     -40.406 127.207   5.846  1.00 39.03    -0.020 A 
ATOM     16  CD2 TYR A 338     -40.237 128.547   6.154  1.00 40.65    -0.002 A 
ATOM     17  CE2 TYR A 338     -39.143 129.271   5.706  1.00 40.91     0.024 A 
ATOM     18  CZ  TYR A 338     -38.184 128.652   4.927  1.00 42.33     0.089 A 
ATOM     19  CE1 TYR A 338     -38.327 127.313   4.610  1.00 40.63     0.024 A 
ATOM     20  CD1 TYR A 338     -39.435 126.610   5.057  1.00 39.27    -0.002 A 
BRANCH  18  21
ATOM     21  OH  TYR A 338     -37.098 129.355   4.483  1.00 43.36    -0.359 OA
ATOM     22  HH  TYR A 338     -36.475 128.952   3.889  1.00  0.00     0.217 HD
ENDBRANCH  18  21
ENDBRANCH  14  15
ENDBRANCH  13  14
END_RES TYR A 338
ENDMDL
MODEL 2
REMARK VINA RESULT:   -11.587      1.391     16.642
REMARK INTER + INTRA:         -11.858
REMARK INTER:                  -7.762
REMARK INTRA:                  -4.096
REMARK UNBOUND:                -0.271
REMARK  0 active torsions:
REMARK  status: ('A' for Active; 'I' for Inactive)
REMARK       I    between atoms: C3_3  and  O3_21 
REMARK       I    between atoms: C6_6  and  C7_7 
REMARK       I    between atoms: C8_8  and  C9_9 
REMARK       I    between atoms: C10_10  and  C11_11 
REMARK       I    between atoms: C12_12  and  C13_13 
REMARK       I    between atoms: C14_14  and  C15_15 
REMARK       I    between atoms: C23_25  and  O23_43 
REMARK       I    between atoms: C26_28  and  C27_29 
REMARK       I    between atoms: C28_30  and  C29_31 
REMARK       I    between atoms: C30_32  and  C31_33 
REMARK       I    between atoms: C32_34  and  C33_35 
REMARK       I    between atoms: C34_36  and  C35_37 
ROOT
HETATM    1  C1  8UH S1621     -34.342 126.857   5.812  1.00 98.50    -0.018 C 
HETATM    2  C2  8UH S1621     -33.610 125.959   4.835  1.00 95.05     0.045 C 
HETATM    3  C3  8UH S1621     -32.761 126.755   3.869  1.00 91.19     0.123 C 
HETATM    4  C4  8UH S1621     -31.726 127.573   4.612  1.00 95.39     0.066 C 
HETATM    5  C5  8UH S1621     -32.186 128.108   5.942  1.00 94.24    -0.074 C 
HETATM    6  C6  8UH S1621     -33.423 127.895   6.446  1.00 98.17    -0.048 C 
HETATM    7  C7  8UH S1621     -33.923 128.616   7.654  1.00 96.30     0.009 C 
HETATM    8  C8  8UH S1621     -34.490 129.827   7.601  1.00 99.74     0.007 C 
HETATM    9  C9  8UH S1621     -35.020 130.558   8.752  1.00 91.17    -0.062 C 
HETATM   10  C10 8UH S1621     -35.764 131.618   8.440  1.00 97.68     0.007 C 
HETATM   11  C11 8UH S1621     -36.414 132.468   9.417  1.00 98.02     0.001 C 
HETATM   12  C12 8UH S1621     -37.348 133.239   8.895  1.00 91.18     0.007 C 
HETATM   13  C13 8UH S1621     -38.165 134.158   9.687  1.00 90.92    -0.062 C 
HETATM   14  C14 8UH S1621     -39.066 134.869   9.015  1.00 96.50     0.007 C 
HETATM   15  C15 8UH S1621     -39.974 135.812   9.632  1.00 99.38     0.001 C 
HETATM   16  C16 8UH S1621     -35.023 125.911   6.789  1.00 90.00     0.020 C 
HETATM   17  C17 8UH S1621     -35.434 127.627   5.096  1.00 93.85     0.020 C 
HETATM   18  C18 8UH S1621     -31.339 129.288   6.300  1.00 91.76     0.044 C 
HETATM   19  C19 8UH S1621     -34.759 130.142  10.168  1.00 90.99     0.048 C 
HETATM   20  C20 8UH S1621     -38.000 134.266  11.172  1.00 93.33     0.048 C 
HETATM   21  O3  8UH S1621     -32.069 125.850   3.009  1.00 92.07    -0.395 OA
ATOM     22  H3  8UH S1621     -31.536 126.350   2.402  1.00  0.00     0.210 HD
HETATM   23  C21 8UH S1621     -49.269 144.561  10.504  1.00 98.00    -0.022 C 
HETATM   24  C22 8UH S1621     -49.777 145.859  11.122  1.00 98.00     0.045 C 
HETATM   25  C23 8UH S1621     -49.211 146.157  12.508  1.00 98.00     0.119 C 
HETATM   26  C24 8UH S1621     -47.693 146.074  12.505  1.00 98.00     0.040 C 
HETATM   27  C25 8UH S1621     -47.309 144.730  11.954  1.00 98.00     0.013 C 
HETATM   28  C26 8UH S1621     -47.803 144.357  10.784  1.00 98.00    -0.068 C 
HETATM   29  C27 8UH S1621     -46.924 143.780   9.757  1.00 98.00     0.004 C 
HETATM   30  C28 8UH S1621     -46.335 142.617  10.003  1.00 98.00     0.007 C 
HETATM   31  C29 8UH S1621     -45.473 141.986   9.000  1.00 98.43    -0.062 C 
HETATM   32  C30 8UH S1621     -44.889 140.859   9.379  1.00 92.06     0.007 C 
HETATM   33  C31 8UH S1621     -44.010 140.074   8.538  1.00 98.99     0.001 C 
HETATM   34  C32 8UH S1621     -43.239 139.254   9.226  1.00 98.35     0.007 C 
HETATM   35  C33 8UH S1621     -42.293 138.342   8.591  1.00 93.74    -0.062 C 
HETATM   36  C34 8UH S1621     -41.493 137.635   9.385  1.00 95.45     0.007 C 
HETATM   37  C35 8UH S1621     -40.553 136.686   8.826  1.00 96.56     0.001 C 
HETATM   38  C36 8UH S1621     -49.526 144.593   9.003  1.00 98.00     0.019 C 
HETATM   39  C37 8UH S1621     -50.009 143.369  11.092  1.00 98.00     0.019 C 
HETATM   40  C38 8UH S1621     -46.047 145.541  12.036  1.00 98.00     0.015 C 
HETATM   41  C39 8UH S1621     -45.268 142.577   7.639  1.00 93.10     0.048 C 
HETATM   42  C40 8UH S1621     -42.267 138.202   7.102  1.00 95.49     0.048 C 
HETATM   43  O23 8UH S1621     -49.616 147.462  12.929  1.00 98.00    -0.396 OA
ATOM     44  H23 8UH S1621     -50.565 147.513  12.932  1.00  0.00     0.210 HD
ENDROOT
TORSDOF 12
BEGIN_RES PHE A  61
REMARK  2 active torsions:
REMARK  status: ('A' for Active; 'I' for Inactive)
REMARK    1  A    between atoms: CA   and  CB  
REMARK    2  A    between atoms: CB   and  CG  
ROOT
ATOM      1  CA  PHE A  61     -36.237 128.293  12.768  1.00 39.40     0.164 C 
ENDROOT
BRANCH   1   2
ATOM      2  CB  PHE A  61     -36.813 128.951  11.509  1.00 39.41     0.058 C 
BRANCH   2   3
ATOM      3  CG  PHE A  61     -36.953 128.021  10.327  1.00 39.01    -0.020 A 
ATOM      4  CD2 PHE A  61     -36.127 126.916  10.190  1.00 40.32    -0.004 A 
ATOM      5  CE2 PHE A  61     -36.255 126.064   9.100  1.00 40.20    -0.000 A 
ATOM      6  CZ  PHE A  61     -37.210 126.304   8.139  1.00 40.34    -0.000 A 
ATOM      7  CE1 PHE A  61     -38.040 127.397   8.263  1.00 41.51    -0.000 A 
ATOM      8  CD1 PHE A  61     -37.908 128.253   9.348  1.00 39.94    -0.004 A 
ENDBRANCH   2   3
ENDBRANCH   1   2
END_RES PHE A  61
BEGIN_RES VAL A 134
REMARK  1 active torsions:
REMARK  status: ('A' for Active; 'I' for Inactive)
REMARK    3  A    between atoms: CA   and  CB  
ROOT
ATOM      9  CA  VAL A 134     -29.766 132.051   9.815  1.00 40.75     0.159 C 
ENDROOT
BRANCH   9  10
ATOM     10  CB  VAL A 134     -30.864 132.765   9.009  1.00 40.76     0.029 C 
ATOM     11  CG1 VAL A 134     -31.153 132.019   7.714  1.00 41.76     0.002 C 
ATOM     12  CG2 VAL A 134     -32.135 132.941   9.826  1.00 40.56     0.002 C 
ENDBRANCH   9  10
END_RES VAL A 134
BEGIN_RES TYR A 338
REMARK  3 active torsions:
REMARK  status: ('A' for Active; 'I' for Inactive)
REMARK    4  A    between atoms: CA   and  CB  
REMARK    5  A    between atoms: CB   and  CG  
REMARK    6  A    between atoms: CZ   and  OH  
ROOT
ATOM     13  CA  TYR A 338     -41.631 124.950   6.058  1.00 38.23     0.164 C 
ENDROOT
BRANCH  13  14
ATOM     14  CB  TYR A 338     -41.621 126.456   6.339  1.00 39.15     0.058 C 
BRANCH  14  15
ATOM     15  CG  TYR A 338     -40.423 127.213   5.815  1.00 39.03    -0.020 A 
ATOM     16  CD2 TYR A 338     -40.249 128.551   6.125  1.00 40.65    -0.002 A 
ATOM     17  CE2 TYR A 338     -39.170 129.281   5.649  1.00 40.91     0.024 A 
ATOM     18  CZ  TYR A 338     -38.232 128.669   4.838  1.00 42.33     0.089 A 
ATOM     19  CE1 TYR A 338     -38.382 127.331   4.518  1.00 40.63     0.024 A 
ATOM     20  CD1 TYR A 338     -39.475 126.623   4.993  1.00 39.27    -0.002 A 
BRANCH  18  21
ATOM     21  OH  TYR A 338     -37.162 129.377   4.367  1.00 43.36    -0.359 OA
ATOM     22  HH  TYR A 338     -36.282 129.168   4.656  1.00  0.00     0.217 HD
ENDBRANCH  18  21
ENDBRANCH  14  15
ENDBRANCH  13  14
END_RES TYR A 338
ENDMDL
MODEL 3
REMARK VINA RESULT:   -11.408      3.088      4.561
REMARK INTER + INTRA:         -11.679
REMARK INTER:                  -5.241
REMARK INTRA:                  -6.438
REMARK UNBOUND:                -0.271
REMARK  0 active torsions:
REMARK  status: ('A' for Active; 'I' for Inactive)
REMARK       I    between atoms: C3_3  and  O3_21 
REMARK       I    between atoms: C6_6  and  C7_7 
REMARK       I    between atoms: C8_8  and  C9_9 
REMARK       I    between atoms: C10_10  and  C11_11 
REMARK       I    between atoms: C12_12  and  C13_13 
REMARK       I    between atoms: C14_14  and  C15_15 
REMARK       I    between atoms: C23_25  and  O23_43 
REMARK       I    between atoms: C26_28  and  C27_29 
REMARK       I    between atoms: C28_30  and  C29_31 
REMARK       I    between atoms: C30_32  and  C31_33 
REMARK       I    between atoms: C32_34  and  C33_35 
REMARK       I    between atoms: C34_36  and  C35_37 
ROOT
HETATM    1  C1  8UH S1621     -49.018 150.404   7.514  1.00 98.50    -0.018 C 
HETATM    2  C2  8UH S1621     -50.221 151.159   6.986  1.00 95.05     0.045 C 
HETATM    3  C3  8UH S1621     -51.508 150.401   7.223  1.00 91.19     0.123 C 
HETATM    4  C4  8UH S1621     -51.724 150.161   8.702  1.00 95.39     0.066 C 
HETATM    5  C5  8UH S1621     -50.464 149.915   9.489  1.00 94.24    -0.074 C 
HETATM    6  C6  8UH S1621     -49.230 149.898   8.937  1.00 98.17    -0.048 C 
HETATM    7  C7  8UH S1621     -48.029 149.436   9.693  1.00 96.30     0.009 C 
HETATM    8  C8  8UH S1621     -47.669 148.150   9.783  1.00 99.74     0.007 C 
HETATM    9  C9  8UH S1621     -46.486 147.655  10.488  1.00 91.17    -0.062 C 
HETATM   10  C10 8UH S1621     -46.183 146.383  10.233  1.00 97.68     0.007 C 
HETATM   11  C11 8UH S1621     -45.039 145.695  10.796  1.00 98.02     0.001 C 
HETATM   12  C12 8UH S1621     -44.746 144.573  10.167  1.00 91.18     0.007 C 
HETATM   13  C13 8UH S1621     -43.614 143.722  10.529  1.00 90.92    -0.062 C 
HETATM   14  C14 8UH S1621     -43.450 142.622   9.799  1.00 96.50     0.007 C 
HETATM   15  C15 8UH S1621     -42.376 141.673   9.998  1.00 99.38     0.001 C 
HETATM   16  C16 8UH S1621     -47.842 151.350   7.332  1.00 90.00     0.020 C 
HETATM   17  C17 8UH S1621     -48.750 149.183   6.657  1.00 93.85     0.020 C 
HETATM   18  C18 8UH S1621     -50.820 149.181  10.743  1.00 91.76     0.044 C 
HETATM   19  C19 8UH S1621     -45.674 148.512  11.410  1.00 90.99     0.048 C 
HETATM   20  C20 8UH S1621     -42.686 144.092  11.646  1.00 93.33     0.048 C 
HETATM   21  O3  8UH S1621     -52.600 151.184   6.742  1.00 92.07    -0.395 OA
ATOM     22  H3  8UH S1621     -53.408 150.708   6.891  1.00  0.00     0.210 HD
HETATM   23  C21 8UH S1621     -35.205 131.244   8.124  1.00 98.00    -0.022 C 
HETATM   24  C22 8UH S1621     -34.415 130.085   8.724  1.00 98.00     0.045 C 
HETATM   25  C23 8UH S1621     -33.844 130.368  10.111  1.00 98.00     0.119 C 
HETATM   26  C24 8UH S1621     -34.924 130.879  11.051  1.00 98.00     0.040 C 
HETATM   27  C25 8UH S1621     -35.578 132.063  10.396  1.00 98.00     0.013 C 
HETATM   28  C26 8UH S1621     -36.048 131.931   9.166  1.00 98.00    -0.068 C 
HETATM   29  C27 8UH S1621     -37.392 132.420   8.829  1.00 98.00     0.004 C 
HETATM   30  C28 8UH S1621     -37.632 133.724   8.898  1.00 98.00     0.007 C 
HETATM   31  C29 8UH S1621     -38.946 134.265   8.544  1.00 98.43    -0.062 C 
HETATM   32  C30 8UH S1621     -39.089 135.571   8.711  1.00 92.06     0.007 C 
HETATM   33  C31 8UH S1621     -40.301 136.304   8.412  1.00 98.99     0.001 C 
HETATM   34  C32 8UH S1621     -40.359 137.471   9.024  1.00 98.35     0.007 C 
HETATM   35  C33 8UH S1621     -41.474 138.397   8.850  1.00 93.74    -0.062 C 
HETATM   36  C34 8UH S1621     -41.480 139.498   9.597  1.00 95.45     0.007 C 
HETATM   37  C35 8UH S1621     -42.536 140.479   9.453  1.00 96.56     0.001 C 
HETATM   38  C36 8UH S1621     -36.079 130.715   6.994  1.00 98.00     0.019 C 
HETATM   39  C37 8UH S1621     -34.259 132.289   7.551  1.00 98.00     0.019 C 
HETATM   40  C38 8UH S1621     -36.421 131.707  11.587  1.00 98.00     0.015 C 
HETATM   41  C39 8UH S1621     -40.053 133.397   8.028  1.00 93.10     0.048 C 
HETATM   42  C40 8UH S1621     -42.539 138.111   7.841  1.00 95.49     0.048 C 
HETATM   43  O23 8UH S1621     -33.267 129.177  10.652  1.00 98.00    -0.396 OA
ATOM     44  H23 8UH S1621     -32.591 128.858  10.064  1.00  0.00     0.210 HD
ENDROOT
TORSDOF 12
BEGIN_RES PHE A  61
REMARK  2 active torsions:
REMARK  status: ('A' for Active; 'I' for Inactive)
REMARK    1  A    between atoms: CA   and  CB  
REMARK    2  A    between atoms: CB   and  CG  
ROOT
ATOM      1  CA  PHE A  61     -36.237 128.293  12.768  1.00 39.40     0.164 C 
ENDROOT
BRANCH   1   2
ATOM      2  CB  PHE A  61     -36.813 128.951  11.509  1.00 39.41     0.058 C 
BRANCH   2   3
ATOM      3  CG  PHE A  61     -36.689 128.117  10.256  1.00 39.01    -0.020 A 
ATOM      4  CD2 PHE A  61     -37.654 128.175   9.264  1.00 40.32    -0.004 A 
ATOM      5  CE2 PHE A  61     -37.540 127.405   8.113  1.00 40.20    -0.000 A 
ATOM      6  CZ  PHE A  61     -36.459 126.571   7.941  1.00 40.34    -0.000 A 
ATOM      7  CE1 PHE A  61     -35.489 126.504   8.917  1.00 41.51    -0.000 A 
ATOM      8  CD1 PHE A  61     -35.606 127.269  10.070  1.00 39.94    -0.004 A 
ENDBRANCH   2   3
ENDBRANCH   1   2
END_RES PHE A  61
BEGIN_RES VAL A 134
REMARK  1 active torsions:
REMARK  status: ('A' for Active; 'I' for Inactive)
REMARK    3  A    between atoms: CA   and  CB  
ROOT
ATOM      9  CA  VAL A 134     -29.766 132.051   9.815  1.00 40.75     0.159 C 
ENDROOT
BRANCH   9  10
ATOM     10  CB  VAL A 134     -30.864 132.765   9.009  1.00 40.76     0.029 C 
ATOM     11  CG1 VAL A 134     -31.266 131.938   7.797  1.00 41.76     0.002 C 
ATOM     12  CG2 VAL A 134     -32.076 133.084   9.871  1.00 40.56     0.002 C 
ENDBRANCH   9  10
END_RES VAL A 134
BEGIN_RES TYR A 338
REMARK  3 active torsions:
REMARK  status: ('A' for Active; 'I' for Inactive)
REMARK    4  A    between atoms: CA   and  CB  
REMARK    5  A    between atoms: CB   and  CG  
REMARK    6  A    between atoms: CZ   and  OH  
ROOT
ATOM     13  CA  TYR A 338     -41.631 124.950   6.058  1.00 38.23     0.164 C 
ENDROOT
BRANCH  13  14
ATOM     14  CB  TYR A 338     -41.621 126.456   6.339  1.00 39.15     0.058 C 
BRANCH  14  15
ATOM     15  CG  TYR A 338     -40.407 127.208   5.843  1.00 39.03    -0.020 A 
ATOM     16  CD2 TYR A 338     -39.431 126.557   5.108  1.00 40.65    -0.002 A 
ATOM     17  CE2 TYR A 338     -38.298 127.211   4.651  1.00 40.91     0.024 A 
ATOM     18  CZ  TYR A 338     -38.121 128.553   4.930  1.00 42.33     0.089 A 
ATOM     19  CE1 TYR A 338     -39.085 129.227   5.659  1.00 40.63     0.024 A 
ATOM     20  CD1 TYR A 338     -40.205 128.551   6.118  1.00 39.27    -0.002 A 
BRANCH  18  21
ATOM     21  OH  TYR A 338     -37.009 129.210   4.481  1.00 43.36    -0.359 OA
ATOM     22  HH  TYR A 338     -36.283 129.382   5.068  1.00  0.00     0.217 HD
ENDBRANCH  18  21
ENDBRANCH  14  15
ENDBRANCH  13  14
END_RES TYR A 338
ENDMDL
MODEL 4
REMARK VINA RESULT:   -10.426      1.617      2.511
REMARK INTER + INTRA:         -10.697
REMARK INTER:                  -8.425
REMARK INTRA:                  -2.272
REMARK UNBOUND:                -0.271
REMARK  0 active torsions:
REMARK  status: ('A' for Active; 'I' for Inactive)
REMARK       I    between atoms: C3_3  and  O3_21 
REMARK       I    between atoms: C6_6  and  C7_7 
REMARK       I    between atoms: C8_8  and  C9_9 
REMARK       I    between atoms: C10_10  and  C11_11 
REMARK       I    between atoms: C12_12  and  C13_13 
REMARK       I    between atoms: C14_14  and  C15_15 
REMARK       I    between atoms: C23_25  and  O23_43 
REMARK       I    between atoms: C26_28  and  C27_29 
REMARK       I    between atoms: C28_30  and  C29_31 
REMARK       I    between atoms: C30_32  and  C31_33 
REMARK       I    between atoms: C32_34  and  C33_35 
REMARK       I    between atoms: C34_36  and  C35_37 
ROOT
HETATM    1  C1  8UH S1621     -48.394 146.262  10.455  1.00 98.50    -0.018 C 
HETATM    2  C2  8UH S1621     -49.707 146.867  10.909  1.00 95.05     0.045 C 
HETATM    3  C3  8UH S1621     -50.091 146.402  12.295  1.00 91.19     0.123 C 
HETATM    4  C4  8UH S1621     -49.030 146.787  13.304  1.00 95.39     0.066 C 
HETATM    5  C5  8UH S1621     -47.619 146.744  12.779  1.00 94.24    -0.074 C 
HETATM    6  C6  8UH S1621     -47.304 146.383  11.514  1.00 98.17    -0.048 C 
HETATM    7  C7  8UH S1621     -45.895 146.136  11.088  1.00 96.30     0.009 C 
HETATM    8  C8  8UH S1621     -45.276 144.960  11.249  1.00 99.74     0.007 C 
HETATM    9  C9  8UH S1621     -43.909 144.663  10.821  1.00 91.17    -0.062 C 
HETATM   10  C10 8UH S1621     -43.590 143.370  10.845  1.00 97.68     0.007 C 
HETATM   11  C11 8UH S1621     -42.303 142.846  10.435  1.00 98.02     0.001 C 
HETATM   12  C12 8UH S1621     -42.315 141.543  10.229  1.00 91.18     0.007 C 
HETATM   13  C13 8UH S1621     -41.145 140.791   9.776  1.00 90.92    -0.062 C 
HETATM   14  C14 8UH S1621     -41.316 139.482   9.613  1.00 96.50     0.007 C 
HETATM   15  C15 8UH S1621     -40.279 138.583   9.154  1.00 99.38     0.001 C 
HETATM   16  C16 8UH S1621     -48.083 146.933   9.127  1.00 90.00     0.020 C 
HETATM   17  C17 8UH S1621     -48.568 144.781  10.181  1.00 93.85     0.020 C 
HETATM   18  C18 8UH S1621     -46.683 146.604  13.937  1.00 91.76     0.044 C 
HETATM   19  C19 8UH S1621     -42.949 145.725  10.379  1.00 90.99     0.048 C 
HETATM   20  C20 8UH S1621     -39.841 141.473   9.494  1.00 93.33     0.048 C 
HETATM   21  O3  8UH S1621     -51.310 147.040  12.676  1.00 92.07    -0.395 OA
ATOM     22  H3  8UH S1621     -51.551 146.747  13.547  1.00  0.00     0.210 HD
HETATM   23  C21 8UH S1621     -34.725 127.581   5.719  1.00 98.00    -0.022 C 
HETATM   24  C22 8UH S1621     -33.497 126.678   5.759  1.00 98.00     0.045 C 
HETATM   25  C23 8UH S1621     -32.176 127.424   5.927  1.00 98.00     0.119 C 
HETATM   26  C24 8UH S1621     -32.234 128.372   7.114  1.00 98.00     0.040 C 
HETATM   27  C25 8UH S1621     -33.430 129.263   6.930  1.00 98.00     0.013 C 
HETATM   28  C26 8UH S1621     -34.611 128.706   6.714  1.00 98.00    -0.068 C 
HETATM   29  C27 8UH S1621     -35.793 129.158   7.461  1.00 98.00     0.004 C 
HETATM   30  C28 8UH S1621     -36.223 130.401   7.281  1.00 98.00     0.007 C 
HETATM   31  C29 8UH S1621     -37.414 130.891   7.980  1.00 98.43    -0.062 C 
HETATM   32  C30 8UH S1621     -37.713 132.164   7.772  1.00 92.06     0.007 C 
HETATM   33  C31 8UH S1621     -38.851 132.841   8.358  1.00 98.99     0.001 C 
HETATM   34  C32 8UH S1621     -38.725 134.154   8.355  1.00 98.35     0.007 C 
HETATM   35  C33 8UH S1621     -39.761 135.046   8.866  1.00 93.74    -0.062 C 
HETATM   36  C34 8UH S1621     -39.484 136.346   8.911  1.00 95.45     0.007 C 
HETATM   37  C35 8UH S1621     -40.476 137.294   9.374  1.00 96.56     0.001 C 
HETATM   38  C36 8UH S1621     -35.965 126.743   6.001  1.00 98.00     0.019 C 
HETATM   39  C37 8UH S1621     -34.874 128.211   4.343  1.00 98.00     0.019 C 
HETATM   40  C38 8UH S1621     -32.929 129.494   8.327  1.00 98.00     0.015 C 
HETATM   41  C39 8UH S1621     -38.236 130.009   8.869  1.00 93.10     0.048 C 
HETATM   42  C40 8UH S1621     -41.087 134.496   9.287  1.00 95.49     0.048 C 
HETATM   43  O23 8UH S1621     -31.110 126.490   6.116  1.00 98.00    -0.396 OA
ATOM     44  H23 8UH S1621     -31.073 125.897   5.374  1.00  0.00     0.210 HD
ENDROOT
TORSDOF 12
BEGIN_RES PHE A  61
REMARK  2 active torsions:
REMARK  status: ('A' for Active; 'I' for Inactive)
REMARK    1  A    between atoms: CA   and  CB  
REMARK    2  A    between atoms: CB   and  CG  
ROOT
ATOM      1  CA  PHE A  61     -36.237 128.293  12.768  1.00 39.40     0.164 C 
ENDROOT
BRANCH   1   2
ATOM      2  CB  PHE A  61     -36.813 128.951  11.509  1.00 39.41     0.058 C 
BRANCH   2   3
ATOM      3  CG  PHE A  61     -36.304 130.348  11.246  1.00 39.01    -0.020 A 
ATOM      4  CD2 PHE A  61     -37.087 131.456  11.530  1.00 40.32    -0.004 A 
ATOM      5  CE2 PHE A  61     -36.619 132.741  11.285  1.00 40.20    -0.000 A 
ATOM      6  CZ  PHE A  61     -35.362 132.932  10.758  1.00 40.34    -0.000 A 
ATOM      7  CE1 PHE A  61     -34.570 131.842  10.473  1.00 41.51    -0.000 A 
ATOM      8  CD1 PHE A  61     -35.041 130.557  10.712  1.00 39.94    -0.004 A 
ENDBRANCH   2   3
ENDBRANCH   1   2
END_RES PHE A  61
BEGIN_RES VAL A 134
REMARK  1 active torsions:
REMARK  status: ('A' for Active; 'I' for Inactive)
REMARK    3  A    between atoms: CA   and  CB  
ROOT
ATOM      9  CA  VAL A 134     -29.766 132.051   9.815  1.00 40.75     0.159 C 
ENDROOT
BRANCH   9  10
ATOM     10  CB  VAL A 134     -30.864 132.765   9.009  1.00 40.76     0.029 C 
ATOM     11  CG1 VAL A 134     -31.211 131.975   7.755  1.00 41.76     0.002 C 
ATOM     12  CG2 VAL A 134     -32.106 133.015   9.851  1.00 40.56     0.002 C 
ENDBRANCH   9  10
END_RES VAL A 134
BEGIN_RES TYR A 338
REMARK  3 active torsions:
REMARK  status: ('A' for Active; 'I' for Inactive)
REMARK    4  A    between atoms: CA   and  CB  
REMARK    5  A    between atoms: CB   and  CG  
REMARK    6  A    between atoms: CZ   and  OH  
ROOT
ATOM     13  CA  TYR A 338     -41.631 124.950   6.058  1.00 38.23     0.164 C 
ENDROOT
BRANCH  13  14
ATOM     14  CB  TYR A 338     -41.621 126.456   6.339  1.00 39.15     0.058 C 
BRANCH  14  15
ATOM     15  CG  TYR A 338     -40.441 127.220   5.782  1.00 39.03    -0.020 A 
ATOM     16  CD2 TYR A 338     -40.245 128.548   6.118  1.00 40.65    -0.002 A 
ATOM     17  CE2 TYR A 338     -39.183 129.283   5.614  1.00 40.91     0.024 A 
ATOM     18  CZ  TYR A 338     -38.286 128.687   4.748  1.00 42.33     0.089 A 
ATOM     19  CE1 TYR A 338     -38.458 127.359   4.401  1.00 40.63     0.024 A 
ATOM     20  CD1 TYR A 338     -39.534 126.645   4.906  1.00 39.27    -0.002 A 
BRANCH  18  21
ATOM     21  OH  TYR A 338     -37.233 129.401   4.248  1.00 43.36    -0.359 OA
ATOM     22  HH  TYR A 338     -36.802 129.125   3.447  1.00  0.00     0.217 HD
ENDBRANCH  18  21
ENDBRANCH  14  15
ENDBRANCH  13  14
END_RES TYR A 338
ENDMDL
