MODEL 1
REMARK VINA RESULT:   -10.144      0.000      0.000
REMARK INTER + INTRA:         -12.483
REMARK INTER:                 -10.144
REMARK INTRA:                  -2.339
REMARK UNBOUND:                -2.339
REMARK  0 active torsions:
REMARK  status: ('A' for Active; 'I' for Inactive)
REMARK       I    between atoms: C3_3  and  O3_21 
REMARK       I    between atoms: C6_6  and  C7_7 
REMARK       I    between atoms: C8_8  and  C9_9 
REMARK       I    between atoms: C10_10  and  C11_11 
REMARK       I    between atoms: C12_12  and  C13_13 
REMARK       I    between atoms: C14_14  and  C15_15 
REMARK       I    between atoms: C23_25  and  O23_43 
REMARK       I    between atoms: C26_28  and  C27_29 
REMARK       I    between atoms: C28_30  and  C29_31 
REMARK       I    between atoms: C30_32  and  C31_33 
REMARK       I    between atoms: C32_34  and  C33_35 
REMARK       I    between atoms: C34_36  and  C35_37 
ROOT
HETATM    1  C1  8UH 51620     -49.333 144.043  11.998  1.00 94.67    -0.018 C 
HETATM    2  C2  8UH 51620     -49.719 144.489  13.402  1.00 94.67     0.045 C 
HETATM    3  C3  8UH 51620     -48.888 145.598  14.012  1.00 94.67     0.123 C 
HETATM    4  C4  8UH 51620     -48.664 146.668  12.978  1.00 94.67     0.066 C 
HETATM    5  C5  8UH 51620     -47.938 146.091  11.804  1.00 94.67    -0.074 C 
HETATM    6  C6  8UH 51620     -48.253 144.880  11.340  1.00 94.67    -0.048 C 
HETATM    7  C7  8UH 51620     -47.561 144.317  10.156  1.00 94.67     0.009 C 
HETATM    8  C8  8UH 51620     -46.436 143.617  10.282  1.00 94.67     0.007 C 
HETATM    9  C9  8UH 51620     -45.731 143.025   9.145  1.00 94.67    -0.062 C 
HETATM   10  C10 8UH 51620     -44.660 142.299   9.447  1.00 94.67     0.007 C 
HETATM   11  C11 8UH 51620     -43.839 141.608   8.471  1.00 94.67     0.001 C 
HETATM   12  C12 8UH 51620     -43.071 140.681   9.022  1.00 94.67     0.007 C 
HETATM   13  C13 8UH 51620     -42.165 139.813   8.274  1.00 94.67    -0.062 C 
HETATM   14  C14 8UH 51620     -41.544 138.868   8.974  1.00 94.67     0.007 C 
HETATM   15  C15 8UH 51620     -40.635 137.896   8.389  1.00 94.67     0.001 C 
HETATM   16  C16 8UH 51620     -50.622 144.065  11.182  1.00 94.67     0.020 C 
HETATM   17  C17 8UH 51620     -48.801 142.622  12.097  1.00 94.67     0.020 C 
HETATM   18  C18 8UH 51620     -46.901 146.968  11.166  1.00 94.67     0.044 C 
HETATM   19  C19 8UH 51620     -46.198 143.228   7.737  1.00 94.67     0.048 C 
HETATM   20  C20 8UH 51620     -41.976 139.975   6.799  1.00 94.67     0.048 C 
HETATM   21  O3  8UH 51620     -49.618 146.173  15.095  1.00 94.67    -0.395 OA
ATOM     22  H3  8UH 51620     -49.097 146.868  15.478  1.00  0.00     0.210 HD
HETATM   23  C21 8UH 51620     -34.326 127.506   6.658  1.00 66.61    -0.018 C 
HETATM   24  C22 8UH 51620     -33.756 127.073   5.312  1.00 66.61     0.045 C 
HETATM   25  C23 8UH 51620     -32.478 127.738   4.825  1.00 66.61     0.123 C 
HETATM   26  C24 8UH 51620     -31.572 128.113   5.978  1.00 66.61     0.066 C 
HETATM   27  C25 8UH 51620     -32.336 128.971   6.945  1.00 66.61    -0.074 C 
HETATM   28  C26 8UH 51620     -33.577 128.647   7.320  1.00 66.61    -0.048 C 
HETATM   29  C27 8UH 51620     -34.252 129.391   8.414  1.00 66.61     0.009 C 
HETATM   30  C28 8UH 51620     -34.943 130.508   8.178  1.00 66.61     0.007 C 
HETATM   31  C29 8UH 51620     -35.626 131.252   9.237  1.00 94.67    -0.062 C 
HETATM   32  C30 8UH 51620     -36.465 132.198   8.820  1.00 94.67     0.007 C 
HETATM   33  C31 8UH 51620     -37.255 133.068   9.672  1.00 94.67     0.001 C 
HETATM   34  C32 8UH 51620     -37.832 134.034   8.979  1.00 94.67     0.007 C 
HETATM   35  C33 8UH 51620     -38.689 135.070   9.550  1.00 94.67    -0.062 C 
HETATM   36  C34 8UH 51620     -39.339 135.870   8.700  1.00 94.67     0.007 C 
HETATM   37  C35 8UH 51620     -40.227 136.915   9.183  1.00 94.67     0.001 C 
HETATM   38  C36 8UH 51620     -34.353 126.277   7.560  1.00 66.61     0.020 C 
HETATM   39  C37 8UH 51620     -35.757 127.961   6.422  1.00 66.61     0.020 C 
HETATM   40  C38 8UH 51620     -31.497 129.966   7.695  1.00 66.61     0.044 C 
HETATM   41  C39 8UH 51620     -35.401 130.959  10.686  1.00 94.67     0.048 C 
HETATM   42  C40 8UH 51620     -38.806 135.230  11.031  1.00 94.67     0.048 C 
HETATM   43  O23 8UH 51620     -31.783 126.816   3.981  1.00 66.61    -0.395 OA
ATOM     44  H23 8UH 51620     -30.985 127.232   3.677  1.00  0.00     0.210 HD
ENDROOT
TORSDOF 12
BEGIN_RES PHE A  61
REMARK  2 active torsions:
REMARK  status: ('A' for Active; 'I' for Inactive)
REMARK    1  A    between atoms: CA   and  CB  
REMARK    2  A    between atoms: CB   and  CG  
ROOT
ATOM      1  CA  PHE A  61     -36.237 128.293  12.768  1.00 39.40     0.164 C 
ENDROOT
BRANCH   1   2
ATOM      2  CB  PHE A  61     -36.813 128.951  11.509  1.00 39.41     0.058 C 
BRANCH   2   3
ATOM      3  CG  PHE A  61     -37.071 127.996  10.368  1.00 39.01    -0.020 A 
ATOM      4  CD2 PHE A  61     -36.366 126.808  10.261  1.00 40.32    -0.004 A 
ATOM      5  CE2 PHE A  61     -36.602 125.932   9.209  1.00 40.20    -0.000 A 
ATOM      6  CZ  PHE A  61     -37.549 126.231   8.256  1.00 40.34    -0.000 A 
ATOM      7  CE1 PHE A  61     -38.260 127.407   8.350  1.00 41.51    -0.000 A 
ATOM      8  CD1 PHE A  61     -38.019 128.286   9.397  1.00 39.94    -0.004 A 
ENDBRANCH   2   3
ENDBRANCH   1   2
END_RES PHE A  61
BEGIN_RES VAL A 134
REMARK  1 active torsions:
REMARK  status: ('A' for Active; 'I' for Inactive)
REMARK    3  A    between atoms: CA   and  CB  
ROOT
ATOM      9  CA  VAL A 134     -29.766 132.051   9.815  1.00 40.75     0.159 C 
ENDROOT
BRANCH   9  10
ATOM     10  CB  VAL A 134     -30.864 132.765   9.009  1.00 40.76     0.029 C 
ATOM     11  CG1 VAL A 134     -30.853 132.304   7.559  1.00 41.76     0.002 C 
ATOM     12  CG2 VAL A 134     -32.238 132.563   9.630  1.00 40.56     0.002 C 
ENDBRANCH   9  10
END_RES VAL A 134
BEGIN_RES TYR A 338
REMARK  3 active torsions:
REMARK  status: ('A' for Active; 'I' for Inactive)
REMARK    4  A    between atoms: CA   and  CB  
REMARK    5  A    between atoms: CB   and  CG  
REMARK    6  A    between atoms: CZ   and  OH  
ROOT
ATOM     13  CA  TYR A 338     -41.631 124.950   6.058  1.00 38.23     0.164 C 
ENDROOT
BRANCH  13  14
ATOM     14  CB  TYR A 338     -41.621 126.456   6.339  1.00 39.15     0.058 C 
BRANCH  14  15
ATOM     15  CG  TYR A 338     -40.423 127.213   5.814  1.00 39.03    -0.020 A 
ATOM     16  CD2 TYR A 338     -40.256 128.555   6.114  1.00 40.65    -0.002 A 
ATOM     17  CE2 TYR A 338     -39.178 129.284   5.637  1.00 40.91     0.024 A 
ATOM     18  CZ  TYR A 338     -38.234 128.669   4.836  1.00 42.33     0.089 A 
ATOM     19  CE1 TYR A 338     -38.376 127.328   4.526  1.00 40.63     0.024 A 
ATOM     20  CD1 TYR A 338     -39.469 126.620   5.002  1.00 39.27    -0.002 A 
BRANCH  18  21
ATOM     21  OH  TYR A 338     -37.164 129.378   4.363  1.00 43.36    -0.359 OA
ATOM     22  HH  TYR A 338     -36.436 129.588   4.936  1.00  0.00     0.217 HD
ENDBRANCH  18  21
ENDBRANCH  14  15
ENDBRANCH  13  14
END_RES TYR A 338
ENDMDL
MODEL 2
REMARK VINA RESULT:    -9.775      1.001     16.349
REMARK INTER + INTRA:         -12.114
REMARK INTER:                  -9.169
REMARK INTRA:                  -2.945
REMARK UNBOUND:                -2.339
REMARK  0 active torsions:
REMARK  status: ('A' for Active; 'I' for Inactive)
REMARK       I    between atoms: C3_3  and  O3_21 
REMARK       I    between atoms: C6_6  and  C7_7 
REMARK       I    between atoms: C8_8  and  C9_9 
REMARK       I    between atoms: C10_10  and  C11_11 
REMARK       I    between atoms: C12_12  and  C13_13 
REMARK       I    between atoms: C14_14  and  C15_15 
REMARK       I    between atoms: C23_25  and  O23_43 
REMARK       I    between atoms: C26_28  and  C27_29 
REMARK       I    between atoms: C28_30  and  C29_31 
REMARK       I    between atoms: C30_32  and  C31_33 
REMARK       I    between atoms: C32_34  and  C33_35 
REMARK       I    between atoms: C34_36  and  C35_37 
ROOT
HETATM    1  C1  8UH 51620     -34.401 127.782   6.532  1.00 94.67    -0.018 C 
HETATM    2  C2  8UH 51620     -33.723 127.422   5.217  1.00 94.67     0.045 C 
HETATM    3  C3  8UH 51620     -32.420 128.130   4.912  1.00 94.67     0.123 C 
HETATM    4  C4  8UH 51620     -31.569 128.147   6.153  1.00 94.67     0.066 C 
HETATM    5  C5  8UH 51620     -32.285 128.874   7.247  1.00 94.67    -0.074 C 
HETATM    6  C6  8UH 51620     -33.595 128.699   7.433  1.00 94.67    -0.048 C 
HETATM    7  C7  8UH 51620     -34.305 129.390   8.536  1.00 94.67     0.009 C 
HETATM    8  C8  8UH 51620     -34.823 130.605   8.370  1.00 94.67     0.007 C 
HETATM    9  C9  8UH 51620     -35.548 131.316   9.422  1.00 94.67    -0.062 C 
HETATM   10  C10 8UH 51620     -36.061 132.490   9.075  1.00 94.67     0.007 C 
HETATM   11  C11 8UH 51620     -36.836 133.339   9.960  1.00 94.67     0.001 C 
HETATM   12  C12 8UH 51620     -37.529 134.256   9.304  1.00 94.67     0.007 C 
HETATM   13  C13 8UH 51620     -38.418 135.226   9.939  1.00 94.67    -0.062 C 
HETATM   14  C14 8UH 51620     -39.115 136.009   9.121  1.00 94.67     0.007 C 
HETATM   15  C15 8UH 51620     -40.070 137.005   9.577  1.00 94.67     0.001 C 
HETATM   16  C16 8UH 51620     -34.705 126.457   7.224  1.00 94.67     0.020 C 
HETATM   17  C17 8UH 51620     -35.697 128.507   6.199  1.00 94.67     0.020 C 
HETATM   18  C18 8UH 51620     -31.442 129.743   8.132  1.00 94.67     0.044 C 
HETATM   19  C19 8UH 51620     -35.700 130.744  10.798  1.00 94.67     0.048 C 
HETATM   20  C20 8UH 51620     -38.544 135.305  11.427  1.00 94.67     0.048 C 
HETATM   21  O3  8UH 51620     -31.725 127.394   3.906  1.00 94.67    -0.395 OA
ATOM     22  H3  8UH 51620     -30.908 127.838   3.715  1.00  0.00     0.210 HD
HETATM   23  C21 8UH 51620     -49.757 144.549   9.743  1.00 66.61    -0.018 C 
HETATM   24  C22 8UH 51620     -50.388 145.093  11.020  1.00 66.61     0.045 C 
HETATM   25  C23 8UH 51620     -49.689 146.238  11.736  1.00 66.61     0.123 C 
HETATM   26  C24 8UH 51620     -48.977 147.151  10.762  1.00 66.61     0.066 C 
HETATM   27  C25 8UH 51620     -48.035 146.336   9.923  1.00 66.61    -0.074 C 
HETATM   28  C26 8UH 51620     -48.421 145.175   9.386  1.00 66.61    -0.048 C 
HETATM   29  C27 8UH 51620     -47.553 144.471   8.408  1.00 66.61     0.009 C 
HETATM   30  C28 8UH 51620     -46.601 143.622   8.801  1.00 66.61     0.007 C 
HETATM   31  C29 8UH 51620     -45.741 142.908   7.857  1.00 94.67    -0.062 C 
HETATM   32  C30 8UH 51620     -45.010 141.926   8.381  1.00 94.67     0.007 C 
HETATM   33  C31 8UH 51620     -44.084 141.077   7.654  1.00 94.67     0.001 C 
HETATM   34  C32 8UH 51620     -43.360 140.335   8.473  1.00 94.67     0.007 C 
HETATM   35  C33 8UH 51620     -42.339 139.380   8.048  1.00 94.67    -0.062 C 
HETATM   36  C34 8UH 51620     -41.817 138.580   8.981  1.00 94.67     0.007 C 
HETATM   37  C35 8UH 51620     -40.809 137.588   8.642  1.00 94.67     0.001 C 
HETATM   38  C36 8UH 51620     -50.765 144.741   8.617  1.00 66.61     0.020 C 
HETATM   39  C37 8UH 51620     -49.536 143.058   9.942  1.00 66.61     0.020 C 
HETATM   40  C38 8UH 51620     -46.812 147.075   9.459  1.00 66.61     0.044 C 
HETATM   41  C39 8UH 51620     -45.697 143.255   6.403  1.00 94.67     0.048 C 
HETATM   42  C40 8UH 51620     -41.890 139.330   6.624  1.00 94.67     0.048 C 
HETATM   43  O23 8UH 51620     -50.676 147.001  12.436  1.00 66.61    -0.395 OA
ATOM     44  H23 8UH 51620     -50.239 147.716  12.884  1.00  0.00     0.210 HD
ENDROOT
TORSDOF 12
BEGIN_RES PHE A  61
REMARK  2 active torsions:
REMARK  status: ('A' for Active; 'I' for Inactive)
REMARK    1  A    between atoms: CA   and  CB  
REMARK    2  A    between atoms: CB   and  CG  
ROOT
ATOM      1  CA  PHE A  61     -36.237 128.293  12.768  1.00 39.40     0.164 C 
ENDROOT
BRANCH   1   2
ATOM      2  CB  PHE A  61     -36.813 128.951  11.509  1.00 39.41     0.058 C 
BRANCH   2   3
ATOM      3  CG  PHE A  61     -37.030 128.004  10.354  1.00 39.01    -0.020 A 
ATOM      4  CD2 PHE A  61     -36.276 126.848  10.229  1.00 40.32    -0.004 A 
ATOM      5  CE2 PHE A  61     -36.474 125.979   9.164  1.00 40.20    -0.000 A 
ATOM      6  CZ  PHE A  61     -37.432 126.253   8.214  1.00 40.34    -0.000 A 
ATOM      7  CE1 PHE A  61     -38.191 127.396   8.324  1.00 41.51    -0.000 A 
ATOM      8  CD1 PHE A  61     -37.988 128.269   9.385  1.00 39.94    -0.004 A 
ENDBRANCH   2   3
ENDBRANCH   1   2
END_RES PHE A  61
BEGIN_RES VAL A 134
REMARK  1 active torsions:
REMARK  status: ('A' for Active; 'I' for Inactive)
REMARK    3  A    between atoms: CA   and  CB  
ROOT
ATOM      9  CA  VAL A 134     -29.766 132.051   9.815  1.00 40.75     0.159 C 
ENDROOT
BRANCH   9  10
ATOM     10  CB  VAL A 134     -30.864 132.765   9.009  1.00 40.76     0.029 C 
ATOM     11  CG1 VAL A 134     -30.927 132.223   7.588  1.00 41.76     0.002 C 
ATOM     12  CG2 VAL A 134     -32.220 132.657   9.689  1.00 40.56     0.002 C 
ENDBRANCH   9  10
END_RES VAL A 134
BEGIN_RES TYR A 338
REMARK  3 active torsions:
REMARK  status: ('A' for Active; 'I' for Inactive)
REMARK    4  A    between atoms: CA   and  CB  
REMARK    5  A    between atoms: CB   and  CG  
REMARK    6  A    between atoms: CZ   and  OH  
ROOT
ATOM     13  CA  TYR A 338     -41.631 124.950   6.058  1.00 38.23     0.164 C 
ENDROOT
BRANCH  13  14
ATOM     14  CB  TYR A 338     -41.621 126.456   6.339  1.00 39.15     0.058 C 
BRANCH  14  15
ATOM     15  CG  TYR A 338     -40.428 127.215   5.805  1.00 39.03    -0.020 A 
ATOM     16  CD2 TYR A 338     -40.282 128.567   6.068  1.00 40.65    -0.002 A 
ATOM     17  CE2 TYR A 338     -39.210 129.297   5.581  1.00 40.91     0.024 A 
ATOM     18  CZ  TYR A 338     -38.250 128.674   4.807  1.00 42.33     0.089 A 
ATOM     19  CE1 TYR A 338     -38.371 127.323   4.534  1.00 40.63     0.024 A 
ATOM     20  CD1 TYR A 338     -39.458 126.613   5.019  1.00 39.27    -0.002 A 
BRANCH  18  21
ATOM     21  OH  TYR A 338     -37.185 129.384   4.325  1.00 43.36    -0.359 OA
ATOM     22  HH  TYR A 338     -36.840 130.122   4.813  1.00  0.00     0.217 HD
ENDBRANCH  18  21
ENDBRANCH  14  15
ENDBRANCH  13  14
END_RES TYR A 338
ENDMDL
