MODEL 1
REMARK VINA RESULT:   -10.847      0.000      0.000
REMARK INTER + INTRA:         -12.711
REMARK INTER:                 -10.847
REMARK INTRA:                  -1.864
REMARK UNBOUND:                -1.864
REMARK  0 active torsions:
REMARK  status: ('A' for Active; 'I' for Inactive)
REMARK       I    between atoms: C3_3  and  O3_21 
REMARK       I    between atoms: C6_6  and  C7_7 
REMARK       I    between atoms: C8_8  and  C9_9 
REMARK       I    between atoms: C10_10  and  C11_11 
REMARK       I    between atoms: C12_12  and  C13_13 
REMARK       I    between atoms: C14_14  and  C15_15 
REMARK       I    between atoms: C23_25  and  O23_43 
REMARK       I    between atoms: C26_28  and  C27_29 
REMARK       I    between atoms: C28_30  and  C29_31 
REMARK       I    between atoms: C30_32  and  C31_33 
REMARK       I    between atoms: C32_34  and  C33_35 
REMARK       I    between atoms: C34_36  and  C35_37 
ROOT
HETATM    1  C1  8UH Y1621     -47.976 146.125  12.581  1.00 30.42    -0.018 C 
HETATM    2  C2  8UH Y1621     -48.483 146.173  14.026  1.00 30.42     0.045 C 
HETATM    3  C3  8UH Y1621     -47.622 146.917  15.039  1.00 30.42     0.123 C 
HETATM    4  C4  8UH Y1621     -46.641 147.863  14.360  1.00 30.42     0.066 C 
HETATM    5  C5  8UH Y1621     -45.850 147.039  13.388  1.00 30.42    -0.074 C 
HETATM    6  C6  8UH Y1621     -46.495 146.400  12.414  1.00 30.42    -0.048 C 
HETATM    7  C7  8UH Y1621     -45.797 145.779  11.269  1.00 30.42     0.009 C 
HETATM    8  C8  8UH Y1621     -44.571 145.278  11.448  1.00 30.42     0.007 C 
HETATM    9  C9  8UH Y1621     -43.982 144.453  10.370  1.00 30.42    -0.062 C 
HETATM   10  C10 8UH Y1621     -43.048 143.552  10.735  1.00 30.42     0.007 C 
HETATM   11  C11 8UH Y1621     -42.495 142.553   9.821  1.00 30.42     0.001 C 
HETATM   12  C12 8UH Y1621     -41.791 141.537  10.316  1.00 30.42     0.007 C 
HETATM   13  C13 8UH Y1621     -41.287 140.451   9.447  1.00 30.42    -0.062 C 
HETATM   14  C14 8UH Y1621     -40.713 139.392  10.052  1.00 30.42     0.007 C 
HETATM   15  C15 8UH Y1621     -40.186 138.223   9.341  1.00 30.42     0.001 C 
HETATM   16  C16 8UH Y1621     -48.675 147.214  11.771  1.00 30.42     0.020 C 
HETATM   17  C17 8UH Y1621     -48.356 144.777  11.992  1.00 30.42     0.020 C 
HETATM   18  C18 8UH Y1621     -44.620 147.861  13.126  1.00 30.42     0.044 C 
HETATM   19  C19 8UH Y1621     -44.502 144.577   8.955  1.00 30.42     0.048 C 
HETATM   20  C20 8UH Y1621     -41.466 140.570   7.954  1.00 30.42     0.048 C 
HETATM   21  O3  8UH Y1621     -48.519 147.656  15.863  1.00 30.42    -0.395 OA
ATOM     22  H3  8UH Y1621     -47.982 148.120  16.494  1.00  0.00     0.210 HD
HETATM   23  C21 8UH Y1621     -34.384 126.978   6.693  1.00 13.13    -0.018 C 
HETATM   24  C22 8UH Y1621     -33.740 126.076   5.651  1.00 13.13     0.045 C 
HETATM   25  C23 8UH Y1621     -33.114 126.797   4.479  1.00 13.13     0.123 C 
HETATM   26  C24 8UH Y1621     -32.167 127.855   4.983  1.00 13.13     0.066 C 
HETATM   27  C25 8UH Y1621     -32.863 128.801   5.923  1.00 13.13    -0.074 C 
HETATM   28  C26 8UH Y1621     -33.827 128.392   6.764  1.00 13.13    -0.048 C 
HETATM   29  C27 8UH Y1621     -34.353 129.275   7.845  1.00 13.13     0.009 C 
HETATM   30  C28 8UH Y1621     -35.280 130.226   7.670  1.00 13.13     0.007 C 
HETATM   31  C29 8UH Y1621     -35.776 131.055   8.781  1.00 30.42    -0.062 C 
HETATM   32  C30 8UH Y1621     -36.660 132.025   8.463  1.00 30.42     0.007 C 
HETATM   33  C31 8UH Y1621     -37.215 132.976   9.425  1.00 30.42     0.001 C 
HETATM   34  C32 8UH Y1621     -37.969 133.979   8.977  1.00 30.42     0.007 C 
HETATM   35  C33 8UH Y1621     -38.498 135.019   9.885  1.00 30.42    -0.062 C 
HETATM   36  C34 8UH Y1621     -39.114 136.072   9.305  1.00 30.42     0.007 C 
HETATM   37  C35 8UH Y1621     -39.653 137.222  10.033  1.00 30.42     0.001 C 
HETATM   38  C36 8UH Y1621     -34.207 126.252   8.016  1.00 13.13     0.020 C 
HETATM   39  C37 8UH Y1621     -35.863 127.107   6.363  1.00 13.13     0.020 C 
HETATM   40  C38 8UH Y1621     -32.157 130.113   6.069  1.00 13.13     0.044 C 
HETATM   41  C39 8UH Y1621     -35.285 130.776  10.179  1.00 30.42     0.048 C 
HETATM   42  C40 8UH Y1621     -38.282 134.885  11.370  1.00 30.42     0.048 C 
HETATM   43  O23 8UH Y1621     -32.366 125.851   3.716  1.00 13.13    -0.395 OA
ATOM     44  H23 8UH Y1621     -32.963 125.184   3.398  1.00  0.00     0.210 HD
ENDROOT
TORSDOF 12
BEGIN_RES PHE A  61
REMARK  2 active torsions:
REMARK  status: ('A' for Active; 'I' for Inactive)
REMARK    1  A    between atoms: CA   and  CB  
REMARK    2  A    between atoms: CB   and  CG  
ROOT
ATOM      1  CA  PHE A  61     -36.237 128.293  12.768  1.00 39.40     0.164 C 
ENDROOT
BRANCH   1   2
ATOM      2  CB  PHE A  61     -36.813 128.951  11.509  1.00 39.41     0.058 C 
BRANCH   2   3
ATOM      3  CG  PHE A  61     -37.114 127.989  10.384  1.00 39.01    -0.020 A 
ATOM      4  CD2 PHE A  61     -36.467 126.766  10.302  1.00 40.32    -0.004 A 
ATOM      5  CE2 PHE A  61     -36.742 125.884   9.265  1.00 40.20    -0.000 A 
ATOM      6  CZ  PHE A  61     -37.669 126.213   8.301  1.00 40.34    -0.000 A 
ATOM      7  CE1 PHE A  61     -38.322 127.423   8.370  1.00 41.51    -0.000 A 
ATOM      8  CD1 PHE A  61     -38.042 128.309   9.403  1.00 39.94    -0.004 A 
ENDBRANCH   2   3
ENDBRANCH   1   2
END_RES PHE A  61
BEGIN_RES VAL A 134
REMARK  1 active torsions:
REMARK  status: ('A' for Active; 'I' for Inactive)
REMARK    3  A    between atoms: CA   and  CB  
ROOT
ATOM      9  CA  VAL A 134     -29.766 132.051   9.815  1.00 40.75     0.159 C 
ENDROOT
BRANCH   9  10
ATOM     10  CB  VAL A 134     -30.864 132.765   9.009  1.00 40.76     0.029 C 
ATOM     11  CG1 VAL A 134     -30.889 132.264   7.572  1.00 41.76     0.002 C 
ATOM     12  CG2 VAL A 134     -32.230 132.608   9.660  1.00 40.56     0.002 C 
ENDBRANCH   9  10
END_RES VAL A 134
BEGIN_RES TYR A 338
REMARK  3 active torsions:
REMARK  status: ('A' for Active; 'I' for Inactive)
REMARK    4  A    between atoms: CA   and  CB  
REMARK    5  A    between atoms: CB   and  CG  
REMARK    6  A    between atoms: CZ   and  OH  
ROOT
ATOM     13  CA  TYR A 338     -41.631 124.950   6.058  1.00 38.23     0.164 C 
ENDROOT
BRANCH  13  14
ATOM     14  CB  TYR A 338     -41.621 126.456   6.339  1.00 39.15     0.058 C 
BRANCH  14  15
ATOM     15  CG  TYR A 338     -40.413 127.210   5.833  1.00 39.03    -0.020 A 
ATOM     16  CD2 TYR A 338     -40.239 128.547   6.147  1.00 40.65    -0.002 A 
ATOM     17  CE2 TYR A 338     -39.151 129.273   5.687  1.00 40.91     0.024 A 
ATOM     18  CZ  TYR A 338     -38.203 128.659   4.890  1.00 42.33     0.089 A 
ATOM     19  CE1 TYR A 338     -38.352 127.322   4.567  1.00 40.63     0.024 A 
ATOM     20  CD1 TYR A 338     -39.454 126.617   5.026  1.00 39.27    -0.002 A 
BRANCH  18  21
ATOM     21  OH  TYR A 338     -37.124 129.364   4.435  1.00 43.36    -0.359 OA
ATOM     22  HH  TYR A 338     -37.245 130.098   3.843  1.00  0.00     0.217 HD
ENDBRANCH  18  21
ENDBRANCH  14  15
ENDBRANCH  13  14
END_RES TYR A 338
ENDMDL
MODEL 2
REMARK VINA RESULT:   -10.320      1.857     16.811
REMARK INTER + INTRA:         -12.185
REMARK INTER:                 -11.951
REMARK INTRA:                  -0.233
REMARK UNBOUND:                -1.864
REMARK  0 active torsions:
REMARK  status: ('A' for Active; 'I' for Inactive)
REMARK       I    between atoms: C3_3  and  O3_21 
REMARK       I    between atoms: C6_6  and  C7_7 
REMARK       I    between atoms: C8_8  and  C9_9 
REMARK       I    between atoms: C10_10  and  C11_11 
REMARK       I    between atoms: C12_12  and  C13_13 
REMARK       I    between atoms: C14_14  and  C15_15 
REMARK       I    between atoms: C23_25  and  O23_43 
REMARK       I    between atoms: C26_28  and  C27_29 
REMARK       I    between atoms: C28_30  and  C29_31 
REMARK       I    between atoms: C30_32  and  C31_33 
REMARK       I    between atoms: C32_34  and  C33_35 
REMARK       I    between atoms: C34_36  and  C35_37 
ROOT
HETATM    1  C1  8UH Y1621     -34.194 128.057   6.923  1.00 30.42    -0.018 C 
HETATM    2  C2  8UH Y1621     -33.603 127.862   5.523  1.00 30.42     0.045 C 
HETATM    3  C3  8UH Y1621     -32.313 128.608   5.205  1.00 30.42     0.123 C 
HETATM    4  C4  8UH Y1621     -31.595 129.058   6.469  1.00 30.42     0.066 C 
HETATM    5  C5  8UH Y1621     -32.579 129.869   7.259  1.00 30.42    -0.074 C 
HETATM    6  C6  8UH Y1621     -33.714 129.295   7.654  1.00 30.42    -0.048 C 
HETATM    7  C7  8UH Y1621     -34.621 129.917   8.640  1.00 30.42     0.009 C 
HETATM    8  C8  8UH Y1621     -34.708 131.250   8.694  1.00 30.42     0.007 C 
HETATM    9  C9  8UH Y1621     -35.785 131.854   9.509  1.00 30.42    -0.062 C 
HETATM   10  C10 8UH Y1621     -36.196 133.088   9.157  1.00 30.42     0.007 C 
HETATM   11  C11 8UH Y1621     -37.356 133.750   9.753  1.00 30.42     0.001 C 
HETATM   12  C12 8UH Y1621     -37.855 134.838   9.169  1.00 30.42     0.007 C 
HETATM   13  C13 8UH Y1621     -39.080 135.493   9.678  1.00 30.42    -0.062 C 
HETATM   14  C14 8UH Y1621     -39.596 136.497   8.940  1.00 30.42     0.007 C 
HETATM   15  C15 8UH Y1621     -40.815 137.233   9.288  1.00 30.42     0.001 C 
HETATM   16  C16 8UH Y1621     -33.774 126.886   7.809  1.00 30.42     0.020 C 
HETATM   17  C17 8UH Y1621     -35.709 128.041   6.803  1.00 30.42     0.020 C 
HETATM   18  C18 8UH Y1621     -31.723 130.674   8.196  1.00 30.42     0.044 C 
HETATM   19  C19 8UH Y1621     -36.436 131.051  10.614  1.00 30.42     0.048 C 
HETATM   20  C20 8UH Y1621     -39.698 134.991  10.959  1.00 30.42     0.048 C 
HETATM   21  O3  8UH Y1621     -31.493 127.698   4.477  1.00 30.42    -0.395 OA
ATOM     22  H3  8UH Y1621     -30.689 128.163   4.279  1.00  0.00     0.210 HD
HETATM   23  C21 8UH Y1621     -50.481 145.817   9.232  1.00 13.13    -0.018 C 
HETATM   24  C22 8UH Y1621     -51.597 146.504  10.005  1.00 13.13     0.045 C 
HETATM   25  C23 8UH Y1621     -51.374 146.605  11.496  1.00 13.13     0.123 C 
HETATM   26  C24 8UH Y1621     -50.026 147.223  11.766  1.00 13.13     0.066 C 
HETATM   27  C25 8UH Y1621     -48.931 146.452  11.081  1.00 13.13    -0.074 C 
HETATM   28  C26 8UH Y1621     -49.109 145.870   9.884  1.00 13.13    -0.048 C 
HETATM   29  C27 8UH Y1621     -47.967 145.305   9.109  1.00 13.13     0.009 C 
HETATM   30  C28 8UH Y1621     -47.425 144.097   9.317  1.00 13.13     0.007 C 
HETATM   31  C29 8UH Y1621     -46.309 143.585   8.505  1.00 30.42    -0.062 C 
HETATM   32  C30 8UH Y1621     -45.807 142.382   8.859  1.00 30.42     0.007 C 
HETATM   33  C31 8UH Y1621     -44.667 141.744   8.203  1.00 30.42     0.001 C 
HETATM   34  C32 8UH Y1621     -44.168 140.624   8.724  1.00 30.42     0.007 C 
HETATM   35  C33 8UH Y1621     -42.970 139.969   8.156  1.00 30.42    -0.062 C 
HETATM   36  C34 8UH Y1621     -42.458 138.934   8.856  1.00 30.42     0.007 C 
HETATM   37  C35 8UH Y1621     -41.249 138.197   8.483  1.00 30.42     0.001 C 
HETATM   38  C36 8UH Y1621     -50.467 146.486   7.868  1.00 13.13     0.020 C 
HETATM   39  C37 8UH Y1621     -50.839 144.346   9.086  1.00 13.13     0.020 C 
HETATM   40  C38 8UH Y1621     -47.579 146.691  11.678  1.00 13.13     0.044 C 
HETATM   41  C39 8UH Y1621     -45.807 144.409   7.347  1.00 30.42     0.048 C 
HETATM   42  C40 8UH Y1621     -42.362 140.509   6.888  1.00 30.42     0.048 C 
HETATM   43  O23 8UH Y1621     -52.378 147.459  12.045  1.00 13.13    -0.395 OA
ATOM     44  H23 8UH Y1621     -53.227 147.069  11.875  1.00  0.00     0.210 HD
ENDROOT
TORSDOF 12
BEGIN_RES PHE A  61
REMARK  2 active torsions:
REMARK  status: ('A' for Active; 'I' for Inactive)
REMARK    1  A    between atoms: CA   and  CB  
REMARK    2  A    between atoms: CB   and  CG  
ROOT
ATOM      1  CA  PHE A  61     -36.237 128.293  12.768  1.00 39.40     0.164 C 
ENDROOT
BRANCH   1   2
ATOM      2  CB  PHE A  61     -36.813 128.951  11.509  1.00 39.41     0.058 C 
BRANCH   2   3
ATOM      3  CG  PHE A  61     -37.048 128.000  10.360  1.00 39.01    -0.020 A 
ATOM      4  CD2 PHE A  61     -36.253 126.878  10.191  1.00 40.32    -0.004 A 
ATOM      5  CE2 PHE A  61     -36.468 126.005   9.131  1.00 40.20    -0.000 A 
ATOM      6  CZ  PHE A  61     -37.481 126.243   8.231  1.00 40.34    -0.000 A 
ATOM      7  CE1 PHE A  61     -38.282 127.353   8.386  1.00 41.51    -0.000 A 
ATOM      8  CD1 PHE A  61     -38.063 128.229   9.442  1.00 39.94    -0.004 A 
ENDBRANCH   2   3
ENDBRANCH   1   2
END_RES PHE A  61
BEGIN_RES VAL A 134
REMARK  1 active torsions:
REMARK  status: ('A' for Active; 'I' for Inactive)
REMARK    3  A    between atoms: CA   and  CB  
ROOT
ATOM      9  CA  VAL A 134     -29.766 132.051   9.815  1.00 40.75     0.159 C 
ENDROOT
BRANCH   9  10
ATOM     10  CB  VAL A 134     -30.864 132.765   9.009  1.00 40.76     0.029 C 
ATOM     11  CG1 VAL A 134     -32.070 133.062   9.888  1.00 41.76     0.002 C 
ATOM     12  CG2 VAL A 134     -30.344 134.037   8.357  1.00 40.56     0.002 C 
ENDBRANCH   9  10
END_RES VAL A 134
BEGIN_RES TYR A 338
REMARK  3 active torsions:
REMARK  status: ('A' for Active; 'I' for Inactive)
REMARK    4  A    between atoms: CA   and  CB  
REMARK    5  A    between atoms: CB   and  CG  
REMARK    6  A    between atoms: CZ   and  OH  
ROOT
ATOM     13  CA  TYR A 338     -41.631 124.950   6.058  1.00 38.23     0.164 C 
ENDROOT
BRANCH  13  14
ATOM     14  CB  TYR A 338     -41.621 126.456   6.339  1.00 39.15     0.058 C 
BRANCH  14  15
ATOM     15  CG  TYR A 338     -40.413 127.210   5.832  1.00 39.03    -0.020 A 
ATOM     16  CD2 TYR A 338     -40.257 128.556   6.116  1.00 40.65    -0.002 A 
ATOM     17  CE2 TYR A 338     -39.170 129.282   5.654  1.00 40.91     0.024 A 
ATOM     18  CZ  TYR A 338     -38.206 128.660   4.884  1.00 42.33     0.089 A 
ATOM     19  CE1 TYR A 338     -38.338 127.314   4.590  1.00 40.63     0.024 A 
ATOM     20  CD1 TYR A 338     -39.439 126.608   5.051  1.00 39.27    -0.002 A 
BRANCH  18  21
ATOM     21  OH  TYR A 338     -37.128 129.365   4.427  1.00 43.36    -0.359 OA
ATOM     22  HH  TYR A 338     -36.272 129.243   4.820  1.00  0.00     0.217 HD
ENDBRANCH  18  21
ENDBRANCH  14  15
ENDBRANCH  13  14
END_RES TYR A 338
ENDMDL
MODEL 3
REMARK VINA RESULT:   -10.103      0.883     16.847
REMARK INTER + INTRA:         -11.967
REMARK INTER:                  -9.404
REMARK INTRA:                  -2.564
REMARK UNBOUND:                -1.864
REMARK  0 active torsions:
REMARK  status: ('A' for Active; 'I' for Inactive)
REMARK       I    between atoms: C3_3  and  O3_21 
REMARK       I    between atoms: C6_6  and  C7_7 
REMARK       I    between atoms: C8_8  and  C9_9 
REMARK       I    between atoms: C10_10  and  C11_11 
REMARK       I    between atoms: C12_12  and  C13_13 
REMARK       I    between atoms: C14_14  and  C15_15 
REMARK       I    between atoms: C23_25  and  O23_43 
REMARK       I    between atoms: C26_28  and  C27_29 
REMARK       I    between atoms: C28_30  and  C29_31 
REMARK       I    between atoms: C30_32  and  C31_33 
REMARK       I    between atoms: C32_34  and  C33_35 
REMARK       I    between atoms: C34_36  and  C35_37 
ROOT
HETATM    1  C1  8UH Y1621     -34.436 127.003   6.432  1.00 30.42    -0.018 C 
HETATM    2  C2  8UH Y1621     -34.248 126.704   4.941  1.00 30.42     0.045 C 
HETATM    3  C3  8UH Y1621     -33.056 127.353   4.249  1.00 30.42     0.123 C 
HETATM    4  C4  8UH Y1621     -32.009 127.821   5.248  1.00 30.42     0.066 C 
HETATM    5  C5  8UH Y1621     -32.709 128.728   6.215  1.00 30.42    -0.074 C 
HETATM    6  C6  8UH Y1621     -33.723 128.244   6.930  1.00 30.42    -0.048 C 
HETATM    7  C7  8UH Y1621     -34.306 128.969   8.078  1.00 30.42     0.009 C 
HETATM    8  C8  8UH Y1621     -34.314 130.305   8.068  1.00 30.42     0.007 C 
HETATM    9  C9  8UH Y1621     -35.107 131.014   9.098  1.00 30.42    -0.062 C 
HETATM   10  C10 8UH Y1621     -35.540 132.252   8.788  1.00 30.42     0.007 C 
HETATM   11  C11 8UH Y1621     -36.468 133.012   9.625  1.00 30.42     0.001 C 
HETATM   12  C12 8UH Y1621     -37.055 134.098   9.125  1.00 30.42     0.007 C 
HETATM   13  C13 8UH Y1621     -38.069 134.850   9.895  1.00 30.42    -0.062 C 
HETATM   14  C14 8UH Y1621     -38.716 135.846   9.256  1.00 30.42     0.007 C 
HETATM   15  C15 8UH Y1621     -39.764 136.671   9.864  1.00 30.42     0.001 C 
HETATM   16  C16 8UH Y1621     -33.849 125.854   7.249  1.00 30.42     0.020 C 
HETATM   17  C17 8UH Y1621     -35.927 127.074   6.715  1.00 30.42     0.020 C 
HETATM   18  C18 8UH Y1621     -31.599 129.525   6.841  1.00 30.42     0.044 C 
HETATM   19  C19 8UH Y1621     -35.476 130.307  10.384  1.00 30.42     0.048 C 
HETATM   20  C20 8UH Y1621     -38.346 134.450  11.323  1.00 30.42     0.048 C 
HETATM   21  O3  8UH Y1621     -32.502 126.361   3.390  1.00 30.42    -0.395 OA
ATOM     22  H3  8UH Y1621     -31.759 126.765   2.959  1.00  0.00     0.210 HD
HETATM   23  C21 8UH Y1621     -48.695 145.814  11.804  1.00 13.13    -0.018 C 
HETATM   24  C22 8UH Y1621     -49.532 146.606  12.798  1.00 13.13     0.045 C 
HETATM   25  C23 8UH Y1621     -48.916 146.766  14.169  1.00 13.13     0.123 C 
HETATM   26  C24 8UH Y1621     -47.518 147.313  14.035  1.00 13.13     0.066 C 
HETATM   27  C25 8UH Y1621     -46.681 146.445  13.137  1.00 13.13    -0.074 C 
HETATM   28  C26 8UH Y1621     -47.197 145.816  12.068  1.00 13.13    -0.048 C 
HETATM   29  C27 8UH Y1621     -46.329 145.145  11.058  1.00 13.13     0.009 C 
HETATM   30  C28 8UH Y1621     -45.807 143.918  11.193  1.00 13.13     0.007 C 
HETATM   31  C29 8UH Y1621     -44.972 143.299  10.150  1.00 30.42    -0.062 C 
HETATM   32  C30 8UH Y1621     -44.450 142.087  10.436  1.00 30.42     0.007 C 
HETATM   33  C31 8UH Y1621     -43.556 141.349   9.545  1.00 30.42     0.001 C 
HETATM   34  C32 8UH Y1621     -42.987 140.228   9.987  1.00 30.42     0.007 C 
HETATM   35  C33 8UH Y1621     -42.015 139.475   9.167  1.00 30.42    -0.062 C 
HETATM   36  C34 8UH Y1621     -41.383 138.446   9.773  1.00 30.42     0.007 C 
HETATM   37  C35 8UH Y1621     -40.352 137.619   9.143  1.00 30.42     0.001 C 
HETATM   38  C36 8UH Y1621     -49.013 146.414  10.445  1.00 13.13     0.020 C 
HETATM   39  C37 8UH Y1621     -49.145 144.363  11.852  1.00 13.13     0.020 C 
HETATM   40  C38 8UH Y1621     -45.209 146.630  13.341  1.00 13.13     0.044 C 
HETATM   41  C39 8UH Y1621     -44.759 144.033   8.851  1.00 30.42     0.048 C 
HETATM   42  C40 8UH Y1621     -41.742 139.913   7.752  1.00 30.42     0.048 C 
HETATM   43  O23 8UH Y1621     -49.698 147.705  14.907  1.00 13.13    -0.395 OA
ATOM     44  H23 8UH Y1621     -50.578 147.361  14.991  1.00  0.00     0.210 HD
ENDROOT
TORSDOF 12
BEGIN_RES PHE A  61
REMARK  2 active torsions:
REMARK  status: ('A' for Active; 'I' for Inactive)
REMARK    1  A    between atoms: CA   and  CB  
REMARK    2  A    between atoms: CB   and  CG  
ROOT
ATOM      1  CA  PHE A  61     -36.237 128.293  12.768  1.00 39.40     0.164 C 
ENDROOT
BRANCH   1   2
ATOM      2  CB  PHE A  61     -36.813 128.951  11.509  1.00 39.41     0.058 C 
BRANCH   2   3
ATOM      3  CG  PHE A  61     -37.096 127.992  10.377  1.00 39.01    -0.020 A 
ATOM      4  CD2 PHE A  61     -36.376 126.815  10.246  1.00 40.32    -0.004 A 
ATOM      5  CE2 PHE A  61     -36.635 125.935   9.202  1.00 40.20    -0.000 A 
ATOM      6  CZ  PHE A  61     -37.618 126.220   8.282  1.00 40.34    -0.000 A 
ATOM      7  CE1 PHE A  61     -38.343 127.385   8.400  1.00 41.51    -0.000 A 
ATOM      8  CD1 PHE A  61     -38.080 128.268   9.439  1.00 39.94    -0.004 A 
ENDBRANCH   2   3
ENDBRANCH   1   2
END_RES PHE A  61
BEGIN_RES VAL A 134
REMARK  1 active torsions:
REMARK  status: ('A' for Active; 'I' for Inactive)
REMARK    3  A    between atoms: CA   and  CB  
ROOT
ATOM      9  CA  VAL A 134     -29.766 132.051   9.815  1.00 40.75     0.159 C 
ENDROOT
BRANCH   9  10
ATOM     10  CB  VAL A 134     -30.864 132.765   9.009  1.00 40.76     0.029 C 
ATOM     11  CG1 VAL A 134     -31.104 132.058   7.683  1.00 41.76     0.002 C 
ATOM     12  CG2 VAL A 134     -32.157 132.881   9.802  1.00 40.56     0.002 C 
ENDBRANCH   9  10
END_RES VAL A 134
BEGIN_RES TYR A 338
REMARK  3 active torsions:
REMARK  status: ('A' for Active; 'I' for Inactive)
REMARK    4  A    between atoms: CA   and  CB  
REMARK    5  A    between atoms: CB   and  CG  
REMARK    6  A    between atoms: CZ   and  OH  
ROOT
ATOM     13  CA  TYR A 338     -41.631 124.950   6.058  1.00 38.23     0.164 C 
ENDROOT
BRANCH  13  14
ATOM     14  CB  TYR A 338     -41.621 126.456   6.339  1.00 39.15     0.058 C 
BRANCH  14  15
ATOM     15  CG  TYR A 338     -40.408 127.208   5.842  1.00 39.03    -0.020 A 
ATOM     16  CD2 TYR A 338     -40.231 128.543   6.162  1.00 40.65    -0.002 A 
ATOM     17  CE2 TYR A 338     -39.139 129.268   5.711  1.00 40.91     0.024 A 
ATOM     18  CZ  TYR A 338     -38.190 128.654   4.916  1.00 42.33     0.089 A 
ATOM     19  CE1 TYR A 338     -38.342 127.319   4.586  1.00 40.63     0.024 A 
ATOM     20  CD1 TYR A 338     -39.448 126.616   5.036  1.00 39.27    -0.002 A 
BRANCH  18  21
ATOM     21  OH  TYR A 338     -37.106 129.358   4.468  1.00 43.36    -0.359 OA
ATOM     22  HH  TYR A 338     -36.380 129.543   5.052  1.00  0.00     0.217 HD
ENDBRANCH  18  21
ENDBRANCH  14  15
ENDBRANCH  13  14
END_RES TYR A 338
ENDMDL
