MODEL 1
REMARK VINA RESULT:   -11.533      0.000      0.000
REMARK INTER + INTRA:         -14.516
REMARK INTER:                 -11.533
REMARK INTRA:                  -2.983
REMARK UNBOUND:                -2.983
REMARK  0 active torsions:
REMARK  status: ('A' for Active; 'I' for Inactive)
REMARK       I    between atoms: C3_3  and  O3_21 
REMARK       I    between atoms: C6_6  and  C7_7 
REMARK       I    between atoms: C8_8  and  C9_9 
REMARK       I    between atoms: C10_10  and  C11_11 
REMARK       I    between atoms: C12_12  and  C13_13 
REMARK       I    between atoms: C14_14  and  C15_15 
REMARK       I    between atoms: C23_25  and  O23_43 
REMARK       I    between atoms: C26_28  and  C27_29 
REMARK       I    between atoms: C28_30  and  C29_31 
REMARK       I    between atoms: C30_32  and  C31_33 
REMARK       I    between atoms: C32_34  and  C33_35 
REMARK       I    between atoms: C34_36  and  C35_37 
ROOT
HETATM    1  C1  8UH n1621     -47.820 145.218  12.398  1.00 48.43    -0.018 C 
HETATM    2  C2  8UH n1621     -48.551 145.658  13.658  1.00 44.61     0.045 C 
HETATM    3  C3  8UH n1621     -47.740 146.458  14.659  1.00 44.41     0.123 C 
HETATM    4  C4  8UH n1621     -46.862 147.464  13.957  1.00 41.53     0.066 C 
HETATM    5  C5  8UH n1621     -45.937 146.714  13.051  1.00 37.72    -0.074 C 
HETATM    6  C6  8UH n1621     -46.416 145.774  12.238  1.00 43.52    -0.048 C 
HETATM    7  C7  8UH n1621     -45.614 145.242  11.111  1.00 44.60     0.009 C 
HETATM    8  C8  8UH n1621     -44.695 144.299  11.279  1.00 43.22     0.007 C 
HETATM    9  C9  8UH n1621     -43.951 143.759  10.142  1.00 45.04    -0.062 C 
HETATM   10  C10 8UH n1621     -43.241 142.670  10.402  1.00 43.71     0.007 C 
HETATM   11  C11 8UH n1621     -42.471 141.926   9.434  1.00 42.87     0.001 C 
HETATM   12  C12 8UH n1621     -41.975 140.819   9.947  1.00 44.70     0.007 C 
HETATM   13  C13 8UH n1621     -41.219 139.842   9.168  1.00 42.63    -0.062 C 
HETATM   14  C14 8UH n1621     -40.830 138.738   9.807  1.00 42.62     0.007 C 
HETATM   15  C15 8UH n1621     -40.113 137.688   9.115  1.00 44.33     0.001 C 
HETATM   16  C16 8UH n1621     -48.731 145.598  11.236  1.00 47.48     0.020 C 
HETATM   17  C17 8UH n1621     -47.636 143.712  12.422  1.00 54.25     0.020 C 
HETATM   18  C18 8UH n1621     -44.699 147.489  12.743  1.00 37.77     0.044 C 
HETATM   19  C19 8UH n1621     -44.018 144.387   8.787  1.00 46.17     0.048 C 
HETATM   20  C20 8UH n1621     -40.957 140.067   7.711  1.00 40.87     0.048 C 
HETATM   21  O3  8UH n1621     -48.634 147.155  15.526  1.00 48.83    -0.395 OA
ATOM     22  H3  8UH n1621     -49.187 146.522  15.968  1.00  0.00     0.210 HD
HETATM   23  C21 8UH n1621     -34.381 126.775   6.393  1.00 25.46    -0.018 C 
HETATM   24  C22 8UH n1621     -34.022 126.058   5.094  1.00 25.46     0.045 C 
HETATM   25  C23 8UH n1621     -33.174 126.821   4.092  1.00 25.46     0.123 C 
HETATM   26  C24 8UH n1621     -32.122 127.632   4.814  1.00 25.46     0.066 C 
HETATM   27  C25 8UH n1621     -32.836 128.593   5.717  1.00 25.46    -0.074 C 
HETATM   28  C26 8UH n1621     -33.779 128.160   6.559  1.00 25.46    -0.048 C 
HETATM   29  C27 8UH n1621     -34.228 129.006   7.702  1.00 25.46     0.009 C 
HETATM   30  C28 8UH n1621     -35.183 129.930   7.567  1.00 25.46     0.007 C 
HETATM   31  C29 8UH n1621     -35.657 130.771   8.649  1.00 54.19    -0.062 C 
HETATM   32  C30 8UH n1621     -36.758 131.484   8.410  1.00 54.84     0.007 C 
HETATM   33  C31 8UH n1621     -37.377 132.371   9.374  1.00 51.40     0.001 C 
HETATM   34  C32 8UH n1621     -37.910 133.463   8.853  1.00 48.08     0.007 C 
HETATM   35  C33 8UH n1621     -38.574 134.471   9.677  1.00 45.58    -0.062 C 
HETATM   36  C34 8UH n1621     -39.038 135.569   9.079  1.00 47.58     0.007 C 
HETATM   37  C35 8UH n1621     -39.727 136.624   9.799  1.00 48.15     0.001 C 
HETATM   38  C36 8UH n1621     -33.994 125.851   7.543  1.00 25.46     0.020 C 
HETATM   39  C37 8UH n1621     -35.883 126.973   6.399  1.00 25.46     0.020 C 
HETATM   40  C38 8UH n1621     -31.964 129.766   6.031  1.00 25.46     0.044 C 
HETATM   41  C39 8UH n1621     -34.937 130.771   9.960  1.00 53.01     0.048 C 
HETATM   42  C40 8UH n1621     -38.712 134.250  11.143  1.00 46.34     0.048 C 
HETATM   43  O23 8UH n1621     -32.531 125.877   3.232  1.00 25.46    -0.395 OA
ATOM     44  H23 8UH n1621     -33.191 125.368   2.779  1.00  0.00     0.210 HD
ENDROOT
TORSDOF 12
BEGIN_RES PHE A  61
REMARK  2 active torsions:
REMARK  status: ('A' for Active; 'I' for Inactive)
REMARK    1  A    between atoms: CA   and  CB  
REMARK    2  A    between atoms: CB   and  CG  
ROOT
ATOM      1  CA  PHE A  61     -36.237 128.293  12.768  1.00 39.40     0.164 C 
ENDROOT
BRANCH   1   2
ATOM      2  CB  PHE A  61     -36.813 128.951  11.509  1.00 39.41     0.058 C 
BRANCH   2   3
ATOM      3  CG  PHE A  61     -37.069 127.996  10.367  1.00 39.01    -0.020 A 
ATOM      4  CD2 PHE A  61     -36.306 126.849  10.215  1.00 40.32    -0.004 A 
ATOM      5  CE2 PHE A  61     -36.541 125.973   9.162  1.00 40.20    -0.000 A 
ATOM      6  CZ  PHE A  61     -37.541 126.233   8.253  1.00 40.34    -0.000 A 
ATOM      7  CE1 PHE A  61     -38.309 127.367   8.392  1.00 41.51    -0.000 A 
ATOM      8  CD1 PHE A  61     -38.071 128.247   9.441  1.00 39.94    -0.004 A 
ENDBRANCH   2   3
ENDBRANCH   1   2
END_RES PHE A  61
BEGIN_RES VAL A 134
REMARK  1 active torsions:
REMARK  status: ('A' for Active; 'I' for Inactive)
REMARK    3  A    between atoms: CA   and  CB  
ROOT
ATOM      9  CA  VAL A 134     -29.766 132.051   9.815  1.00 40.75     0.159 C 
ENDROOT
BRANCH   9  10
ATOM     10  CB  VAL A 134     -30.864 132.765   9.009  1.00 40.76     0.029 C 
ATOM     11  CG1 VAL A 134     -31.217 131.971   7.760  1.00 41.76     0.002 C 
ATOM     12  CG2 VAL A 134     -32.103 133.022   9.853  1.00 40.56     0.002 C 
ENDBRANCH   9  10
END_RES VAL A 134
BEGIN_RES TYR A 338
REMARK  3 active torsions:
REMARK  status: ('A' for Active; 'I' for Inactive)
REMARK    4  A    between atoms: CA   and  CB  
REMARK    5  A    between atoms: CB   and  CG  
REMARK    6  A    between atoms: CZ   and  OH  
ROOT
ATOM     13  CA  TYR A 338     -41.631 124.950   6.058  1.00 38.23     0.164 C 
ENDROOT
BRANCH  13  14
ATOM     14  CB  TYR A 338     -41.621 126.456   6.339  1.00 39.15     0.058 C 
BRANCH  14  15
ATOM     15  CG  TYR A 338     -40.410 127.209   5.837  1.00 39.03    -0.020 A 
ATOM     16  CD2 TYR A 338     -40.230 128.543   6.163  1.00 40.65    -0.002 A 
ATOM     17  CE2 TYR A 338     -39.140 129.268   5.707  1.00 40.91     0.024 A 
ATOM     18  CZ  TYR A 338     -38.197 128.657   4.902  1.00 42.33     0.089 A 
ATOM     19  CE1 TYR A 338     -38.353 127.324   4.567  1.00 40.63     0.024 A 
ATOM     20  CD1 TYR A 338     -39.457 126.619   5.022  1.00 39.27    -0.002 A 
BRANCH  18  21
ATOM     21  OH  TYR A 338     -37.116 129.362   4.451  1.00 43.36    -0.359 OA
ATOM     22  HH  TYR A 338     -36.299 128.917   4.258  1.00  0.00     0.217 HD
ENDBRANCH  18  21
ENDBRANCH  14  15
ENDBRANCH  13  14
END_RES TYR A 338
ENDMDL
MODEL 2
REMARK VINA RESULT:    -9.514      1.549     16.575
REMARK INTER + INTRA:         -12.498
REMARK INTER:                  -9.359
REMARK INTRA:                  -3.139
REMARK UNBOUND:                -2.983
REMARK  0 active torsions:
REMARK  status: ('A' for Active; 'I' for Inactive)
REMARK       I    between atoms: C3_3  and  O3_21 
REMARK       I    between atoms: C6_6  and  C7_7 
REMARK       I    between atoms: C8_8  and  C9_9 
REMARK       I    between atoms: C10_10  and  C11_11 
REMARK       I    between atoms: C12_12  and  C13_13 
REMARK       I    between atoms: C14_14  and  C15_15 
REMARK       I    between atoms: C23_25  and  O23_43 
REMARK       I    between atoms: C26_28  and  C27_29 
REMARK       I    between atoms: C28_30  and  C29_31 
REMARK       I    between atoms: C30_32  and  C31_33 
REMARK       I    between atoms: C32_34  and  C33_35 
REMARK       I    between atoms: C34_36  and  C35_37 
ROOT
HETATM    1  C1  8UH n1621     -34.475 126.901   6.180  1.00 48.43    -0.018 C 
HETATM    2  C2  8UH n1621     -34.042 126.175   4.914  1.00 44.61     0.045 C 
HETATM    3  C3  8UH n1621     -32.957 126.846   4.094  1.00 44.41     0.123 C 
HETATM    4  C4  8UH n1621     -31.886 127.420   4.988  1.00 41.53     0.066 C 
HETATM    5  C5  8UH n1621     -32.528 128.429   5.886  1.00 37.72    -0.074 C 
HETATM    6  C6  8UH n1621     -33.651 128.126   6.536  1.00 43.52    -0.048 C 
HETATM    7  C7  8UH n1621     -34.140 128.950   7.666  1.00 44.60     0.009 C 
HETATM    8  C8  8UH n1621     -34.827 130.070   7.480  1.00 43.22     0.007 C 
HETATM    9  C9  8UH n1621     -35.337 130.840   8.613  1.00 45.04    -0.062 C 
HETATM   10  C10 8UH n1621     -36.200 131.797   8.299  1.00 43.71     0.007 C 
HETATM   11  C11 8UH n1621     -36.879 132.650   9.245  1.00 42.87     0.001 C 
HETATM   12  C12 8UH n1621     -37.772 133.421   8.657  1.00 44.70     0.007 C 
HETATM   13  C13 8UH n1621     -38.653 134.327   9.388  1.00 42.63    -0.062 C 
HETATM   14  C14 8UH n1621     -39.550 135.001   8.667  1.00 42.62     0.007 C 
HETATM   15  C15 8UH n1621     -40.500 135.892   9.299  1.00 44.33     0.001 C 
HETATM   16  C16 8UH n1621     -34.463 125.851   7.285  1.00 47.48     0.020 C 
HETATM   17  C17 8UH n1621     -35.887 127.428   6.000  1.00 54.25     0.020 C 
HETATM   18  C18 8UH n1621     -31.549 129.432   6.398  1.00 37.77     0.044 C 
HETATM   19  C19 8UH n1621     -34.926 130.540  10.019  1.00 46.17     0.048 C 
HETATM   20  C20 8UH n1621     -38.574 134.432  10.880  1.00 40.87     0.048 C 
HETATM   21  O3  8UH n1621     -32.363 125.876   3.231  1.00 48.83    -0.395 OA
ATOM     22  H3  8UH n1621     -33.038 125.515   2.668  1.00  0.00     0.210 HD
HETATM   23  C21 8UH n1621     -50.153 143.781  11.286  1.00 25.46    -0.018 C 
HETATM   24  C22 8UH n1621     -50.941 144.206  12.523  1.00 25.46     0.045 C 
HETATM   25  C23 8UH n1621     -50.151 144.787  13.682  1.00 25.46     0.123 C 
HETATM   26  C24 8UH n1621     -49.040 145.670  13.163  1.00 25.46     0.066 C 
HETATM   27  C25 8UH n1621     -48.147 144.818  12.312  1.00 25.46    -0.074 C 
HETATM   28  C26 8UH n1621     -48.661 144.058  11.338  1.00 25.46    -0.048 C 
HETATM   29  C27 8UH n1621     -47.789 143.505  10.263  1.00 25.46     0.009 C 
HETATM   30  C28 8UH n1621     -47.123 142.356  10.411  1.00 25.46     0.007 C 
HETATM   31  C29 8UH n1621     -46.270 141.776   9.392  1.00 54.19    -0.062 C 
HETATM   32  C30 8UH n1621     -45.854 140.527   9.605  1.00 54.84     0.007 C 
HETATM   33  C31 8UH n1621     -45.004 139.788   8.695  1.00 51.40     0.001 C 
HETATM   34  C32 8UH n1621     -44.135 138.984   9.284  1.00 48.08     0.007 C 
HETATM   35  C33 8UH n1621     -43.196 138.163   8.522  1.00 45.58    -0.062 C 
HETATM   36  C34 8UH n1621     -42.316 137.420   9.195  1.00 47.58     0.007 C 
HETATM   37  C35 8UH n1621     -41.353 136.557   8.537  1.00 48.15     0.001 C 
HETATM   38  C36 8UH n1621     -50.808 144.446  10.080  1.00 25.46     0.020 C 
HETATM   39  C37 8UH n1621     -50.290 142.277  11.158  1.00 25.46     0.020 C 
HETATM   40  C38 8UH n1621     -46.780 145.416  12.219  1.00 25.46     0.044 C 
HETATM   41  C39 8UH n1621     -45.937 142.564   8.165  1.00 53.01     0.048 C 
HETATM   42  C40 8UH n1621     -43.244 138.179   7.033  1.00 46.34     0.048 C 
HETATM   43  O23 8UH n1621     -51.037 145.570  14.486  1.00 25.46    -0.395 OA
ATOM     44  H23 8UH n1621     -51.735 145.015  14.812  1.00  0.00     0.210 HD
ENDROOT
TORSDOF 12
BEGIN_RES PHE A  61
REMARK  2 active torsions:
REMARK  status: ('A' for Active; 'I' for Inactive)
REMARK    1  A    between atoms: CA   and  CB  
REMARK    2  A    between atoms: CB   and  CG  
ROOT
ATOM      1  CA  PHE A  61     -36.237 128.293  12.768  1.00 39.40     0.164 C 
ENDROOT
BRANCH   1   2
ATOM      2  CB  PHE A  61     -36.813 128.951  11.509  1.00 39.41     0.058 C 
BRANCH   2   3
ATOM      3  CG  PHE A  61     -37.029 128.004  10.353  1.00 39.01    -0.020 A 
ATOM      4  CD2 PHE A  61     -36.281 126.843  10.235  1.00 40.32    -0.004 A 
ATOM      5  CE2 PHE A  61     -36.479 125.974   9.169  1.00 40.20    -0.000 A 
ATOM      6  CZ  PHE A  61     -37.427 126.254   8.212  1.00 40.34    -0.000 A 
ATOM      7  CE1 PHE A  61     -38.180 127.402   8.316  1.00 41.51    -0.000 A 
ATOM      8  CD1 PHE A  61     -37.978 128.275   9.378  1.00 39.94    -0.004 A 
ENDBRANCH   2   3
ENDBRANCH   1   2
END_RES PHE A  61
BEGIN_RES VAL A 134
REMARK  1 active torsions:
REMARK  status: ('A' for Active; 'I' for Inactive)
REMARK    3  A    between atoms: CA   and  CB  
ROOT
ATOM      9  CA  VAL A 134     -29.766 132.051   9.815  1.00 40.75     0.159 C 
ENDROOT
BRANCH   9  10
ATOM     10  CB  VAL A 134     -30.864 132.765   9.009  1.00 40.76     0.029 C 
ATOM     11  CG1 VAL A 134     -31.178 132.000   7.732  1.00 41.76     0.002 C 
ATOM     12  CG2 VAL A 134     -32.123 132.973   9.837  1.00 40.56     0.002 C 
ENDBRANCH   9  10
END_RES VAL A 134
BEGIN_RES TYR A 338
REMARK  3 active torsions:
REMARK  status: ('A' for Active; 'I' for Inactive)
REMARK    4  A    between atoms: CA   and  CB  
REMARK    5  A    between atoms: CB   and  CG  
REMARK    6  A    between atoms: CZ   and  OH  
ROOT
ATOM     13  CA  TYR A 338     -41.631 124.950   6.058  1.00 38.23     0.164 C 
ENDROOT
BRANCH  13  14
ATOM     14  CB  TYR A 338     -41.621 126.456   6.339  1.00 39.15     0.058 C 
BRANCH  14  15
ATOM     15  CG  TYR A 338     -40.426 127.215   5.808  1.00 39.03    -0.020 A 
ATOM     16  CD2 TYR A 338     -40.247 128.550   6.125  1.00 40.65    -0.002 A 
ATOM     17  CE2 TYR A 338     -39.172 129.281   5.643  1.00 40.91     0.024 A 
ATOM     18  CZ  TYR A 338     -38.243 128.673   4.820  1.00 42.33     0.089 A 
ATOM     19  CE1 TYR A 338     -38.398 127.337   4.493  1.00 40.63     0.024 A 
ATOM     20  CD1 TYR A 338     -39.487 126.628   4.975  1.00 39.27    -0.002 A 
BRANCH  18  21
ATOM     21  OH  TYR A 338     -37.176 129.382   4.343  1.00 43.36    -0.359 OA
ATOM     22  HH  TYR A 338     -36.368 128.938   4.113  1.00  0.00     0.217 HD
ENDBRANCH  18  21
ENDBRANCH  14  15
ENDBRANCH  13  14
END_RES TYR A 338
ENDMDL
