MODEL 1
REMARK VINA RESULT:   -10.752      0.000      0.000
REMARK INTER + INTRA:         -11.207
REMARK INTER:                 -10.752
REMARK INTRA:                  -0.456
REMARK UNBOUND:                -0.456
REMARK  0 active torsions:
REMARK  status: ('A' for Active; 'I' for Inactive)
REMARK       I    between atoms: C3_3  and  O3_21 
REMARK       I    between atoms: C6_6  and  C7_7 
REMARK       I    between atoms: C8_8  and  C9_9 
REMARK       I    between atoms: C10_10  and  C11_11 
REMARK       I    between atoms: C12_12  and  C13_13 
REMARK       I    between atoms: C14_14  and  C15_15 
REMARK       I    between atoms: C23_25  and  O23_43 
REMARK       I    between atoms: C26_28  and  C27_29 
REMARK       I    between atoms: C28_30  and  C29_31 
REMARK       I    between atoms: C30_32  and  C31_33 
REMARK       I    between atoms: C32_34  and  C33_35 
REMARK       I    between atoms: C34_36  and  C35_37 
ROOT
HETATM    1  C1  8UH F5620     -34.180 128.149   6.753  1.00 19.30    -0.018 C 
HETATM    2  C2  8UH F5620     -33.334 127.659   5.562  1.00 17.68     0.045 C 
HETATM    3  C3  8UH F5620     -31.980 128.312   5.305  1.00 17.79     0.123 C 
HETATM    4  C4  8UH F5620     -31.363 129.037   6.502  1.00 18.50     0.066 C 
HETATM    5  C5  8UH F5620     -32.267 129.680   7.502  1.00 19.40    -0.074 C 
HETATM    6  C6  8UH F5620     -33.584 129.289   7.640  1.00 19.02    -0.048 C 
HETATM    7  C7  8UH F5620     -34.481 129.932   8.612  1.00 18.60     0.009 C 
HETATM    8  C8  8UH F5620     -35.084 131.132   8.483  1.00 18.09     0.007 C 
HETATM    9  C9  8UH F5620     -35.883 131.833   9.494  1.00 18.23    -0.062 C 
HETATM   10  C10 8UH F5620     -36.489 132.984   9.128  1.00 15.81     0.007 C 
HETATM   11  C11 8UH F5620     -37.326 133.813   9.949  1.00 18.00     0.001 C 
HETATM   12  C12 8UH F5620     -38.004 134.830   9.392  1.00 18.12     0.007 C 
HETATM   13  C13 8UH F5620     -38.941 135.762  10.005  1.00 18.88    -0.062 C 
HETATM   14  C14 8UH F5620     -39.573 136.630   9.186  1.00 21.10     0.007 C 
HETATM   15  C15 8UH F5620     -40.597 137.582   9.527  1.00 24.06     0.001 C 
HETATM   16  C16 8UH F5620     -34.370 126.878   7.599  1.00 17.17     0.020 C 
HETATM   17  C17 8UH F5620     -35.560 128.557   6.190  1.00 16.95     0.020 C 
HETATM   18  C18 8UH F5620     -31.504 130.736   8.235  1.00 19.80     0.044 C 
HETATM   19  C19 8UH F5620     -36.014 131.194  10.858  1.00 17.09     0.048 C 
HETATM   20  C20 8UH F5620     -39.193 135.647  11.477  1.00 16.35     0.048 C 
HETATM   21  O3  8UH F5620     -31.067 127.359   4.793  1.00 17.38    -0.395 OA
ATOM     22  H3  8UH F5620     -30.224 127.766   4.633  1.00  0.00     0.210 HD
HETATM   23  C21 8UH F5620     -50.713 145.080   9.764  1.00 15.23    -0.018 C 
HETATM   24  C22 8UH F5620     -51.516 144.404  10.858  1.00 15.23     0.045 C 
HETATM   25  C23 8UH F5620     -50.735 144.080  12.104  1.00 15.23     0.123 C 
HETATM   26  C24 8UH F5620     -49.940 145.297  12.475  1.00 15.23     0.066 C 
HETATM   27  C25 8UH F5620     -48.958 145.628  11.395  1.00 15.23    -0.074 C 
HETATM   28  C26 8UH F5620     -49.288 145.417  10.119  1.00 15.23    -0.048 C 
HETATM   29  C27 8UH F5620     -48.272 145.202   9.084  1.00 15.23     0.009 C 
HETATM   30  C28 8UH F5620     -47.436 144.211   9.404  1.00 15.23     0.007 C 
HETATM   31  C29 8UH F5620     -46.437 143.646   8.445  1.00 26.61    -0.062 C 
HETATM   32  C30 8UH F5620     -45.658 142.644   8.904  1.00 25.24     0.007 C 
HETATM   33  C31 8UH F5620     -44.672 141.915   8.162  1.00 26.40     0.001 C 
HETATM   34  C32 8UH F5620     -43.919 140.961   8.742  1.00 26.29     0.007 C 
HETATM   35  C33 8UH F5620     -42.865 140.137   8.141  1.00 26.99    -0.062 C 
HETATM   36  C34 8UH F5620     -42.219 139.265   8.946  1.00 26.65     0.007 C 
HETATM   37  C35 8UH F5620     -41.158 138.363   8.598  1.00 25.43     0.001 C 
HETATM   38  C36 8UH F5620     -51.374 146.423   9.517  1.00 15.23     0.020 C 
HETATM   39  C37 8UH F5620     -50.773 144.205   8.525  1.00 15.23     0.020 C 
HETATM   40  C38 8UH F5620     -47.558 145.858  11.882  1.00 15.23     0.044 C 
HETATM   41  C39 8UH F5620     -46.348 144.211   7.049  1.00 26.87     0.048 C 
HETATM   42  C40 8UH F5620     -42.563 140.336   6.685  1.00 24.17     0.048 C 
HETATM   43  O23 8UH F5620     -51.638 143.833  13.175  1.00 15.23    -0.395 OA
ATOM     44  H23 8UH F5620     -52.142 143.063  12.941  1.00  0.00     0.210 HD
ENDROOT
TORSDOF 12
BEGIN_RES PHE A  61
REMARK  2 active torsions:
REMARK  status: ('A' for Active; 'I' for Inactive)
REMARK    1  A    between atoms: CA   and  CB  
REMARK    2  A    between atoms: CB   and  CG  
ROOT
ATOM      1  CA  PHE A  61     -36.237 128.293  12.768  1.00 39.40     0.164 C 
ENDROOT
BRANCH   1   2
ATOM      2  CB  PHE A  61     -36.813 128.951  11.509  1.00 39.41     0.058 C 
BRANCH   2   3
ATOM      3  CG  PHE A  61     -37.006 128.009  10.345  1.00 39.01    -0.020 A 
ATOM      4  CD2 PHE A  61     -36.262 126.844  10.241  1.00 40.32    -0.004 A 
ATOM      5  CE2 PHE A  61     -36.438 125.980   9.168  1.00 40.20    -0.000 A 
ATOM      6  CZ  PHE A  61     -37.362 126.267   8.190  1.00 40.34    -0.000 A 
ATOM      7  CE1 PHE A  61     -38.111 127.420   8.279  1.00 41.51    -0.000 A 
ATOM      8  CD1 PHE A  61     -37.931 128.288   9.349  1.00 39.94    -0.004 A 
ENDBRANCH   2   3
ENDBRANCH   1   2
END_RES PHE A  61
BEGIN_RES VAL A 134
REMARK  1 active torsions:
REMARK  status: ('A' for Active; 'I' for Inactive)
REMARK    3  A    between atoms: CA   and  CB  
ROOT
ATOM      9  CA  VAL A 134     -29.766 132.051   9.815  1.00 40.75     0.159 C 
ENDROOT
BRANCH   9  10
ATOM     10  CB  VAL A 134     -30.864 132.765   9.009  1.00 40.76     0.029 C 
ATOM     11  CG1 VAL A 134     -32.107 132.975   9.861  1.00 41.76     0.002 C 
ATOM     12  CG2 VAL A 134     -30.372 134.085   8.437  1.00 40.56     0.002 C 
ENDBRANCH   9  10
END_RES VAL A 134
BEGIN_RES TYR A 338
REMARK  3 active torsions:
REMARK  status: ('A' for Active; 'I' for Inactive)
REMARK    4  A    between atoms: CA   and  CB  
REMARK    5  A    between atoms: CB   and  CG  
REMARK    6  A    between atoms: CZ   and  OH  
ROOT
ATOM     13  CA  TYR A 338     -41.631 124.950   6.058  1.00 38.23     0.164 C 
ENDROOT
BRANCH  13  14
ATOM     14  CB  TYR A 338     -41.621 126.456   6.339  1.00 39.15     0.058 C 
BRANCH  14  15
ATOM     15  CG  TYR A 338     -40.426 127.214   5.809  1.00 39.03    -0.020 A 
ATOM     16  CD2 TYR A 338     -40.260 128.557   6.106  1.00 40.65    -0.002 A 
ATOM     17  CE2 TYR A 338     -39.184 129.287   5.624  1.00 40.91     0.024 A 
ATOM     18  CZ  TYR A 338     -38.242 128.672   4.822  1.00 42.33     0.089 A 
ATOM     19  CE1 TYR A 338     -38.383 127.330   4.515  1.00 40.63     0.024 A 
ATOM     20  CD1 TYR A 338     -39.473 126.620   4.996  1.00 39.27    -0.002 A 
BRANCH  18  21
ATOM     21  OH  TYR A 338     -37.175 129.381   4.345  1.00 43.36    -0.359 OA
ATOM     22  HH  TYR A 338     -36.442 129.588   4.913  1.00  0.00     0.217 HD
ENDBRANCH  18  21
ENDBRANCH  14  15
ENDBRANCH  13  14
END_RES TYR A 338
ENDMDL
MODEL 2
REMARK VINA RESULT:    -8.316      1.237     16.529
REMARK INTER + INTRA:          -8.771
REMARK INTER:                  -5.279
REMARK INTRA:                  -3.493
REMARK UNBOUND:                -0.456
REMARK  0 active torsions:
REMARK  status: ('A' for Active; 'I' for Inactive)
REMARK       I    between atoms: C3_3  and  O3_21 
REMARK       I    between atoms: C6_6  and  C7_7 
REMARK       I    between atoms: C8_8  and  C9_9 
REMARK       I    between atoms: C10_10  and  C11_11 
REMARK       I    between atoms: C12_12  and  C13_13 
REMARK       I    between atoms: C14_14  and  C15_15 
REMARK       I    between atoms: C23_25  and  O23_43 
REMARK       I    between atoms: C26_28  and  C27_29 
REMARK       I    between atoms: C28_30  and  C29_31 
REMARK       I    between atoms: C30_32  and  C31_33 
REMARK       I    between atoms: C32_34  and  C33_35 
REMARK       I    between atoms: C34_36  and  C35_37 
ROOT
HETATM    1  C1  8UH F5620     -49.340 144.041  11.359  1.00 19.30    -0.018 C 
HETATM    2  C2  8UH F5620     -50.051 144.556  12.624  1.00 17.68     0.045 C 
HETATM    3  C3  8UH F5620     -49.383 145.651  13.448  1.00 17.79     0.123 C 
HETATM    4  C4  8UH F5620     -48.330 146.479  12.709  1.00 18.50     0.066 C 
HETATM    5  C5  8UH F5620     -47.525 145.828  11.632  1.00 19.40    -0.074 C 
HETATM    6  C6  8UH F5620     -47.969 144.691  10.987  1.00 19.02    -0.048 C 
HETATM    7  C7  8UH F5620     -47.170 144.038   9.938  1.00 18.60     0.009 C 
HETATM    8  C8  8UH F5620     -46.093 143.246  10.119  1.00 18.09     0.007 C 
HETATM    9  C9  8UH F5620     -45.221 142.688   9.081  1.00 18.23    -0.062 C 
HETATM   10  C10 8UH F5620     -44.253 141.830   9.468  1.00 15.81     0.007 C 
HETATM   11  C11 8UH F5620     -43.308 141.159   8.618  1.00 18.00     0.001 C 
HETATM   12  C12 8UH F5620     -42.524 140.196   9.128  1.00 18.12     0.007 C 
HETATM   13  C13 8UH F5620     -41.541 139.354   8.459  1.00 18.88    -0.062 C 
HETATM   14  C14 8UH F5620     -40.963 138.378   9.193  1.00 21.10     0.007 C 
HETATM   15  C15 8UH F5620     -40.038 137.369   8.749  1.00 24.06     0.001 C 
HETATM   16  C16 8UH F5620     -50.363 144.314  10.242  1.00 17.17     0.020 C 
HETATM   17  C17 8UH F5620     -49.198 142.510  11.511  1.00 16.95     0.020 C 
HETATM   18  C18 8UH F5620     -46.261 146.602  11.438  1.00 19.80     0.044 C 
HETATM   19  C19 8UH F5620     -45.498 143.074   7.645  1.00 17.09     0.048 C 
HETATM   20  C20 8UH F5620     -41.295 139.576   6.999  1.00 16.35     0.048 C 
HETATM   21  O3  8UH F5620     -50.361 146.505  14.012  1.00 17.38    -0.395 OA
ATOM     22  H3  8UH F5620     -49.944 147.188  14.525  1.00  0.00     0.210 HD
HETATM   23  C21 8UH F5620     -33.535 126.755   6.834  1.00 15.23    -0.018 C 
HETATM   24  C22 8UH F5620     -33.969 126.432   5.418  1.00 15.23     0.045 C 
HETATM   25  C23 8UH F5620     -33.901 127.592   4.459  1.00 15.23     0.123 C 
HETATM   26  C24 8UH F5620     -32.572 128.262   4.645  1.00 15.23     0.066 C 
HETATM   27  C25 8UH F5620     -32.454 128.811   6.032  1.00 15.23    -0.074 C 
HETATM   28  C26 8UH F5620     -33.009 128.150   7.051  1.00 15.23    -0.048 C 
HETATM   29  C27 8UH F5620     -33.402 128.830   8.289  1.00 15.23     0.009 C 
HETATM   30  C28 8UH F5620     -34.211 129.867   8.055  1.00 15.23     0.007 C 
HETATM   31  C29 8UH F5620     -34.923 130.607   9.141  1.00 26.61    -0.062 C 
HETATM   32  C30 8UH F5620     -35.711 131.633   8.757  1.00 25.24     0.007 C 
HETATM   33  C31 8UH F5620     -36.526 132.452   9.606  1.00 26.40     0.001 C 
HETATM   34  C32 8UH F5620     -37.239 133.482   9.113  1.00 26.29     0.007 C 
HETATM   35  C33 8UH F5620     -38.106 134.422   9.832  1.00 26.99    -0.062 C 
HETATM   36  C34 8UH F5620     -38.689 135.407   9.116  1.00 26.65     0.007 C 
HETATM   37  C35 8UH F5620     -39.565 136.441   9.588  1.00 25.43     0.001 C 
HETATM   38  C36 8UH F5620     -32.355 125.850   7.136  1.00 15.23     0.020 C 
HETATM   39  C37 8UH F5620     -34.699 126.462   7.763  1.00 15.23     0.020 C 
HETATM   40  C38 8UH F5620     -31.999 130.240   6.095  1.00 15.23     0.044 C 
HETATM   41  C39 8UH F5620     -34.728 130.183  10.576  1.00 26.87     0.048 C 
HETATM   42  C40 8UH F5620     -38.262 134.238  11.313  1.00 24.17     0.048 C 
HETATM   43  O23 8UH F5620     -33.936 127.101   3.124  1.00 15.23    -0.395 OA
ATOM     44  H23 8UH F5620     -34.777 126.677   3.007  1.00  0.00     0.210 HD
ENDROOT
TORSDOF 12
BEGIN_RES PHE A  61
REMARK  2 active torsions:
REMARK  status: ('A' for Active; 'I' for Inactive)
REMARK    1  A    between atoms: CA   and  CB  
REMARK    2  A    between atoms: CB   and  CG  
ROOT
ATOM      1  CA  PHE A  61     -36.237 128.293  12.768  1.00 39.40     0.164 C 
ENDROOT
BRANCH   1   2
ATOM      2  CB  PHE A  61     -36.813 128.951  11.509  1.00 39.41     0.058 C 
BRANCH   2   3
ATOM      3  CG  PHE A  61     -37.019 128.006  10.350  1.00 39.01    -0.020 A 
ATOM      4  CD2 PHE A  61     -36.289 126.832  10.250  1.00 40.32    -0.004 A 
ATOM      5  CE2 PHE A  61     -36.478 125.965   9.181  1.00 40.20    -0.000 A 
ATOM      6  CZ  PHE A  61     -37.400 126.259   8.203  1.00 40.34    -0.000 A 
ATOM      7  CE1 PHE A  61     -38.135 127.421   8.289  1.00 41.51    -0.000 A 
ATOM      8  CD1 PHE A  61     -37.942 128.291   9.354  1.00 39.94    -0.004 A 
ENDBRANCH   2   3
ENDBRANCH   1   2
END_RES PHE A  61
BEGIN_RES VAL A 134
REMARK  1 active torsions:
REMARK  status: ('A' for Active; 'I' for Inactive)
REMARK    3  A    between atoms: CA   and  CB  
ROOT
ATOM      9  CA  VAL A 134     -29.766 132.051   9.815  1.00 40.75     0.159 C 
ENDROOT
BRANCH   9  10
ATOM     10  CB  VAL A 134     -30.864 132.765   9.009  1.00 40.76     0.029 C 
ATOM     11  CG1 VAL A 134     -31.106 132.056   7.684  1.00 41.76     0.002 C 
ATOM     12  CG2 VAL A 134     -32.156 132.883   9.803  1.00 40.56     0.002 C 
ENDBRANCH   9  10
END_RES VAL A 134
BEGIN_RES TYR A 338
REMARK  3 active torsions:
REMARK  status: ('A' for Active; 'I' for Inactive)
REMARK    4  A    between atoms: CA   and  CB  
REMARK    5  A    between atoms: CB   and  CG  
REMARK    6  A    between atoms: CZ   and  OH  
ROOT
ATOM     13  CA  TYR A 338     -41.631 124.950   6.058  1.00 38.23     0.164 C 
ENDROOT
BRANCH  13  14
ATOM     14  CB  TYR A 338     -41.621 126.456   6.339  1.00 39.15     0.058 C 
BRANCH  14  15
ATOM     15  CG  TYR A 338     -40.391 127.202   5.875  1.00 39.03    -0.020 A 
ATOM     16  CD2 TYR A 338     -40.225 128.541   6.186  1.00 40.65    -0.002 A 
ATOM     17  CE2 TYR A 338     -39.117 129.260   5.764  1.00 40.91     0.024 A 
ATOM     18  CZ  TYR A 338     -38.141 128.636   5.008  1.00 42.33     0.089 A 
ATOM     19  CE1 TYR A 338     -38.283 127.298   4.689  1.00 40.63     0.024 A 
ATOM     20  CD1 TYR A 338     -39.404 126.600   5.110  1.00 39.27    -0.002 A 
BRANCH  18  21
ATOM     21  OH  TYR A 338     -37.043 129.334   4.590  1.00 43.36    -0.359 OA
ATOM     22  HH  TYR A 338     -36.234 128.880   4.386  1.00  0.00     0.217 HD
ENDBRANCH  18  21
ENDBRANCH  14  15
ENDBRANCH  13  14
END_RES TYR A 338
ENDMDL
MODEL 3
REMARK VINA RESULT:    -8.172      2.051     16.526
REMARK INTER + INTRA:          -8.628
REMARK INTER:                  -5.388
REMARK INTRA:                  -3.240
REMARK UNBOUND:                -0.456
REMARK  0 active torsions:
REMARK  status: ('A' for Active; 'I' for Inactive)
REMARK       I    between atoms: C3_3  and  O3_21 
REMARK       I    between atoms: C6_6  and  C7_7 
REMARK       I    between atoms: C8_8  and  C9_9 
REMARK       I    between atoms: C10_10  and  C11_11 
REMARK       I    between atoms: C12_12  and  C13_13 
REMARK       I    between atoms: C14_14  and  C15_15 
REMARK       I    between atoms: C23_25  and  O23_43 
REMARK       I    between atoms: C26_28  and  C27_29 
REMARK       I    between atoms: C28_30  and  C29_31 
REMARK       I    between atoms: C30_32  and  C31_33 
REMARK       I    between atoms: C32_34  and  C33_35 
REMARK       I    between atoms: C34_36  and  C35_37 
ROOT
HETATM    1  C1  8UH F5620     -48.550 147.714   8.996  1.00 19.30    -0.018 C 
HETATM    2  C2  8UH F5620     -50.083 147.857   9.046  1.00 17.68     0.045 C 
HETATM    3  C3  8UH F5620     -50.786 147.758  10.396  1.00 17.79     0.123 C 
HETATM    4  C4  8UH F5620     -49.902 148.014  11.617  1.00 18.50     0.066 C 
HETATM    5  C5  8UH F5620     -48.458 147.636  11.555  1.00 19.40    -0.074 C 
HETATM    6  C6  8UH F5620     -47.803 147.487  10.349  1.00 19.02    -0.048 C 
HETATM    7  C7  8UH F5620     -46.385 147.099  10.285  1.00 18.60     0.009 C 
HETATM    8  C8  8UH F5620     -45.879 145.860  10.459  1.00 18.09     0.007 C 
HETATM    9  C9  8UH F5620     -44.463 145.484  10.515  1.00 18.23    -0.062 C 
HETATM   10  C10 8UH F5620     -44.165 144.169  10.592  1.00 15.81     0.007 C 
HETATM   11  C11 8UH F5620     -42.853 143.586  10.638  1.00 18.00     0.001 C 
HETATM   12  C12 8UH F5620     -42.714 142.255  10.531  1.00 18.12     0.007 C 
HETATM   13  C13 8UH F5620     -41.499 141.451  10.500  1.00 18.88    -0.062 C 
HETATM   14  C14 8UH F5620     -41.640 140.128  10.272  1.00 21.10     0.007 C 
HETATM   15  C15 8UH F5620     -40.602 139.144  10.109  1.00 24.06     0.001 C 
HETATM   16  C16 8UH F5620     -48.091 149.040   8.366  1.00 17.17     0.020 C 
HETATM   17  C17 8UH F5620     -48.234 146.577   7.998  1.00 16.95     0.020 C 
HETATM   18  C18 8UH F5620     -47.942 147.467  12.948  1.00 19.80     0.044 C 
HETATM   19  C19 8UH F5620     -43.435 146.590  10.431  1.00 17.09     0.048 C 
HETATM   20  C20 8UH F5620     -40.184 142.152  10.648  1.00 16.35     0.048 C 
HETATM   21  O3  8UH F5620     -51.911 148.617  10.425  1.00 17.38    -0.395 OA
ATOM     22  H3  8UH F5620     -52.349 148.555  11.266  1.00  0.00     0.210 HD
HETATM   23  C21 8UH F5620     -33.465 129.397   6.550  1.00 15.23    -0.018 C 
HETATM   24  C22 8UH F5620     -32.343 130.135   5.848  1.00 15.23     0.045 C 
HETATM   25  C23 8UH F5620     -31.776 131.298   6.618  1.00 15.23     0.123 C 
HETATM   26  C24 8UH F5620     -31.534 130.841   8.026  1.00 15.23     0.066 C 
HETATM   27  C25 8UH F5620     -32.824 130.450   8.676  1.00 15.23    -0.074 C 
HETATM   28  C26 8UH F5620     -33.779 129.868   7.946  1.00 15.23    -0.048 C 
HETATM   29  C27 8UH F5620     -35.193 129.939   8.327  1.00 15.23     0.009 C 
HETATM   30  C28 8UH F5620     -35.600 131.198   8.506  1.00 15.23     0.007 C 
HETATM   31  C29 8UH F5620     -37.035 131.572   8.696  1.00 26.61    -0.062 C 
HETATM   32  C30 8UH F5620     -37.300 132.885   8.863  1.00 25.24     0.007 C 
HETATM   33  C31 8UH F5620     -38.593 133.486   9.012  1.00 26.40     0.001 C 
HETATM   34  C32 8UH F5620     -38.733 134.810   9.219  1.00 26.29     0.007 C 
HETATM   35  C33 8UH F5620     -39.966 135.581   9.405  1.00 26.99    -0.062 C 
HETATM   36  C34 8UH F5620     -39.845 136.905   9.638  1.00 26.65     0.007 C 
HETATM   37  C35 8UH F5620     -40.893 137.862   9.857  1.00 25.43     0.001 C 
HETATM   38  C36 8UH F5620     -32.991 127.966   6.726  1.00 15.23     0.020 C 
HETATM   39  C37 8UH F5620     -34.697 129.458   5.665  1.00 15.23     0.020 C 
HETATM   40  C38 8UH F5620     -33.044 131.059  10.030  1.00 15.23     0.044 C 
HETATM   41  C39 8UH F5620     -38.088 130.492   8.697  1.00 26.87     0.048 C 
HETATM   42  C40 8UH F5620     -41.271 134.842   9.348  1.00 24.17     0.048 C 
HETATM   43  O23 8UH F5620     -30.509 131.650   6.073  1.00 15.23    -0.395 OA
ATOM     44  H23 8UH F5620     -30.662 131.940   5.182  1.00  0.00     0.210 HD
ENDROOT
TORSDOF 12
BEGIN_RES PHE A  61
REMARK  2 active torsions:
REMARK  status: ('A' for Active; 'I' for Inactive)
REMARK    1  A    between atoms: CA   and  CB  
REMARK    2  A    between atoms: CB   and  CG  
ROOT
ATOM      1  CA  PHE A  61     -36.237 128.293  12.768  1.00 39.40     0.164 C 
ENDROOT
BRANCH   1   2
ATOM      2  CB  PHE A  61     -36.813 128.951  11.509  1.00 39.41     0.058 C 
BRANCH   2   3
ATOM      3  CG  PHE A  61     -36.709 128.107  10.261  1.00 39.01    -0.020 A 
ATOM      4  CD2 PHE A  61     -37.787 127.975   9.400  1.00 40.32    -0.004 A 
ATOM      5  CE2 PHE A  61     -37.691 127.196   8.254  1.00 40.20    -0.000 A 
ATOM      6  CZ  PHE A  61     -36.517 126.544   7.954  1.00 40.34    -0.000 A 
ATOM      7  CE1 PHE A  61     -35.436 126.668   8.798  1.00 41.51    -0.000 A 
ATOM      8  CD1 PHE A  61     -35.533 127.441   9.947  1.00 39.94    -0.004 A 
ENDBRANCH   2   3
ENDBRANCH   1   2
END_RES PHE A  61
BEGIN_RES VAL A 134
REMARK  1 active torsions:
REMARK  status: ('A' for Active; 'I' for Inactive)
REMARK    3  A    between atoms: CA   and  CB  
ROOT
ATOM      9  CA  VAL A 134     -29.766 132.051   9.815  1.00 40.75     0.159 C 
ENDROOT
BRANCH   9  10
ATOM     10  CB  VAL A 134     -30.864 132.765   9.009  1.00 40.76     0.029 C 
ATOM     11  CG1 VAL A 134     -31.965 133.271   9.930  1.00 41.76     0.002 C 
ATOM     12  CG2 VAL A 134     -30.297 133.900   8.171  1.00 40.56     0.002 C 
ENDBRANCH   9  10
END_RES VAL A 134
BEGIN_RES TYR A 338
REMARK  3 active torsions:
REMARK  status: ('A' for Active; 'I' for Inactive)
REMARK    4  A    between atoms: CA   and  CB  
REMARK    5  A    between atoms: CB   and  CG  
REMARK    6  A    between atoms: CZ   and  OH  
ROOT
ATOM     13  CA  TYR A 338     -41.631 124.950   6.058  1.00 38.23     0.164 C 
ENDROOT
BRANCH  13  14
ATOM     14  CB  TYR A 338     -41.621 126.456   6.339  1.00 39.15     0.058 C 
BRANCH  14  15
ATOM     15  CG  TYR A 338     -40.403 127.206   5.851  1.00 39.03    -0.020 A 
ATOM     16  CD2 TYR A 338     -40.231 128.544   6.166  1.00 40.65    -0.002 A 
ATOM     17  CE2 TYR A 338     -39.135 129.267   5.722  1.00 40.91     0.024 A 
ATOM     18  CZ  TYR A 338     -38.177 128.650   4.940  1.00 42.33     0.089 A 
ATOM     19  CE1 TYR A 338     -38.324 127.313   4.616  1.00 40.63     0.024 A 
ATOM     20  CD1 TYR A 338     -39.434 126.610   5.059  1.00 39.27    -0.002 A 
BRANCH  18  21
ATOM     21  OH  TYR A 338     -37.089 129.352   4.501  1.00 43.36    -0.359 OA
ATOM     22  HH  TYR A 338     -36.315 129.430   5.046  1.00  0.00     0.217 HD
ENDBRANCH  18  21
ENDBRANCH  14  15
ENDBRANCH  13  14
END_RES TYR A 338
ENDMDL
