MODEL 1
REMARK VINA RESULT:   -11.266      0.000      0.000
REMARK INTER + INTRA:         -13.785
REMARK INTER:                 -11.266
REMARK INTRA:                  -2.519
REMARK UNBOUND:                -2.519
REMARK  0 active torsions:
REMARK  status: ('A' for Active; 'I' for Inactive)
REMARK       I    between atoms: C3_3  and  O3_21 
REMARK       I    between atoms: C6_6  and  C7_7 
REMARK       I    between atoms: C8_8  and  C9_9 
REMARK       I    between atoms: C10_10  and  C11_11 
REMARK       I    between atoms: C12_12  and  C13_13 
REMARK       I    between atoms: C14_14  and  C15_15 
REMARK       I    between atoms: C23_25  and  O23_43 
REMARK       I    between atoms: C26_28  and  C27_29 
REMARK       I    between atoms: C28_30  and  C29_31 
REMARK       I    between atoms: C30_32  and  C31_33 
REMARK       I    between atoms: C32_34  and  C33_35 
REMARK       I    between atoms: C34_36  and  C35_37 
ROOT
HETATM    1  C1  8UH Y1620     -34.259 127.296   6.644  1.00 33.25    -0.018 C 
HETATM    2  C2  8UH Y1620     -33.826 126.971   5.222  1.00 33.25     0.045 C 
HETATM    3  C3  8UH Y1620     -32.613 127.706   4.681  1.00 33.25     0.123 C 
HETATM    4  C4  8UH Y1620     -31.596 127.946   5.759  1.00 33.25     0.066 C 
HETATM    5  C5  8UH Y1620     -32.216 128.703   6.879  1.00 33.25    -0.074 C 
HETATM    6  C6  8UH Y1620     -33.441 128.396   7.300  1.00 33.25    -0.048 C 
HETATM    7  C7  8UH Y1620     -34.016 129.134   8.439  1.00 33.25     0.009 C 
HETATM    8  C8  8UH Y1620     -34.771 130.197   8.215  1.00 33.25     0.007 C 
HETATM    9  C9  8UH Y1620     -35.383 130.977   9.282  1.00 33.25    -0.062 C 
HETATM   10  C10 8UH Y1620     -35.926 132.120   8.882  1.00 33.25     0.007 C 
HETATM   11  C11 8UH Y1620     -36.616 133.061   9.728  1.00 33.25     0.001 C 
HETATM   12  C12 8UH Y1620     -37.346 133.897   9.021  1.00 33.25     0.007 C 
HETATM   13  C13 8UH Y1620     -38.186 134.911   9.635  1.00 33.25    -0.062 C 
HETATM   14  C14 8UH Y1620     -38.933 135.644   8.822  1.00 33.25     0.007 C 
HETATM   15  C15 8UH Y1620     -39.846 136.629   9.357  1.00 33.25     0.001 C 
HETATM   16  C16 8UH Y1620     -34.219 125.986   7.425  1.00 33.25     0.020 C 
HETATM   17  C17 8UH Y1620     -35.700 127.767   6.575  1.00 33.25     0.020 C 
HETATM   18  C18 8UH Y1620     -31.353 129.746   7.516  1.00 33.25     0.044 C 
HETATM   19  C19 8UH Y1620     -35.374 130.507  10.701  1.00 33.25     0.048 C 
HETATM   20  C20 8UH Y1620     -38.222 135.075  11.116  1.00 33.25     0.048 C 
HETATM   21  O3  8UH Y1620     -31.980 126.902   3.688  1.00 33.25    -0.395 OA
ATOM     22  H3  8UH Y1620     -31.221 127.362   3.350  1.00  0.00     0.210 HD
HETATM   23  C21 8UH Y1620     -49.784 143.981   9.921  1.00 97.95    -0.018 C 
HETATM   24  C22 8UH Y1620     -50.507 144.409  11.193  1.00 97.95     0.045 C 
HETATM   25  C23 8UH Y1620     -49.810 145.425  12.083  1.00 97.95     0.123 C 
HETATM   26  C24 8UH Y1620     -49.051 146.450  11.271  1.00 97.95     0.066 C 
HETATM   27  C25 8UH Y1620     -48.076 145.740  10.381  1.00 97.95    -0.074 C 
HETATM   28  C26 8UH Y1620     -48.421 144.622   9.733  1.00 97.95    -0.048 C 
HETATM   29  C27 8UH Y1620     -47.472 143.970   8.798  1.00 97.95     0.009 C 
HETATM   30  C28 8UH Y1620     -46.603 143.053   9.221  1.00 97.95     0.007 C 
HETATM   31  C29 8UH Y1620     -45.676 142.391   8.316  1.00 33.25    -0.062 C 
HETATM   32  C30 8UH Y1620     -45.080 141.306   8.788  1.00 33.25     0.007 C 
HETATM   33  C31 8UH Y1620     -44.139 140.517   8.026  1.00 33.25     0.001 C 
HETATM   34  C32 8UH Y1620     -43.367 139.754   8.768  1.00 33.25     0.007 C 
HETATM   35  C33 8UH Y1620     -42.379 138.865   8.173  1.00 33.25    -0.062 C 
HETATM   36  C34 8UH Y1620     -41.650 138.134   9.005  1.00 33.25     0.007 C 
HETATM   37  C35 8UH Y1620     -40.681 137.185   8.505  1.00 33.25     0.001 C 
HETATM   38  C36 8UH Y1620     -50.715 144.295   8.755  1.00 97.95     0.020 C 
HETATM   39  C37 8UH Y1620     -49.571 142.473   9.984  1.00 97.95     0.020 C 
HETATM   40  C38 8UH Y1620     -46.762 146.432  10.171  1.00 97.95     0.044 C 
HETATM   41  C39 8UH Y1620     -45.404 142.913   6.941  1.00 33.25     0.048 C 
HETATM   42  C40 8UH Y1620     -42.228 138.770   6.691  1.00 33.25     0.048 C 
HETATM   43  O23 8UH Y1620     -50.795 146.116  12.860  1.00 97.95    -0.395 OA
ATOM     44  H23 8UH Y1620     -50.359 146.751  13.416  1.00  0.00     0.210 HD
ENDROOT
TORSDOF 12
BEGIN_RES PHE A  61
REMARK  2 active torsions:
REMARK  status: ('A' for Active; 'I' for Inactive)
REMARK    1  A    between atoms: CA   and  CB  
REMARK    2  A    between atoms: CB   and  CG  
ROOT
ATOM      1  CA  PHE A  61     -36.237 128.293  12.768  1.00 39.40     0.164 C 
ENDROOT
BRANCH   1   2
ATOM      2  CB  PHE A  61     -36.813 128.951  11.509  1.00 39.41     0.058 C 
BRANCH   2   3
ATOM      3  CG  PHE A  61     -37.078 127.995  10.371  1.00 39.01    -0.020 A 
ATOM      4  CD2 PHE A  61     -36.350 126.822  10.242  1.00 40.32    -0.004 A 
ATOM      5  CE2 PHE A  61     -36.592 125.945   9.192  1.00 40.20    -0.000 A 
ATOM      6  CZ  PHE A  61     -37.566 126.228   8.263  1.00 40.34    -0.000 A 
ATOM      7  CE1 PHE A  61     -38.300 127.388   8.377  1.00 41.51    -0.000 A 
ATOM      8  CD1 PHE A  61     -38.054 128.269   9.423  1.00 39.94    -0.004 A 
ENDBRANCH   2   3
ENDBRANCH   1   2
END_RES PHE A  61
BEGIN_RES VAL A 134
REMARK  1 active torsions:
REMARK  status: ('A' for Active; 'I' for Inactive)
REMARK    3  A    between atoms: CA   and  CB  
ROOT
ATOM      9  CA  VAL A 134     -29.766 132.051   9.815  1.00 40.75     0.159 C 
ENDROOT
BRANCH   9  10
ATOM     10  CB  VAL A 134     -30.864 132.765   9.009  1.00 40.76     0.029 C 
ATOM     11  CG1 VAL A 134     -30.872 132.282   7.566  1.00 41.76     0.002 C 
ATOM     12  CG2 VAL A 134     -32.234 132.587   9.646  1.00 40.56     0.002 C 
ENDBRANCH   9  10
END_RES VAL A 134
BEGIN_RES TYR A 338
REMARK  3 active torsions:
REMARK  status: ('A' for Active; 'I' for Inactive)
REMARK    4  A    between atoms: CA   and  CB  
REMARK    5  A    between atoms: CB   and  CG  
REMARK    6  A    between atoms: CZ   and  OH  
ROOT
ATOM     13  CA  TYR A 338     -41.631 124.950   6.058  1.00 38.23     0.164 C 
ENDROOT
BRANCH  13  14
ATOM     14  CB  TYR A 338     -41.621 126.456   6.339  1.00 39.15     0.058 C 
BRANCH  14  15
ATOM     15  CG  TYR A 338     -40.414 127.210   5.831  1.00 39.03    -0.020 A 
ATOM     16  CD2 TYR A 338     -40.256 128.556   6.117  1.00 40.65    -0.002 A 
ATOM     17  CE2 TYR A 338     -39.170 129.282   5.654  1.00 40.91     0.024 A 
ATOM     18  CZ  TYR A 338     -38.207 128.660   4.882  1.00 42.33     0.089 A 
ATOM     19  CE1 TYR A 338     -38.340 127.315   4.586  1.00 40.63     0.024 A 
ATOM     20  CD1 TYR A 338     -39.441 126.609   5.048  1.00 39.27    -0.002 A 
BRANCH  18  21
ATOM     21  OH  TYR A 338     -37.130 129.365   4.424  1.00 43.36    -0.359 OA
ATOM     22  HH  TYR A 338     -37.068 130.301   4.577  1.00  0.00     0.217 HD
ENDBRANCH  18  21
ENDBRANCH  14  15
ENDBRANCH  13  14
END_RES TYR A 338
ENDMDL
MODEL 2
REMARK VINA RESULT:   -10.562      0.852     16.292
REMARK INTER + INTRA:         -13.081
REMARK INTER:                 -10.798
REMARK INTRA:                  -2.283
REMARK UNBOUND:                -2.519
REMARK  0 active torsions:
REMARK  status: ('A' for Active; 'I' for Inactive)
REMARK       I    between atoms: C3_3  and  O3_21 
REMARK       I    between atoms: C6_6  and  C7_7 
REMARK       I    between atoms: C8_8  and  C9_9 
REMARK       I    between atoms: C10_10  and  C11_11 
REMARK       I    between atoms: C12_12  and  C13_13 
REMARK       I    between atoms: C14_14  and  C15_15 
REMARK       I    between atoms: C23_25  and  O23_43 
REMARK       I    between atoms: C26_28  and  C27_29 
REMARK       I    between atoms: C28_30  and  C29_31 
REMARK       I    between atoms: C30_32  and  C31_33 
REMARK       I    between atoms: C32_34  and  C33_35 
REMARK       I    between atoms: C34_36  and  C35_37 
ROOT
HETATM    1  C1  8UH Y1620     -49.533 144.113  11.360  1.00 33.25    -0.018 C 
HETATM    2  C2  8UH Y1620     -50.069 144.237  12.778  1.00 33.25     0.045 C 
HETATM    3  C3  8UH Y1620     -49.320 145.158  13.724  1.00 33.25     0.123 C 
HETATM    4  C4  8UH Y1620     -48.773 146.355  13.000  1.00 33.25     0.066 C 
HETATM    5  C5  8UH Y1620     -47.893 145.913  11.887  1.00 33.25    -0.074 C 
HETATM    6  C6  8UH Y1620     -48.248 144.885  11.117  1.00 33.25    -0.048 C 
HETATM    7  C7  8UH Y1620     -47.377 144.494   9.994  1.00 33.25     0.009 C 
HETATM    8  C8  8UH Y1620     -46.463 143.554  10.172  1.00 33.25     0.007 C 
HETATM    9  C9  8UH Y1620     -45.569 143.103   9.114  1.00 33.25    -0.062 C 
HETATM   10  C10 8UH Y1620     -44.588 142.312   9.527  1.00 33.25     0.007 C 
HETATM   11  C11 8UH Y1620     -43.587 141.709   8.684  1.00 33.25     0.001 C 
HETATM   12  C12 8UH Y1620     -42.982 140.711   9.294  1.00 33.25     0.007 C 
HETATM   13  C13 8UH Y1620     -41.970 139.898   8.644  1.00 33.25    -0.062 C 
HETATM   14  C14 8UH Y1620     -41.487 138.875   9.335  1.00 33.25     0.007 C 
HETATM   15  C15 8UH Y1620     -40.526 137.977   8.736  1.00 33.25     0.001 C 
HETATM   16  C16 8UH Y1620     -50.662 144.539  10.426  1.00 33.25     0.020 C 
HETATM   17  C17 8UH Y1620     -49.243 142.643  11.120  1.00 33.25     0.020 C 
HETATM   18  C18 8UH Y1620     -46.661 146.733  11.665  1.00 33.25     0.044 C 
HETATM   19  C19 8UH Y1620     -45.762 143.523   7.692  1.00 33.25     0.048 C 
HETATM   20  C20 8UH Y1620     -41.537 140.193   7.248  1.00 33.25     0.048 C 
HETATM   21  O3  8UH Y1620     -50.221 145.651  14.713  1.00 33.25    -0.395 OA
ATOM     22  H3  8UH Y1620     -49.752 146.227  15.305  1.00  0.00     0.210 HD
HETATM   23  C21 8UH Y1620     -34.329 127.458   6.715  1.00 97.95    -0.018 C 
HETATM   24  C22 8UH Y1620     -33.751 127.004   5.379  1.00 97.95     0.045 C 
HETATM   25  C23 8UH Y1620     -32.517 127.730   4.869  1.00 97.95     0.123 C 
HETATM   26  C24 8UH Y1620     -31.585 128.106   5.999  1.00 97.95     0.066 C 
HETATM   27  C25 8UH Y1620     -32.339 128.936   6.993  1.00 97.95    -0.074 C 
HETATM   28  C26 8UH Y1620     -33.589 128.622   7.350  1.00 97.95    -0.048 C 
HETATM   29  C27 8UH Y1620     -34.296 129.408   8.390  1.00 97.95     0.009 C 
HETATM   30  C28 8UH Y1620     -35.017 130.482   8.074  1.00 97.95     0.007 C 
HETATM   31  C29 8UH Y1620     -35.731 131.256   9.078  1.00 33.25    -0.062 C 
HETATM   32  C30 8UH Y1620     -36.638 132.106   8.620  1.00 33.25     0.007 C 
HETATM   33  C31 8UH Y1620     -37.447 132.947   9.472  1.00 33.25     0.001 C 
HETATM   34  C32 8UH Y1620     -37.970 133.981   8.851  1.00 33.25     0.007 C 
HETATM   35  C33 8UH Y1620     -38.841 134.922   9.541  1.00 33.25    -0.062 C 
HETATM   36  C34 8UH Y1620     -39.319 135.932   8.828  1.00 33.25     0.007 C 
HETATM   37  C35 8UH Y1620     -40.232 136.887   9.413  1.00 33.25     0.001 C 
HETATM   38  C36 8UH Y1620     -34.341 126.238   7.630  1.00 97.95     0.020 C 
HETATM   39  C37 8UH Y1620     -35.765 127.908   6.480  1.00 97.95     0.020 C 
HETATM   40  C38 8UH Y1620     -31.558 130.040   7.644  1.00 97.95     0.044 C 
HETATM   41  C39 8UH Y1620     -35.449 131.107  10.540  1.00 33.25     0.048 C 
HETATM   42  C40 8UH Y1620     -39.193 134.727  10.978  1.00 33.25     0.048 C 
HETATM   43  O23 8UH Y1620     -31.806 126.866   3.976  1.00 97.95    -0.395 OA
ATOM     44  H23 8UH Y1620     -31.034 127.319   3.658  1.00  0.00     0.210 HD
ENDROOT
TORSDOF 12
BEGIN_RES PHE A  61
REMARK  2 active torsions:
REMARK  status: ('A' for Active; 'I' for Inactive)
REMARK    1  A    between atoms: CA   and  CB  
REMARK    2  A    between atoms: CB   and  CG  
ROOT
ATOM      1  CA  PHE A  61     -36.237 128.293  12.768  1.00 39.40     0.164 C 
ENDROOT
BRANCH   1   2
ATOM      2  CB  PHE A  61     -36.813 128.951  11.509  1.00 39.41     0.058 C 
BRANCH   2   3
ATOM      3  CG  PHE A  61     -37.079 127.995  10.371  1.00 39.01    -0.020 A 
ATOM      4  CD2 PHE A  61     -36.365 126.813  10.253  1.00 40.32    -0.004 A 
ATOM      5  CE2 PHE A  61     -36.609 125.935   9.204  1.00 40.20    -0.000 A 
ATOM      6  CZ  PHE A  61     -37.571 126.227   8.264  1.00 40.34    -0.000 A 
ATOM      7  CE1 PHE A  61     -38.291 127.397   8.369  1.00 41.51    -0.000 A 
ATOM      8  CD1 PHE A  61     -38.043 128.278   9.414  1.00 39.94    -0.004 A 
ENDBRANCH   2   3
ENDBRANCH   1   2
END_RES PHE A  61
BEGIN_RES VAL A 134
REMARK  1 active torsions:
REMARK  status: ('A' for Active; 'I' for Inactive)
REMARK    3  A    between atoms: CA   and  CB  
ROOT
ATOM      9  CA  VAL A 134     -29.766 132.051   9.815  1.00 40.75     0.159 C 
ENDROOT
BRANCH   9  10
ATOM     10  CB  VAL A 134     -30.864 132.765   9.009  1.00 40.76     0.029 C 
ATOM     11  CG1 VAL A 134     -30.851 132.307   7.558  1.00 41.76     0.002 C 
ATOM     12  CG2 VAL A 134     -32.238 132.559   9.628  1.00 40.56     0.002 C 
ENDBRANCH   9  10
END_RES VAL A 134
BEGIN_RES TYR A 338
REMARK  3 active torsions:
REMARK  status: ('A' for Active; 'I' for Inactive)
REMARK    4  A    between atoms: CA   and  CB  
REMARK    5  A    between atoms: CB   and  CG  
REMARK    6  A    between atoms: CZ   and  OH  
ROOT
ATOM     13  CA  TYR A 338     -41.631 124.950   6.058  1.00 38.23     0.164 C 
ENDROOT
BRANCH  13  14
ATOM     14  CB  TYR A 338     -41.621 126.456   6.339  1.00 39.15     0.058 C 
BRANCH  14  15
ATOM     15  CG  TYR A 338     -40.423 127.213   5.815  1.00 39.03    -0.020 A 
ATOM     16  CD2 TYR A 338     -40.258 128.556   6.110  1.00 40.65    -0.002 A 
ATOM     17  CE2 TYR A 338     -39.179 129.285   5.634  1.00 40.91     0.024 A 
ATOM     18  CZ  TYR A 338     -38.233 128.669   4.837  1.00 42.33     0.089 A 
ATOM     19  CE1 TYR A 338     -38.373 127.327   4.532  1.00 40.63     0.024 A 
ATOM     20  CD1 TYR A 338     -39.465 126.618   5.008  1.00 39.27    -0.002 A 
BRANCH  18  21
ATOM     21  OH  TYR A 338     -37.163 129.377   4.365  1.00 43.36    -0.359 OA
ATOM     22  HH  TYR A 338     -37.290 130.229   3.964  1.00  0.00     0.217 HD
ENDBRANCH  18  21
ENDBRANCH  14  15
ENDBRANCH  13  14
END_RES TYR A 338
ENDMDL
MODEL 3
REMARK VINA RESULT:    -9.233      0.806      1.066
REMARK INTER + INTRA:         -11.752
REMARK INTER:                  -8.732
REMARK INTRA:                  -3.020
REMARK UNBOUND:                -2.519
REMARK  0 active torsions:
REMARK  status: ('A' for Active; 'I' for Inactive)
REMARK       I    between atoms: C3_3  and  O3_21 
REMARK       I    between atoms: C6_6  and  C7_7 
REMARK       I    between atoms: C8_8  and  C9_9 
REMARK       I    between atoms: C10_10  and  C11_11 
REMARK       I    between atoms: C12_12  and  C13_13 
REMARK       I    between atoms: C14_14  and  C15_15 
REMARK       I    between atoms: C23_25  and  O23_43 
REMARK       I    between atoms: C26_28  and  C27_29 
REMARK       I    between atoms: C28_30  and  C29_31 
REMARK       I    between atoms: C30_32  and  C31_33 
REMARK       I    between atoms: C32_34  and  C33_35 
REMARK       I    between atoms: C34_36  and  C35_37 
ROOT
HETATM    1  C1  8UH Y1620     -34.290 128.115   7.013  1.00 33.25    -0.018 C 
HETATM    2  C2  8UH Y1620     -33.621 127.905   5.663  1.00 33.25     0.045 C 
HETATM    3  C3  8UH Y1620     -32.336 128.669   5.399  1.00 33.25     0.123 C 
HETATM    4  C4  8UH Y1620     -31.518 128.807   6.650  1.00 33.25     0.066 C 
HETATM    5  C5  8UH Y1620     -32.321 129.476   7.708  1.00 33.25    -0.074 C 
HETATM    6  C6  8UH Y1620     -33.600 129.148   7.888  1.00 33.25    -0.048 C 
HETATM    7  C7  8UH Y1620     -34.362 129.795   8.971  1.00 33.25     0.009 C 
HETATM    8  C8  8UH Y1620     -35.071 130.882   8.711  1.00 33.25     0.007 C 
HETATM    9  C9  8UH Y1620     -35.858 131.578   9.720  1.00 33.25    -0.062 C 
HETATM   10  C10 8UH Y1620     -36.329 132.755   9.331  1.00 33.25     0.007 C 
HETATM   11  C11 8UH Y1620     -37.156 133.630  10.123  1.00 33.25     0.001 C 
HETATM   12  C12 8UH Y1620     -37.758 134.531   9.375  1.00 33.25     0.007 C 
HETATM   13  C13 8UH Y1620     -38.693 135.499   9.920  1.00 33.25    -0.062 C 
HETATM   14  C14 8UH Y1620     -39.294 136.305   9.056  1.00 33.25     0.007 C 
HETATM   15  C15 8UH Y1620     -40.287 137.252   9.509  1.00 33.25     0.001 C 
HETATM   16  C16 8UH Y1620     -34.379 126.745   7.677  1.00 33.25     0.020 C 
HETATM   17  C17 8UH Y1620     -35.700 128.607   6.740  1.00 33.25     0.020 C 
HETATM   18  C18 8UH Y1620     -31.583 130.453   8.567  1.00 33.25     0.044 C 
HETATM   19  C19 8UH Y1620     -36.089 130.991  11.076  1.00 33.25     0.048 C 
HETATM   20  C20 8UH Y1620     -38.982 135.540  11.381  1.00 33.25     0.048 C 
HETATM   21  O3  8UH Y1620     -31.541 127.943   4.464  1.00 33.25    -0.395 OA
ATOM     22  H3  8UH Y1620     -30.737 128.421   4.299  1.00  0.00     0.210 HD
HETATM   23  C21 8UH Y1620     -50.201 144.640   8.991  1.00 97.95    -0.018 C 
HETATM   24  C22 8UH Y1620     -51.131 144.970  10.153  1.00 97.95     0.045 C 
HETATM   25  C23 8UH Y1620     -50.599 145.901  11.230  1.00 97.95     0.123 C 
HETATM   26  C24 8UH Y1620     -49.717 146.981  10.647  1.00 97.95     0.066 C 
HETATM   27  C25 8UH Y1620     -48.602 146.336   9.879  1.00 97.95    -0.074 C 
HETATM   28  C26 8UH Y1620     -48.828 145.280   9.091  1.00 97.95    -0.048 C 
HETATM   29  C27 8UH Y1620     -47.732 144.697   8.280  1.00 97.95     0.009 C 
HETATM   30  C28 8UH Y1620     -46.945 143.739   8.766  1.00 97.95     0.007 C 
HETATM   31  C29 8UH Y1620     -45.875 143.144   7.980  1.00 33.25    -0.062 C 
HETATM   32  C30 8UH Y1620     -45.364 142.017   8.453  1.00 33.25     0.007 C 
HETATM   33  C31 8UH Y1620     -44.305 141.284   7.799  1.00 33.25     0.001 C 
HETATM   34  C32 8UH Y1620     -43.668 140.453   8.594  1.00 33.25     0.007 C 
HETATM   35  C33 8UH Y1620     -42.590 139.606   8.103  1.00 33.25    -0.062 C 
HETATM   36  C34 8UH Y1620     -42.011 138.800   8.983  1.00 33.25     0.007 C 
HETATM   37  C35 8UH Y1620     -40.967 137.886   8.578  1.00 33.25     0.001 C 
HETATM   38  C36 8UH Y1620     -50.922 145.060   7.714  1.00 97.95     0.020 C 
HETATM   39  C37 8UH Y1620     -49.997 143.130   8.963  1.00 97.95     0.020 C 
HETATM   40  C38 8UH Y1620     -47.274 147.029   9.954  1.00 97.95     0.044 C 
HETATM   41  C39 8UH Y1620     -45.375 143.775   6.718  1.00 33.25     0.048 C 
HETATM   42  C40 8UH Y1620     -42.190 139.633   6.666  1.00 33.25     0.048 C 
HETATM   43  O23 8UH Y1620     -51.704 146.535  11.884  1.00 97.95    -0.395 OA
ATOM     44  H23 8UH Y1620     -51.371 147.118  12.557  1.00  0.00     0.210 HD
ENDROOT
TORSDOF 12
BEGIN_RES PHE A  61
REMARK  2 active torsions:
REMARK  status: ('A' for Active; 'I' for Inactive)
REMARK    1  A    between atoms: CA   and  CB  
REMARK    2  A    between atoms: CB   and  CG  
ROOT
ATOM      1  CA  PHE A  61     -36.237 128.293  12.768  1.00 39.40     0.164 C 
ENDROOT
BRANCH   1   2
ATOM      2  CB  PHE A  61     -36.813 128.951  11.509  1.00 39.41     0.058 C 
BRANCH   2   3
ATOM      3  CG  PHE A  61     -37.027 128.004  10.352  1.00 39.01    -0.020 A 
ATOM      4  CD2 PHE A  61     -36.331 126.808  10.274  1.00 40.32    -0.004 A 
ATOM      5  CE2 PHE A  61     -36.526 125.939   9.207  1.00 40.20    -0.000 A 
ATOM      6  CZ  PHE A  61     -37.421 126.255   8.210  1.00 40.34    -0.000 A 
ATOM      7  CE1 PHE A  61     -38.121 127.439   8.274  1.00 41.51    -0.000 A 
ATOM      8  CD1 PHE A  61     -37.922 128.311   9.337  1.00 39.94    -0.004 A 
ENDBRANCH   2   3
ENDBRANCH   1   2
END_RES PHE A  61
BEGIN_RES VAL A 134
REMARK  1 active torsions:
REMARK  status: ('A' for Active; 'I' for Inactive)
REMARK    3  A    between atoms: CA   and  CB  
ROOT
ATOM      9  CA  VAL A 134     -29.766 132.051   9.815  1.00 40.75     0.159 C 
ENDROOT
BRANCH   9  10
ATOM     10  CB  VAL A 134     -30.864 132.765   9.009  1.00 40.76     0.029 C 
ATOM     11  CG1 VAL A 134     -31.023 132.129   7.636  1.00 41.76     0.002 C 
ATOM     12  CG2 VAL A 134     -32.189 132.778   9.755  1.00 40.56     0.002 C 
ENDBRANCH   9  10
END_RES VAL A 134
BEGIN_RES TYR A 338
REMARK  3 active torsions:
REMARK  status: ('A' for Active; 'I' for Inactive)
REMARK    4  A    between atoms: CA   and  CB  
REMARK    5  A    between atoms: CB   and  CG  
REMARK    6  A    between atoms: CZ   and  OH  
ROOT
ATOM     13  CA  TYR A 338     -41.631 124.950   6.058  1.00 38.23     0.164 C 
ENDROOT
BRANCH  13  14
ATOM     14  CB  TYR A 338     -41.621 126.456   6.339  1.00 39.15     0.058 C 
BRANCH  14  15
ATOM     15  CG  TYR A 338     -40.426 127.214   5.809  1.00 39.03    -0.020 A 
ATOM     16  CD2 TYR A 338     -39.421 126.551   5.125  1.00 40.65    -0.002 A 
ATOM     17  CE2 TYR A 338     -38.304 127.212   4.639  1.00 40.91     0.024 A 
ATOM     18  CZ  TYR A 338     -38.173 128.573   4.836  1.00 42.33     0.089 A 
ATOM     19  CE1 TYR A 338     -39.166 129.260   5.512  1.00 40.63     0.024 A 
ATOM     20  CD1 TYR A 338     -40.269 128.578   6.002  1.00 39.27    -0.002 A 
BRANCH  18  21
ATOM     21  OH  TYR A 338     -37.077 129.236   4.357  1.00 43.36    -0.359 OA
ATOM     22  HH  TYR A 338     -36.398 129.533   4.951  1.00  0.00     0.217 HD
ENDBRANCH  18  21
ENDBRANCH  14  15
ENDBRANCH  13  14
END_RES TYR A 338
ENDMDL
