MODEL 1
REMARK VINA RESULT:   -10.864      0.000      0.000
REMARK INTER + INTRA:         -13.496
REMARK INTER:                 -10.864
REMARK INTRA:                  -2.631
REMARK UNBOUND:                -2.631
REMARK  0 active torsions:
REMARK  status: ('A' for Active; 'I' for Inactive)
REMARK       I    between atoms: C3_3  and  O3_21 
REMARK       I    between atoms: C6_6  and  C7_7 
REMARK       I    between atoms: C8_8  and  C9_9 
REMARK       I    between atoms: C10_10  and  C11_11 
REMARK       I    between atoms: C12_12  and  C13_13 
REMARK       I    between atoms: C14_14  and  C15_15 
REMARK       I    between atoms: C23_25  and  O23_43 
REMARK       I    between atoms: C26_28  and  C27_29 
REMARK       I    between atoms: C28_30  and  C29_31 
REMARK       I    between atoms: C30_32  and  C31_33 
REMARK       I    between atoms: C32_34  and  C33_35 
REMARK       I    between atoms: C34_36  and  C35_37 
ROOT
HETATM    1  C1  8UH U1620     -33.661 129.151   7.068  1.00 22.99    -0.018 C 
HETATM    2  C2  8UH U1620     -32.857 129.835   5.982  1.00 22.99     0.045 C 
HETATM    3  C3  8UH U1620     -32.101 131.048   6.455  1.00 22.99     0.123 C 
HETATM    4  C4  8UH U1620     -31.204 130.566   7.560  1.00 22.99     0.066 C 
HETATM    5  C5  8UH U1620     -32.032 130.048   8.690  1.00 22.99    -0.074 C 
HETATM    6  C6  8UH U1620     -33.261 129.605   8.455  1.00 22.99    -0.048 C 
HETATM    7  C7  8UH U1620     -34.333 129.903   9.396  1.00 22.99     0.009 C 
HETATM    8  C8  8UH U1620     -34.788 131.127   9.106  1.00 22.99     0.007 C 
HETATM    9  C9  8UH U1620     -35.883 131.787   9.840  1.00 22.99    -0.062 C 
HETATM   10  C10 8UH U1620     -36.274 132.999   9.410  1.00 22.99     0.007 C 
HETATM   11  C11 8UH U1620     -37.367 133.746  10.018  1.00 22.99     0.001 C 
HETATM   12  C12 8UH U1620     -37.742 134.914   9.510  1.00 22.99     0.007 C 
HETATM   13  C13 8UH U1620     -38.888 135.623  10.090  1.00 22.99    -0.062 C 
HETATM   14  C14 8UH U1620     -39.323 136.705   9.437  1.00 22.99     0.007 C 
HETATM   15  C15 8UH U1620     -40.489 137.497   9.804  1.00 22.99     0.001 C 
HETATM   16  C16 8UH U1620     -33.476 127.666   6.828  1.00 22.99     0.020 C 
HETATM   17  C17 8UH U1620     -35.126 129.501   6.873  1.00 22.99     0.020 C 
HETATM   18  C18 8UH U1620     -31.667 130.916   9.851  1.00 22.99     0.044 C 
HETATM   19  C19 8UH U1620     -36.521 131.096  11.008  1.00 22.99     0.048 C 
HETATM   20  C20 8UH U1620     -39.547 135.054  11.304  1.00 22.99     0.048 C 
HETATM   21  O3  8UH U1620     -31.281 131.523   5.396  1.00 22.99    -0.395 OA
ATOM     22  H3  8UH U1620     -30.803 132.289   5.695  1.00  0.00     0.210 HD
HETATM   23  C21 8UH U1620     -50.315 145.345   8.716  1.00 48.43    -0.018 C 
HETATM   24  C22 8UH U1620     -51.582 145.637   9.508  1.00 44.61     0.045 C 
HETATM   25  C23 8UH U1620     -51.385 146.212  10.898  1.00 44.41     0.123 C 
HETATM   26  C24 8UH U1620     -50.287 147.248  10.899  1.00 41.53     0.066 C 
HETATM   27  C25 8UH U1620     -49.024 146.580  10.453  1.00 37.72    -0.074 C 
HETATM   28  C26 8UH U1620     -49.024 145.814   9.363  1.00 43.52    -0.048 C 
HETATM   29  C27 8UH U1620     -47.761 145.404   8.704  1.00 44.60     0.009 C 
HETATM   30  C28 8UH U1620     -47.036 144.381   9.139  1.00 43.22     0.007 C 
HETATM   31  C29 8UH U1620     -45.801 143.954   8.443  1.00 22.99    -0.062 C 
HETATM   32  C30 8UH U1620     -45.225 142.840   8.927  1.00 22.99     0.007 C 
HETATM   33  C31 8UH U1620     -44.023 142.198   8.397  1.00 22.99     0.001 C 
HETATM   34  C32 8UH U1620     -43.574 141.096   8.999  1.00 22.99     0.007 C 
HETATM   35  C33 8UH U1620     -42.372 140.374   8.547  1.00 22.99    -0.062 C 
HETATM   36  C34 8UH U1620     -41.993 139.311   9.276  1.00 22.99     0.007 C 
HETATM   37  C35 8UH U1620     -40.824 138.489   8.987  1.00 22.99     0.001 C 
HETATM   38  C36 8UH U1620     -50.533 145.965   7.340  1.00 47.48     0.020 C 
HETATM   39  C37 8UH U1620     -50.148 143.842   8.572  1.00 54.25     0.020 C 
HETATM   40  C38 8UH U1620     -47.807 147.299  10.931  1.00 37.77     0.044 C 
HETATM   41  C39 8UH U1620     -45.300 144.711   7.247  1.00 22.99     0.048 C 
HETATM   42  C40 8UH U1620     -41.659 140.833   7.311  1.00 22.99     0.048 C 
HETATM   43  O23 8UH U1620     -52.600 146.833  11.317  1.00 48.83    -0.395 OA
ATOM     44  H23 8UH U1620     -52.477 147.192  12.188  1.00  0.00     0.210 HD
ENDROOT
TORSDOF 12
BEGIN_RES PHE A  61
REMARK  2 active torsions:
REMARK  status: ('A' for Active; 'I' for Inactive)
REMARK    1  A    between atoms: CA   and  CB  
REMARK    2  A    between atoms: CB   and  CG  
ROOT
ATOM      1  CA  PHE A  61     -36.237 128.293  12.768  1.00 39.40     0.164 C 
ENDROOT
BRANCH   1   2
ATOM      2  CB  PHE A  61     -36.813 128.951  11.509  1.00 39.41     0.058 C 
BRANCH   2   3
ATOM      3  CG  PHE A  61     -36.766 128.083  10.274  1.00 39.01    -0.020 A 
ATOM      4  CD2 PHE A  61     -37.785 128.124   9.336  1.00 40.32    -0.004 A 
ATOM      5  CE2 PHE A  61     -37.742 127.323   8.202  1.00 40.20    -0.000 A 
ATOM      6  CZ  PHE A  61     -36.678 126.476   7.991  1.00 40.34    -0.000 A 
ATOM      7  CE1 PHE A  61     -35.655 126.425   8.913  1.00 41.51    -0.000 A 
ATOM      8  CD1 PHE A  61     -35.702 127.221  10.050  1.00 39.94    -0.004 A 
ENDBRANCH   2   3
ENDBRANCH   1   2
END_RES PHE A  61
BEGIN_RES VAL A 134
REMARK  1 active torsions:
REMARK  status: ('A' for Active; 'I' for Inactive)
REMARK    3  A    between atoms: CA   and  CB  
ROOT
ATOM      9  CA  VAL A 134     -29.766 132.051   9.815  1.00 40.75     0.159 C 
ENDROOT
BRANCH   9  10
ATOM     10  CB  VAL A 134     -30.864 132.765   9.009  1.00 40.76     0.029 C 
ATOM     11  CG1 VAL A 134     -31.925 133.339   9.936  1.00 41.76     0.002 C 
ATOM     12  CG2 VAL A 134     -30.287 133.849   8.112  1.00 40.56     0.002 C 
ENDBRANCH   9  10
END_RES VAL A 134
BEGIN_RES TYR A 338
REMARK  3 active torsions:
REMARK  status: ('A' for Active; 'I' for Inactive)
REMARK    4  A    between atoms: CA   and  CB  
REMARK    5  A    between atoms: CB   and  CG  
REMARK    6  A    between atoms: CZ   and  OH  
ROOT
ATOM     13  CA  TYR A 338     -41.631 124.950   6.058  1.00 38.23     0.164 C 
ENDROOT
BRANCH  13  14
ATOM     14  CB  TYR A 338     -41.621 126.456   6.339  1.00 39.15     0.058 C 
BRANCH  14  15
ATOM     15  CG  TYR A 338     -40.398 127.205   5.861  1.00 39.03    -0.020 A 
ATOM     16  CD2 TYR A 338     -40.217 128.536   6.193  1.00 40.65    -0.002 A 
ATOM     17  CE2 TYR A 338     -39.116 129.258   5.759  1.00 40.91     0.024 A 
ATOM     18  CZ  TYR A 338     -38.162 128.645   4.969  1.00 42.33     0.089 A 
ATOM     19  CE1 TYR A 338     -38.318 127.313   4.627  1.00 40.63     0.024 A 
ATOM     20  CD1 TYR A 338     -39.433 126.613   5.060  1.00 39.27    -0.002 A 
BRANCH  18  21
ATOM     21  OH  TYR A 338     -37.070 129.345   4.539  1.00 43.36    -0.359 OA
ATOM     22  HH  TYR A 338     -37.171 130.216   4.172  1.00  0.00     0.217 HD
ENDBRANCH  18  21
ENDBRANCH  14  15
ENDBRANCH  13  14
END_RES TYR A 338
ENDMDL
MODEL 2
REMARK VINA RESULT:    -8.993      1.277     16.326
REMARK INTER + INTRA:         -11.625
REMARK INTER:                 -11.183
REMARK INTRA:                  -0.442
REMARK UNBOUND:                -2.631
REMARK  0 active torsions:
REMARK  status: ('A' for Active; 'I' for Inactive)
REMARK       I    between atoms: C3_3  and  O3_21 
REMARK       I    between atoms: C6_6  and  C7_7 
REMARK       I    between atoms: C8_8  and  C9_9 
REMARK       I    between atoms: C10_10  and  C11_11 
REMARK       I    between atoms: C12_12  and  C13_13 
REMARK       I    between atoms: C14_14  and  C15_15 
REMARK       I    between atoms: C23_25  and  O23_43 
REMARK       I    between atoms: C26_28  and  C27_29 
REMARK       I    between atoms: C28_30  and  C29_31 
REMARK       I    between atoms: C30_32  and  C31_33 
REMARK       I    between atoms: C32_34  and  C33_35 
REMARK       I    between atoms: C34_36  and  C35_37 
ROOT
HETATM    1  C1  8UH U1620     -50.259 144.460  10.489  1.00 22.99    -0.018 C 
HETATM    2  C2  8UH U1620     -50.339 144.316  11.994  1.00 22.99     0.045 C 
HETATM    3  C3  8UH U1620     -49.145 144.867  12.725  1.00 22.99     0.123 C 
HETATM    4  C4  8UH U1620     -49.056 146.314  12.332  1.00 22.99     0.066 C 
HETATM    5  C5  8UH U1620     -48.810 146.422  10.863  1.00 22.99    -0.074 C 
HETATM    6  C6  8UH U1620     -49.183 145.433  10.060  1.00 22.99    -0.048 C 
HETATM    7  C7  8UH U1620     -48.324 145.034   8.951  1.00 22.99     0.009 C 
HETATM    8  C8  8UH U1620     -47.401 144.201   9.443  1.00 22.99     0.007 C 
HETATM    9  C9  8UH U1620     -46.346 143.576   8.626  1.00 22.99    -0.062 C 
HETATM   10  C10 8UH U1620     -45.513 142.718   9.240  1.00 22.99     0.007 C 
HETATM   11  C11 8UH U1620     -44.451 142.002   8.545  1.00 22.99     0.001 C 
HETATM   12  C12 8UH U1620     -43.698 141.125   9.198  1.00 22.99     0.007 C 
HETATM   13  C13 8UH U1620     -42.678 140.361   8.472  1.00 22.99    -0.062 C 
HETATM   14  C14 8UH U1620     -42.068 139.378   9.140  1.00 22.99     0.007 C 
HETATM   15  C15 8UH U1620     -41.088 138.459   8.578  1.00 22.99     0.001 C 
HETATM   16  C16 8UH U1620     -51.655 144.852  10.049  1.00 22.99     0.020 C 
HETATM   17  C17 8UH U1620     -49.918 143.104   9.894  1.00 22.99     0.020 C 
HETATM   18  C18 8UH U1620     -47.501 147.136  10.753  1.00 22.99     0.044 C 
HETATM   19  C19 8UH U1620     -46.244 143.899   7.165  1.00 22.99     0.048 C 
HETATM   20  C20 8UH U1620     -42.447 140.662   7.027  1.00 22.99     0.048 C 
HETATM   21  O3  8UH U1620     -49.388 144.804  14.124  1.00 22.99    -0.395 OA
ATOM     22  H3  8UH U1620     -48.634 145.153  14.585  1.00  0.00     0.210 HD
HETATM   23  C21 8UH U1620     -34.059 128.085   7.063  1.00 48.43    -0.018 C 
HETATM   24  C22 8UH U1620     -33.265 127.450   5.931  1.00 44.61     0.045 C 
HETATM   25  C23 8UH U1620     -32.065 128.234   5.434  1.00 44.41     0.123 C 
HETATM   26  C24 8UH U1620     -31.303 128.838   6.588  1.00 41.53     0.066 C 
HETATM   27  C25 8UH U1620     -32.230 129.758   7.319  1.00 37.72    -0.074 C 
HETATM   28  C26 8UH U1620     -33.452 129.346   7.652  1.00 43.52    -0.048 C 
HETATM   29  C27 8UH U1620     -34.275 130.081   8.642  1.00 44.60     0.009 C 
HETATM   30  C28 8UH U1620     -34.979 131.157   8.316  1.00 43.22     0.007 C 
HETATM   31  C29 8UH U1620     -35.833 131.855   9.305  1.00 22.99    -0.062 C 
HETATM   32  C30 8UH U1620     -36.574 132.864   8.815  1.00 22.99     0.007 C 
HETATM   33  C31 8UH U1620     -37.517 133.683   9.575  1.00 22.99     0.001 C 
HETATM   34  C32 8UH U1620     -38.171 134.653   8.938  1.00 22.99     0.007 C 
HETATM   35  C33 8UH U1620     -39.140 135.536   9.610  1.00 22.99    -0.062 C 
HETATM   36  C34 8UH U1620     -39.688 136.513   8.868  1.00 22.99     0.007 C 
HETATM   37  C35 8UH U1620     -40.652 137.486   9.369  1.00 22.99     0.001 C 
HETATM   38  C36 8UH U1620     -34.244 126.988   8.106  1.00 47.48     0.020 C 
HETATM   39  C37 8UH U1620     -35.418 128.520   6.543  1.00 54.25     0.020 C 
HETATM   40  C38 8UH U1620     -31.495 130.801   8.091  1.00 37.77     0.044 C 
HETATM   41  C39 8UH U1620     -35.880 131.391  10.732  1.00 22.99     0.048 C 
HETATM   42  C40 8UH U1620     -39.481 135.293  11.050  1.00 22.99     0.048 C 
HETATM   43  O23 8UH U1620     -31.197 127.349   4.726  1.00 48.83    -0.395 OA
ATOM     44  H23 8UH U1620     -30.445 127.840   4.414  1.00  0.00     0.210 HD
ENDROOT
TORSDOF 12
BEGIN_RES PHE A  61
REMARK  2 active torsions:
REMARK  status: ('A' for Active; 'I' for Inactive)
REMARK    1  A    between atoms: CA   and  CB  
REMARK    2  A    between atoms: CB   and  CG  
ROOT
ATOM      1  CA  PHE A  61     -36.237 128.293  12.768  1.00 39.40     0.164 C 
ENDROOT
BRANCH   1   2
ATOM      2  CB  PHE A  61     -36.813 128.951  11.509  1.00 39.41     0.058 C 
BRANCH   2   3
ATOM      3  CG  PHE A  61     -37.018 128.006  10.349  1.00 39.01    -0.020 A 
ATOM      4  CD2 PHE A  61     -36.289 126.832  10.251  1.00 40.32    -0.004 A 
ATOM      5  CE2 PHE A  61     -36.476 125.965   9.181  1.00 40.20    -0.000 A 
ATOM      6  CZ  PHE A  61     -37.396 126.260   8.201  1.00 40.34    -0.000 A 
ATOM      7  CE1 PHE A  61     -38.130 127.422   8.286  1.00 41.51    -0.000 A 
ATOM      8  CD1 PHE A  61     -37.938 128.293   9.351  1.00 39.94    -0.004 A 
ENDBRANCH   2   3
ENDBRANCH   1   2
END_RES PHE A  61
BEGIN_RES VAL A 134
REMARK  1 active torsions:
REMARK  status: ('A' for Active; 'I' for Inactive)
REMARK    3  A    between atoms: CA   and  CB  
ROOT
ATOM      9  CA  VAL A 134     -29.766 132.051   9.815  1.00 40.75     0.159 C 
ENDROOT
BRANCH   9  10
ATOM     10  CB  VAL A 134     -30.864 132.765   9.009  1.00 40.76     0.029 C 
ATOM     11  CG1 VAL A 134     -32.107 132.975   9.862  1.00 41.76     0.002 C 
ATOM     12  CG2 VAL A 134     -30.371 134.085   8.437  1.00 40.56     0.002 C 
ENDBRANCH   9  10
END_RES VAL A 134
BEGIN_RES TYR A 338
REMARK  3 active torsions:
REMARK  status: ('A' for Active; 'I' for Inactive)
REMARK    4  A    between atoms: CA   and  CB  
REMARK    5  A    between atoms: CB   and  CG  
REMARK    6  A    between atoms: CZ   and  OH  
ROOT
ATOM     13  CA  TYR A 338     -41.631 124.950   6.058  1.00 38.23     0.164 C 
ENDROOT
BRANCH  13  14
ATOM     14  CB  TYR A 338     -41.621 126.456   6.339  1.00 39.15     0.058 C 
BRANCH  14  15
ATOM     15  CG  TYR A 338     -40.416 127.211   5.826  1.00 39.03    -0.020 A 
ATOM     16  CD2 TYR A 338     -40.263 128.558   6.106  1.00 40.65    -0.002 A 
ATOM     17  CE2 TYR A 338     -39.179 129.286   5.638  1.00 40.91     0.024 A 
ATOM     18  CZ  TYR A 338     -38.215 128.662   4.868  1.00 42.33     0.089 A 
ATOM     19  CE1 TYR A 338     -38.344 127.315   4.579  1.00 40.63     0.024 A 
ATOM     20  CD1 TYR A 338     -39.442 126.609   5.045  1.00 39.27    -0.002 A 
BRANCH  18  21
ATOM     21  OH  TYR A 338     -37.140 129.369   4.406  1.00 43.36    -0.359 OA
ATOM     22  HH  TYR A 338     -37.062 130.298   4.586  1.00  0.00     0.217 HD
ENDBRANCH  18  21
ENDBRANCH  14  15
ENDBRANCH  13  14
END_RES TYR A 338
ENDMDL
