MODEL 1
REMARK VINA RESULT:    -9.491      0.000      0.000
REMARK INTER + INTRA:         -12.794
REMARK INTER:                  -9.491
REMARK INTRA:                  -3.303
REMARK UNBOUND:                -3.303
REMARK  0 active torsions:
REMARK  status: ('A' for Active; 'I' for Inactive)
REMARK       I    between atoms: C3_3  and  O3_21 
REMARK       I    between atoms: C6_6  and  C7_7 
REMARK       I    between atoms: C8_8  and  C9_9 
REMARK       I    between atoms: C10_10  and  C11_11 
REMARK       I    between atoms: C12_12  and  C13_13 
REMARK       I    between atoms: C14_14  and  C15_15 
REMARK       I    between atoms: C23_25  and  O23_43 
REMARK       I    between atoms: C26_28  and  C27_29 
REMARK       I    between atoms: C28_30  and  C29_31 
REMARK       I    between atoms: C30_32  and  C31_33 
REMARK       I    between atoms: C32_34  and  C33_35 
REMARK       I    between atoms: C34_36  and  C35_37 
ROOT
HETATM    1  C1  8UH R 620     -48.489 144.034  11.575  1.00 48.79    -0.018 C 
HETATM    2  C2  8UH R 620     -48.959 144.207  13.013  1.00 49.38     0.045 C 
HETATM    3  C3  8UH R 620     -48.828 145.599  13.627  1.00 51.85     0.123 C 
HETATM    4  C4  8UH R 620     -47.497 146.267  13.328  1.00 54.16     0.066 C 
HETATM    5  C5  8UH R 620     -46.840 145.856  12.037  1.00 52.93    -0.074 C 
HETATM    6  C6  8UH R 620     -47.188 144.776  11.318  1.00 53.44    -0.048 C 
HETATM    7  C7  8UH R 620     -46.302 144.295  10.223  1.00 56.18     0.009 C 
HETATM    8  C8  8UH R 620     -45.452 143.281  10.391  1.00 54.04     0.007 C 
HETATM    9  C9  8UH R 620     -44.581 142.771   9.325  1.00 57.87    -0.062 C 
HETATM   10  C10 8UH R 620     -43.706 141.834   9.679  1.00 59.37     0.007 C 
HETATM   11  C11 8UH R 620     -42.778 141.186   8.768  1.00 54.77     0.001 C 
HETATM   12  C12 8UH R 620     -42.148 140.160   9.310  1.00 53.15     0.007 C 
HETATM   13  C13 8UH R 620     -41.192 139.322   8.588  1.00 52.91    -0.062 C 
HETATM   14  C14 8UH R 620     -40.778 138.238   9.236  1.00 56.79     0.007 C 
HETATM   15  C15 8UH R 620     -39.864 137.279   8.650  1.00 60.51     0.001 C 
HETATM   16  C16 8UH R 620     -49.574 144.513  10.622  1.00 50.92     0.020 C 
HETATM   17  C17 8UH R 620     -48.288 142.543  11.323  1.00 48.05     0.020 C 
HETATM   18  C18 8UH R 620     -45.462 146.432  11.991  1.00 55.82     0.044 C 
HETATM   19  C19 8UH R 620     -44.675 143.263   7.914  1.00 58.46     0.048 C 
HETATM   20  C20 8UH R 620     -40.731 139.649   7.201  1.00 55.54     0.048 C 
HETATM   21  O3  8UH R 620     -49.910 146.458  13.245  1.00 50.70    -0.395 OA
ATOM     22  H3  8UH R 620     -50.743 146.041  13.432  1.00  0.00     0.210 HD
HETATM   23  C21 8UH R 620     -33.701 126.492   6.736  1.00 27.99    -0.018 C 
HETATM   24  C22 8UH R 620     -33.835 125.874   5.338  1.00 27.99     0.045 C 
HETATM   25  C23 8UH R 620     -33.627 126.837   4.176  1.00 27.99     0.123 C 
HETATM   26  C24 8UH R 620     -32.462 127.749   4.507  1.00 27.99     0.066 C 
HETATM   27  C25 8UH R 620     -32.924 128.587   5.663  1.00 27.99    -0.074 C 
HETATM   28  C26 8UH R 620     -33.376 127.978   6.766  1.00 27.99    -0.048 C 
HETATM   29  C27 8UH R 620     -33.794 128.737   7.967  1.00 27.99     0.009 C 
HETATM   30  C28 8UH R 620     -34.424 129.905   7.782  1.00 27.99     0.007 C 
HETATM   31  C29 8UH R 620     -35.077 130.572   8.930  1.00 46.41    -0.062 C 
HETATM   32  C30 8UH R 620     -36.019 131.430   8.569  1.00 51.67     0.007 C 
HETATM   33  C31 8UH R 620     -36.808 132.228   9.477  1.00 48.57     0.001 C 
HETATM   34  C32 8UH R 620     -37.380 133.239   8.857  1.00 50.80     0.007 C 
HETATM   35  C33 8UH R 620     -38.234 134.197   9.544  1.00 54.69    -0.062 C 
HETATM   36  C34 8UH R 620     -38.750 135.178   8.805  1.00 55.71     0.007 C 
HETATM   37  C35 8UH R 620     -39.629 136.184   9.359  1.00 57.66     0.001 C 
HETATM   38  C36 8UH R 620     -32.488 125.850   7.412  1.00 27.99     0.020 C 
HETATM   39  C37 8UH R 620     -34.968 126.171   7.526  1.00 27.99     0.020 C 
HETATM   40  C38 8UH R 620     -32.190 129.899   5.698  1.00 27.99     0.044 C 
HETATM   41  C39 8UH R 620     -34.718 130.321  10.360  1.00 47.78     0.048 C 
HETATM   42  C40 8UH R 620     -38.483 134.068  11.014  1.00 56.30     0.048 C 
HETATM   43  O23 8UH R 620     -33.363 126.110   2.969  1.00 27.99    -0.395 OA
ATOM     44  H23 8UH R 620     -33.233 126.711   2.245  1.00  0.00     0.210 HD
ENDROOT
TORSDOF 12
BEGIN_RES PHE A  61
REMARK  2 active torsions:
REMARK  status: ('A' for Active; 'I' for Inactive)
REMARK    1  A    between atoms: CA   and  CB  
REMARK    2  A    between atoms: CB   and  CG  
ROOT
ATOM      1  CA  PHE A  61     -36.237 128.293  12.768  1.00 39.40     0.164 C 
ENDROOT
BRANCH   1   2
ATOM      2  CB  PHE A  61     -36.813 128.951  11.509  1.00 39.41     0.058 C 
BRANCH   2   3
ATOM      3  CG  PHE A  61     -37.033 128.003  10.354  1.00 39.01    -0.020 A 
ATOM      4  CD2 PHE A  61     -36.300 126.832  10.246  1.00 40.32    -0.004 A 
ATOM      5  CE2 PHE A  61     -36.501 125.962   9.181  1.00 40.20    -0.000 A 
ATOM      6  CZ  PHE A  61     -37.438 126.252   8.216  1.00 40.34    -0.000 A 
ATOM      7  CE1 PHE A  61     -38.176 127.410   8.311  1.00 41.51    -0.000 A 
ATOM      8  CD1 PHE A  61     -37.971 128.283   9.371  1.00 39.94    -0.004 A 
ENDBRANCH   2   3
ENDBRANCH   1   2
END_RES PHE A  61
BEGIN_RES VAL A 134
REMARK  1 active torsions:
REMARK  status: ('A' for Active; 'I' for Inactive)
REMARK    3  A    between atoms: CA   and  CB  
ROOT
ATOM      9  CA  VAL A 134     -29.766 132.051   9.815  1.00 40.75     0.159 C 
ENDROOT
BRANCH   9  10
ATOM     10  CB  VAL A 134     -30.864 132.765   9.009  1.00 40.76     0.029 C 
ATOM     11  CG1 VAL A 134     -31.181 131.997   7.734  1.00 41.76     0.002 C 
ATOM     12  CG2 VAL A 134     -32.121 132.977   9.839  1.00 40.56     0.002 C 
ENDBRANCH   9  10
END_RES VAL A 134
BEGIN_RES TYR A 338
REMARK  3 active torsions:
REMARK  status: ('A' for Active; 'I' for Inactive)
REMARK    4  A    between atoms: CA   and  CB  
REMARK    5  A    between atoms: CB   and  CG  
REMARK    6  A    between atoms: CZ   and  OH  
ROOT
ATOM     13  CA  TYR A 338     -41.631 124.950   6.058  1.00 38.23     0.164 C 
ENDROOT
BRANCH  13  14
ATOM     14  CB  TYR A 338     -41.621 126.456   6.339  1.00 39.15     0.058 C 
BRANCH  14  15
ATOM     15  CG  TYR A 338     -40.397 127.204   5.864  1.00 39.03    -0.020 A 
ATOM     16  CD2 TYR A 338     -39.409 126.549   5.148  1.00 40.65    -0.002 A 
ATOM     17  CE2 TYR A 338     -38.266 127.200   4.710  1.00 40.91     0.024 A 
ATOM     18  CZ  TYR A 338     -38.091 128.542   4.989  1.00 42.33     0.089 A 
ATOM     19  CE1 TYR A 338     -39.067 129.220   5.698  1.00 40.63     0.024 A 
ATOM     20  CD1 TYR A 338     -40.197 128.548   6.139  1.00 39.27    -0.002 A 
BRANCH  18  21
ATOM     21  OH  TYR A 338     -36.970 129.195   4.558  1.00 43.36    -0.359 OA
ATOM     22  HH  TYR A 338     -36.490 129.765   5.147  1.00  0.00     0.217 HD
ENDBRANCH  18  21
ENDBRANCH  14  15
ENDBRANCH  13  14
END_RES TYR A 338
ENDMDL
MODEL 2
REMARK VINA RESULT:    -9.292      1.484     16.343
REMARK INTER + INTRA:         -12.595
REMARK INTER:                 -11.492
REMARK INTRA:                  -1.103
REMARK UNBOUND:                -3.303
REMARK  0 active torsions:
REMARK  status: ('A' for Active; 'I' for Inactive)
REMARK       I    between atoms: C3_3  and  O3_21 
REMARK       I    between atoms: C6_6  and  C7_7 
REMARK       I    between atoms: C8_8  and  C9_9 
REMARK       I    between atoms: C10_10  and  C11_11 
REMARK       I    between atoms: C12_12  and  C13_13 
REMARK       I    between atoms: C14_14  and  C15_15 
REMARK       I    between atoms: C23_25  and  O23_43 
REMARK       I    between atoms: C26_28  and  C27_29 
REMARK       I    between atoms: C28_30  and  C29_31 
REMARK       I    between atoms: C30_32  and  C31_33 
REMARK       I    between atoms: C32_34  and  C33_35 
REMARK       I    between atoms: C34_36  and  C35_37 
ROOT
HETATM    1  C1  8UH R 620     -34.217 128.554   6.868  1.00 48.79    -0.018 C 
HETATM    2  C2  8UH R 620     -33.482 128.435   5.540  1.00 49.38     0.045 C 
HETATM    3  C3  8UH R 620     -31.956 128.407   5.588  1.00 51.85     0.123 C 
HETATM    4  C4  8UH R 620     -31.363 129.438   6.532  1.00 54.16     0.066 C 
HETATM    5  C5  8UH R 620     -32.230 129.823   7.701  1.00 52.93    -0.074 C 
HETATM    6  C6  8UH R 620     -33.542 129.552   7.794  1.00 53.44    -0.048 C 
HETATM    7  C7  8UH R 620     -34.366 130.217   8.840  1.00 56.18     0.009 C 
HETATM    8  C8  8UH R 620     -35.123 131.283   8.577  1.00 54.04     0.007 C 
HETATM    9  C9  8UH R 620     -35.962 131.948   9.582  1.00 57.87    -0.062 C 
HETATM   10  C10 8UH R 620     -36.565 133.068   9.195  1.00 59.37     0.007 C 
HETATM   11  C11 8UH R 620     -37.454 133.856  10.031  1.00 54.77     0.001 C 
HETATM   12  C12 8UH R 620     -38.080 134.813   9.370  1.00 53.15     0.007 C 
HETATM   13  C13 8UH R 620     -39.054 135.717   9.978  1.00 52.91    -0.062 C 
HETATM   14  C14 8UH R 620     -39.705 136.509   9.133  1.00 56.79     0.007 C 
HETATM   15  C15 8UH R 620     -40.734 137.435   9.562  1.00 60.51     0.001 C 
HETATM   16  C16 8UH R 620     -34.304 127.186   7.528  1.00 50.92     0.020 C 
HETATM   17  C17 8UH R 620     -35.644 129.009   6.574  1.00 48.05     0.020 C 
HETATM   18  C18 8UH R 620     -31.605 130.983   8.406  1.00 55.82     0.044 C 
HETATM   19  C19 8UH R 620     -36.143 131.396  10.961  1.00 58.46     0.048 C 
HETATM   20  C20 8UH R 620     -39.322 135.729  11.451  1.00 55.54     0.048 C 
HETATM   21  O3  8UH R 620     -31.453 127.101   5.902  1.00 50.70    -0.395 OA
ATOM     22  H3  8UH R 620     -31.823 126.456   5.312  1.00  0.00     0.210 HD
HETATM   23  C21 8UH R 620     -50.653 145.137   9.036  1.00 27.99    -0.018 C 
HETATM   24  C22 8UH R 620     -51.827 144.795   9.964  1.00 27.99     0.045 C 
HETATM   25  C23 8UH R 620     -51.449 144.486  11.407  1.00 27.99     0.123 C 
HETATM   26  C24 8UH R 620     -50.379 145.466  11.848  1.00 27.99     0.066 C 
HETATM   27  C25 8UH R 620     -49.170 145.137  11.023  1.00 27.99    -0.074 C 
HETATM   28  C26 8UH R 620     -49.278 145.123   9.688  1.00 27.99    -0.048 C 
HETATM   29  C27 8UH R 620     -48.115 144.865   8.808  1.00 27.99     0.009 C 
HETATM   30  C28 8UH R 620     -47.208 143.967   9.216  1.00 27.99     0.007 C 
HETATM   31  C29 8UH R 620     -46.173 143.494   8.272  1.00 46.41    -0.062 C 
HETATM   32  C30 8UH R 620     -45.649 142.326   8.612  1.00 51.67     0.007 C 
HETATM   33  C31 8UH R 620     -44.614 141.636   7.881  1.00 48.57     0.001 C 
HETATM   34  C32 8UH R 620     -44.031 140.717   8.623  1.00 50.80     0.007 C 
HETATM   35  C33 8UH R 620     -42.954 139.874   8.124  1.00 54.69    -0.062 C 
HETATM   36  C34 8UH R 620     -42.445 138.986   8.975  1.00 55.71     0.007 C 
HETATM   37  C35 8UH R 620     -41.384 138.075   8.603  1.00 57.66     0.001 C 
HETATM   38  C36 8UH R 620     -50.821 146.592   8.594  1.00 27.99     0.020 C 
HETATM   39  C37 8UH R 620     -50.715 144.213   7.822  1.00 27.99     0.020 C 
HETATM   40  C38 8UH R 620     -47.910 145.549  11.734  1.00 27.99     0.044 C 
HETATM   41  C39 8UH R 620     -45.743 144.248   7.054  1.00 47.78     0.048 C 
HETATM   42  C40 8UH R 620     -42.455 140.039   6.724  1.00 56.30     0.048 C 
HETATM   43  O23 8UH R 620     -52.600 144.591  12.255  1.00 27.99    -0.395 OA
ATOM     44  H23 8UH R 620     -52.364 144.398  13.155  1.00  0.00     0.210 HD
ENDROOT
TORSDOF 12
BEGIN_RES PHE A  61
REMARK  2 active torsions:
REMARK  status: ('A' for Active; 'I' for Inactive)
REMARK    1  A    between atoms: CA   and  CB  
REMARK    2  A    between atoms: CB   and  CG  
ROOT
ATOM      1  CA  PHE A  61     -36.237 128.293  12.768  1.00 39.40     0.164 C 
ENDROOT
BRANCH   1   2
ATOM      2  CB  PHE A  61     -36.813 128.951  11.509  1.00 39.41     0.058 C 
BRANCH   2   3
ATOM      3  CG  PHE A  61     -36.967 128.018  10.332  1.00 39.01    -0.020 A 
ATOM      4  CD2 PHE A  61     -36.108 126.944  10.158  1.00 40.32    -0.004 A 
ATOM      5  CE2 PHE A  61     -36.249 126.088   9.073  1.00 40.20    -0.000 A 
ATOM      6  CZ  PHE A  61     -37.251 126.294   8.152  1.00 40.34    -0.000 A 
ATOM      7  CE1 PHE A  61     -38.114 127.355   8.312  1.00 41.51    -0.000 A 
ATOM      8  CD1 PHE A  61     -37.969 128.215   9.393  1.00 39.94    -0.004 A 
ENDBRANCH   2   3
ENDBRANCH   1   2
END_RES PHE A  61
BEGIN_RES VAL A 134
REMARK  1 active torsions:
REMARK  status: ('A' for Active; 'I' for Inactive)
REMARK    3  A    between atoms: CA   and  CB  
ROOT
ATOM      9  CA  VAL A 134     -29.766 132.051   9.815  1.00 40.75     0.159 C 
ENDROOT
BRANCH   9  10
ATOM     10  CB  VAL A 134     -30.864 132.765   9.009  1.00 40.76     0.029 C 
ATOM     11  CG1 VAL A 134     -32.081 133.036   9.881  1.00 41.76     0.002 C 
ATOM     12  CG2 VAL A 134     -30.352 134.052   8.381  1.00 40.56     0.002 C 
ENDBRANCH   9  10
END_RES VAL A 134
BEGIN_RES TYR A 338
REMARK  3 active torsions:
REMARK  status: ('A' for Active; 'I' for Inactive)
REMARK    4  A    between atoms: CA   and  CB  
REMARK    5  A    between atoms: CB   and  CG  
REMARK    6  A    between atoms: CZ   and  OH  
ROOT
ATOM     13  CA  TYR A 338     -41.631 124.950   6.058  1.00 38.23     0.164 C 
ENDROOT
BRANCH  13  14
ATOM     14  CB  TYR A 338     -41.621 126.456   6.339  1.00 39.15     0.058 C 
BRANCH  14  15
ATOM     15  CG  TYR A 338     -40.420 127.212   5.819  1.00 39.03    -0.020 A 
ATOM     16  CD2 TYR A 338     -40.271 128.562   6.089  1.00 40.65    -0.002 A 
ATOM     17  CE2 TYR A 338     -39.191 129.290   5.616  1.00 40.91     0.024 A 
ATOM     18  CZ  TYR A 338     -38.226 128.666   4.848  1.00 42.33     0.089 A 
ATOM     19  CE1 TYR A 338     -38.350 127.316   4.569  1.00 40.63     0.024 A 
ATOM     20  CD1 TYR A 338     -39.445 126.609   5.041  1.00 39.27    -0.002 A 
BRANCH  18  21
ATOM     21  OH  TYR A 338     -37.154 129.373   4.380  1.00 43.36    -0.359 OA
ATOM     22  HH  TYR A 338     -37.101 130.312   4.517  1.00  0.00     0.217 HD
ENDBRANCH  18  21
ENDBRANCH  14  15
ENDBRANCH  13  14
END_RES TYR A 338
ENDMDL
