MODEL 1
REMARK VINA RESULT:   -12.258      0.000      0.000
REMARK INTER + INTRA:         -15.256
REMARK INTER:                 -12.258
REMARK INTRA:                  -2.997
REMARK UNBOUND:                -2.997
REMARK  0 active torsions:
REMARK  status: ('A' for Active; 'I' for Inactive)
REMARK       I    between atoms: C3_3  and  O3_21 
REMARK       I    between atoms: C6_6  and  C7_7 
REMARK       I    between atoms: C8_8  and  C9_9 
REMARK       I    between atoms: C10_10  and  C11_11 
REMARK       I    between atoms: C12_12  and  C13_13 
REMARK       I    between atoms: C14_14  and  C15_15 
REMARK       I    between atoms: C23_25  and  O23_43 
REMARK       I    between atoms: C26_28  and  C27_29 
REMARK       I    between atoms: C28_30  and  C29_31 
REMARK       I    between atoms: C30_32  and  C31_33 
REMARK       I    between atoms: C32_34  and  C33_35 
REMARK       I    between atoms: C34_36  and  C35_37 
ROOT
HETATM    1  C1  8UH 71620     -50.108 144.548   8.944  1.00 70.34    -0.018 C 
HETATM    2  C2  8UH 71620     -50.939 144.917  10.156  1.00 70.34     0.045 C 
HETATM    3  C3  8UH 71620     -51.074 146.399  10.459  1.00 70.34     0.123 C 
HETATM    4  C4  8UH 71620     -49.758 147.146  10.339  1.00 70.34     0.066 C 
HETATM    5  C5  8UH 71620     -48.753 146.596   9.370  1.00 70.34    -0.074 C 
HETATM    6  C6  8UH 71620     -48.863 145.394   8.798  1.00 70.34    -0.048 C 
HETATM    7  C7  8UH 71620     -47.770 144.855   7.954  1.00 70.34     0.009 C 
HETATM    8  C8  8UH 71620     -46.822 144.055   8.430  1.00 70.34     0.007 C 
HETATM    9  C9  8UH 71620     -45.766 143.512   7.578  1.00 70.34    -0.062 C 
HETATM   10  C10 8UH 71620     -44.866 142.750   8.190  1.00 70.34     0.007 C 
HETATM   11  C11 8UH 71620     -43.754 142.088   7.543  1.00 70.34     0.001 C 
HETATM   12  C12 8UH 71620     -43.285 141.085   8.266  1.00 70.34     0.007 C 
HETATM   13  C13 8UH 71620     -42.175 140.224   7.858  1.00 70.34    -0.062 C 
HETATM   14  C14 8UH 71620     -41.861 139.231   8.681  1.00 70.34     0.007 C 
HETATM   15  C15 8UH 71620     -40.797 138.294   8.387  1.00 70.34     0.001 C 
HETATM   16  C16 8UH 71620     -50.985 144.633   7.704  1.00 70.34     0.020 C 
HETATM   17  C17 8UH 71620     -49.666 143.105   9.148  1.00 70.34     0.020 C 
HETATM   18  C18 8UH 71620     -47.466 147.369   9.358  1.00 70.34     0.044 C 
HETATM   19  C19 8UH 71620     -45.738 143.798   6.112  1.00 70.34     0.048 C 
HETATM   20  C20 8UH 71620     -41.437 140.447   6.575  1.00 70.34     0.048 C 
HETATM   21  O3  8UH 71620     -52.065 147.014   9.633  1.00 70.34    -0.395 OA
ATOM     22  H3  8UH 71620     -52.150 147.941   9.822  1.00  0.00     0.210 HD
HETATM   23  C21 8UH 71620     -33.716 129.340   7.029  1.00 32.37    -0.022 C 
HETATM   24  C22 8UH 71620     -32.945 130.139   5.989  1.00 32.37     0.045 C 
HETATM   25  C23 8UH 71620     -32.114 131.270   6.554  1.00 32.37     0.119 C 
HETATM   26  C24 8UH 71620     -31.190 130.670   7.591  1.00 32.37     0.040 C 
HETATM   27  C25 8UH 71620     -32.009 130.047   8.692  1.00 32.37     0.013 C 
HETATM   28  C26 8UH 71620     -33.276 129.693   8.450  1.00 32.37    -0.068 C 
HETATM   29  C27 8UH 71620     -34.325 129.943   9.446  1.00 32.37     0.004 C 
HETATM   30  C28 8UH 71620     -34.890 131.123   9.156  1.00 32.37     0.007 C 
HETATM   31  C29 8UH 71620     -35.937 131.728   9.980  1.00 70.34    -0.062 C 
HETATM   32  C30 8UH 71620     -36.552 132.784   9.459  1.00 70.34     0.007 C 
HETATM   33  C31 8UH 71620     -37.619 133.518  10.112  1.00 70.34     0.001 C 
HETATM   34  C32 8UH 71620     -38.073 134.523   9.381  1.00 70.34     0.007 C 
HETATM   35  C33 8UH 71620     -39.145 135.421   9.804  1.00 70.34    -0.062 C 
HETATM   36  C34 8UH 71620     -39.537 136.346   8.930  1.00 70.34     0.007 C 
HETATM   37  C35 8UH 71620     -40.593 137.292   9.231  1.00 70.34     0.001 C 
HETATM   38  C36 8UH 71620     -33.554 127.879   6.611  1.00 32.37     0.019 C 
HETATM   39  C37 8UH 71620     -35.183 129.736   6.878  1.00 32.37     0.019 C 
HETATM   40  C38 8UH 71620     -31.609 130.952   9.828  1.00 32.37     0.015 C 
HETATM   41  C39 8UH 71620     -36.294 131.179  11.328  1.00 70.34     0.048 C 
HETATM   42  C40 8UH 71620     -39.761 135.302  11.160  1.00 70.34     0.048 C 
HETATM   43  O23 8UH 71620     -31.353 131.816   5.470  1.00 32.37    -0.396 OA
ATOM     44  H23 8UH 71620     -31.934 132.192   4.819  1.00  0.00     0.210 HD
ENDROOT
TORSDOF 12
BEGIN_RES PHE A  61
REMARK  2 active torsions:
REMARK  status: ('A' for Active; 'I' for Inactive)
REMARK    1  A    between atoms: CA   and  CB  
REMARK    2  A    between atoms: CB   and  CG  
ROOT
ATOM      1  CA  PHE A  61     -36.237 128.293  12.768  1.00 39.40     0.164 C 
ENDROOT
BRANCH   1   2
ATOM      2  CB  PHE A  61     -36.813 128.951  11.509  1.00 39.41     0.058 C 
BRANCH   2   3
ATOM      3  CG  PHE A  61     -36.731 128.098  10.266  1.00 39.01    -0.020 A 
ATOM      4  CD2 PHE A  61     -37.727 128.145   9.304  1.00 40.32    -0.004 A 
ATOM      5  CE2 PHE A  61     -37.652 127.357   8.162  1.00 40.20    -0.000 A 
ATOM      6  CZ  PHE A  61     -36.579 126.517   7.968  1.00 40.34    -0.000 A 
ATOM      7  CE1 PHE A  61     -35.579 126.461   8.913  1.00 41.51    -0.000 A 
ATOM      8  CD1 PHE A  61     -35.657 127.243  10.058  1.00 39.94    -0.004 A 
ENDBRANCH   2   3
ENDBRANCH   1   2
END_RES PHE A  61
BEGIN_RES VAL A 134
REMARK  1 active torsions:
REMARK  status: ('A' for Active; 'I' for Inactive)
REMARK    3  A    between atoms: CA   and  CB  
ROOT
ATOM      9  CA  VAL A 134     -29.766 132.051   9.815  1.00 40.75     0.159 C 
ENDROOT
BRANCH   9  10
ATOM     10  CB  VAL A 134     -30.864 132.765   9.009  1.00 40.76     0.029 C 
ATOM     11  CG1 VAL A 134     -31.974 133.254   9.928  1.00 41.76     0.002 C 
ATOM     12  CG2 VAL A 134     -30.300 133.913   8.186  1.00 40.56     0.002 C 
ENDBRANCH   9  10
END_RES VAL A 134
BEGIN_RES TYR A 338
REMARK  3 active torsions:
REMARK  status: ('A' for Active; 'I' for Inactive)
REMARK    4  A    between atoms: CA   and  CB  
REMARK    5  A    between atoms: CB   and  CG  
REMARK    6  A    between atoms: CZ   and  OH  
ROOT
ATOM     13  CA  TYR A 338     -41.631 124.950   6.058  1.00 38.23     0.164 C 
ENDROOT
BRANCH  13  14
ATOM     14  CB  TYR A 338     -41.621 126.456   6.339  1.00 39.15     0.058 C 
BRANCH  14  15
ATOM     15  CG  TYR A 338     -40.399 127.205   5.859  1.00 39.03    -0.020 A 
ATOM     16  CD2 TYR A 338     -40.229 128.543   6.172  1.00 40.65    -0.002 A 
ATOM     17  CE2 TYR A 338     -39.129 129.265   5.736  1.00 40.91     0.024 A 
ATOM     18  CZ  TYR A 338     -38.164 128.645   4.964  1.00 42.33     0.089 A 
ATOM     19  CE1 TYR A 338     -38.309 127.307   4.642  1.00 40.63     0.024 A 
ATOM     20  CD1 TYR A 338     -39.423 126.606   5.077  1.00 39.27    -0.002 A 
BRANCH  18  21
ATOM     21  OH  TYR A 338     -37.073 129.346   4.532  1.00 43.36    -0.359 OA
ATOM     22  HH  TYR A 338     -36.444 129.688   5.156  1.00  0.00     0.217 HD
ENDBRANCH  18  21
ENDBRANCH  14  15
ENDBRANCH  13  14
END_RES TYR A 338
ENDMDL
