MODEL 1
REMARK VINA RESULT:    -9.469      0.000      0.000
REMARK INTER + INTRA:          -9.715
REMARK INTER:                  -9.469
REMARK INTRA:                  -0.246
REMARK UNBOUND:                -0.246
REMARK  0 active torsions:
REMARK  status: ('A' for Active; 'I' for Inactive)
REMARK       I    between atoms: C3_3  and  O3_21 
REMARK       I    between atoms: C6_6  and  C7_7 
REMARK       I    between atoms: C8_8  and  C9_9 
REMARK       I    between atoms: C10_10  and  C11_11 
REMARK       I    between atoms: C12_12  and  C13_13 
REMARK       I    between atoms: C14_14  and  C15_15 
REMARK       I    between atoms: C23_25  and  O23_43 
REMARK       I    between atoms: C26_28  and  C27_29 
REMARK       I    between atoms: C28_30  and  C29_31 
REMARK       I    between atoms: C30_32  and  C31_33 
REMARK       I    between atoms: C32_34  and  C33_35 
REMARK       I    between atoms: C34_36  and  C35_37 
ROOT
HETATM    1  C1  8UH 5 620     -50.337 144.082  10.775  1.00 42.32    -0.018 C 
HETATM    2  C2  8UH 5 620     -50.033 143.405  12.108  1.00 42.32     0.045 C 
HETATM    3  C3  8UH 5 620     -49.062 144.166  13.004  1.00 42.32     0.123 C 
HETATM    4  C4  8UH 5 620     -49.255 145.662  12.841  1.00 42.32     0.066 C 
HETATM    5  C5  8UH 5 620     -48.975 146.023  11.407  1.00 42.32    -0.074 C 
HETATM    6  C6  8UH 5 620     -49.340 145.169  10.452  1.00 42.32    -0.048 C 
HETATM    7  C7  8UH 5 620     -48.521 144.989   9.249  1.00 42.32     0.009 C 
HETATM    8  C8  8UH 5 620     -47.496 144.203   9.612  1.00 42.32     0.007 C 
HETATM    9  C9  8UH 5 620     -46.448 143.730   8.672  1.00 42.32    -0.062 C 
HETATM   10  C10 8UH 5 620     -45.539 142.855   9.150  1.00 42.32     0.007 C 
HETATM   11  C11 8UH 5 620     -44.484 142.242   8.341  1.00 42.32     0.001 C 
HETATM   12  C12 8UH 5 620     -43.728 141.291   8.873  1.00 42.32     0.007 C 
HETATM   13  C13 8UH 5 620     -42.712 140.579   8.078  1.00 42.32    -0.062 C 
HETATM   14  C14 8UH 5 620     -42.154 139.516   8.673  1.00 42.32     0.007 C 
HETATM   15  C15 8UH 5 620     -41.171 138.613   8.087  1.00 42.32     0.001 C 
HETATM   16  C16 8UH 5 620     -51.744 144.660  10.838  1.00 42.32     0.020 C 
HETATM   17  C17 8UH 5 620     -50.260 143.048   9.660  1.00 42.32     0.020 C 
HETATM   18  C18 8UH 5 620     -47.774 146.919  11.313  1.00 42.32     0.044 C 
HETATM   19  C19 8UH 5 620     -46.429 144.207   7.245  1.00 42.32     0.048 C 
HETATM   20  C20 8UH 5 620     -42.395 141.011   6.677  1.00 42.32     0.048 C 
HETATM   21  O3  8UH 5 620     -49.307 143.820  14.371  1.00 42.32    -0.395 OA
ATOM     22  H3  8UH 5 620     -49.186 142.884  14.473  1.00  0.00     0.210 HD
HETATM   23  C21 8UH 5 620     -34.149 128.273   7.072  1.00 16.14    -0.018 C 
HETATM   24  C22 8UH 5 620     -33.219 127.708   6.000  1.00 16.14     0.045 C 
HETATM   25  C23 8UH 5 620     -31.976 128.520   5.680  1.00 16.14     0.123 C 
HETATM   26  C24 8UH 5 620     -31.348 129.046   6.948  1.00 16.14     0.066 C 
HETATM   27  C25 8UH 5 620     -32.356 129.914   7.639  1.00 16.14    -0.074 C 
HETATM   28  C26 8UH 5 620     -33.615 129.492   7.803  1.00 16.14    -0.048 C 
HETATM   29  C27 8UH 5 620     -34.504 130.210   8.746  1.00 16.14     0.009 C 
HETATM   30  C28 8UH 5 620     -35.208 131.296   8.415  1.00 16.14     0.007 C 
HETATM   31  C29 8UH 5 620     -36.069 131.977   9.396  1.00 42.32    -0.062 C 
HETATM   32  C30 8UH 5 620     -36.809 132.944   8.843  1.00 42.32     0.007 C 
HETATM   33  C31 8UH 5 620     -37.784 133.778   9.524  1.00 42.32     0.001 C 
HETATM   34  C32 8UH 5 620     -38.391 134.683   8.767  1.00 42.32     0.007 C 
HETATM   35  C33 8UH 5 620     -39.390 135.623   9.285  1.00 42.32    -0.062 C 
HETATM   36  C34 8UH 5 620     -39.822 136.599   8.459  1.00 42.32     0.007 C 
HETATM   37  C35 8UH 5 620     -40.793 137.608   8.868  1.00 42.32     0.001 C 
HETATM   38  C36 8UH 5 620     -34.461 127.136   8.039  1.00 16.14     0.020 C 
HETATM   39  C37 8UH 5 620     -35.444 128.703   6.401  1.00 16.14     0.020 C 
HETATM   40  C38 8UH 5 620     -31.705 130.907   8.557  1.00 16.14     0.044 C 
HETATM   41  C39 8UH 5 620     -36.149 131.540  10.829  1.00 42.32     0.048 C 
HETATM   42  C40 8UH 5 620     -39.851 135.432  10.698  1.00 42.32     0.048 C 
HETATM   43  O23 8UH 5 620     -31.027 127.688   5.012  1.00 16.14    -0.395 OA
ATOM     44  H23 8UH 5 620     -30.249 128.197   4.812  1.00  0.00     0.210 HD
ENDROOT
TORSDOF 12
BEGIN_RES PHE A  61
REMARK  2 active torsions:
REMARK  status: ('A' for Active; 'I' for Inactive)
REMARK    1  A    between atoms: CA   and  CB  
REMARK    2  A    between atoms: CB   and  CG  
ROOT
ATOM      1  CA  PHE A  61     -36.237 128.293  12.768  1.00 39.40     0.164 C 
ENDROOT
BRANCH   1   2
ATOM      2  CB  PHE A  61     -36.813 128.951  11.509  1.00 39.41     0.058 C 
BRANCH   2   3
ATOM      3  CG  PHE A  61     -37.027 128.004  10.352  1.00 39.01    -0.020 A 
ATOM      4  CD2 PHE A  61     -36.302 126.827  10.253  1.00 40.32    -0.004 A 
ATOM      5  CE2 PHE A  61     -36.498 125.958   9.186  1.00 40.20    -0.000 A 
ATOM      6  CZ  PHE A  61     -37.421 126.255   8.210  1.00 40.34    -0.000 A 
ATOM      7  CE1 PHE A  61     -38.151 127.420   8.296  1.00 41.51    -0.000 A 
ATOM      8  CD1 PHE A  61     -37.951 128.292   9.358  1.00 39.94    -0.004 A 
ENDBRANCH   2   3
ENDBRANCH   1   2
END_RES PHE A  61
BEGIN_RES VAL A 134
REMARK  1 active torsions:
REMARK  status: ('A' for Active; 'I' for Inactive)
REMARK    3  A    between atoms: CA   and  CB  
ROOT
ATOM      9  CA  VAL A 134     -29.766 132.051   9.815  1.00 40.75     0.159 C 
ENDROOT
BRANCH   9  10
ATOM     10  CB  VAL A 134     -30.864 132.765   9.009  1.00 40.76     0.029 C 
ATOM     11  CG1 VAL A 134     -32.090 133.016   9.875  1.00 41.76     0.002 C 
ATOM     12  CG2 VAL A 134     -30.358 134.063   8.399  1.00 40.56     0.002 C 
ENDBRANCH   9  10
END_RES VAL A 134
BEGIN_RES TYR A 338
REMARK  3 active torsions:
REMARK  status: ('A' for Active; 'I' for Inactive)
REMARK    4  A    between atoms: CA   and  CB  
REMARK    5  A    between atoms: CB   and  CG  
REMARK    6  A    between atoms: CZ   and  OH  
ROOT
ATOM     13  CA  TYR A 338     -41.631 124.950   6.058  1.00 38.23     0.164 C 
ENDROOT
BRANCH  13  14
ATOM     14  CB  TYR A 338     -41.621 126.456   6.339  1.00 39.15     0.058 C 
BRANCH  14  15
ATOM     15  CG  TYR A 338     -40.421 127.213   5.819  1.00 39.03    -0.020 A 
ATOM     16  CD2 TYR A 338     -40.263 128.558   6.103  1.00 40.65    -0.002 A 
ATOM     17  CE2 TYR A 338     -39.183 129.287   5.629  1.00 40.91     0.024 A 
ATOM     18  CZ  TYR A 338     -38.227 128.667   4.847  1.00 42.33     0.089 A 
ATOM     19  CE1 TYR A 338     -38.360 127.321   4.553  1.00 40.63     0.024 A 
ATOM     20  CD1 TYR A 338     -39.454 126.613   5.026  1.00 39.27    -0.002 A 
BRANCH  18  21
ATOM     21  OH  TYR A 338     -37.155 129.374   4.378  1.00 43.36    -0.359 OA
ATOM     22  HH  TYR A 338     -37.007 130.268   4.665  1.00  0.00     0.217 HD
ENDBRANCH  18  21
ENDBRANCH  14  15
ENDBRANCH  13  14
END_RES TYR A 338
ENDMDL
MODEL 2
REMARK VINA RESULT:    -9.126      1.537     16.112
REMARK INTER + INTRA:          -9.372
REMARK INTER:                  -6.499
REMARK INTRA:                  -2.873
REMARK UNBOUND:                -0.246
REMARK  0 active torsions:
REMARK  status: ('A' for Active; 'I' for Inactive)
REMARK       I    between atoms: C3_3  and  O3_21 
REMARK       I    between atoms: C6_6  and  C7_7 
REMARK       I    between atoms: C8_8  and  C9_9 
REMARK       I    between atoms: C10_10  and  C11_11 
REMARK       I    between atoms: C12_12  and  C13_13 
REMARK       I    between atoms: C14_14  and  C15_15 
REMARK       I    between atoms: C23_25  and  O23_43 
REMARK       I    between atoms: C26_28  and  C27_29 
REMARK       I    between atoms: C28_30  and  C29_31 
REMARK       I    between atoms: C30_32  and  C31_33 
REMARK       I    between atoms: C32_34  and  C33_35 
REMARK       I    between atoms: C34_36  and  C35_37 
ROOT
HETATM    1  C1  8UH 5 620     -33.498 129.265   6.882  1.00 42.32    -0.018 C 
HETATM    2  C2  8UH 5 620     -33.220 130.333   5.829  1.00 42.32     0.045 C 
HETATM    3  C3  8UH 5 620     -32.210 131.395   6.248  1.00 42.32     0.123 C 
HETATM    4  C4  8UH 5 620     -31.142 130.787   7.137  1.00 42.32     0.066 C 
HETATM    5  C5  8UH 5 620     -31.806 130.238   8.370  1.00 42.32    -0.074 C 
HETATM    6  C6  8UH 5 620     -33.009 129.677   8.250  1.00 42.32    -0.048 C 
HETATM    7  C7  8UH 5 620     -34.018 129.825   9.304  1.00 42.32     0.009 C 
HETATM    8  C8  8UH 5 620     -34.534 131.055   9.154  1.00 42.32     0.007 C 
HETATM    9  C9  8UH 5 620     -35.633 131.594   9.994  1.00 42.32    -0.062 C 
HETATM   10  C10 8UH 5 620     -36.129 132.804   9.660  1.00 42.32     0.007 C 
HETATM   11  C11 8UH 5 620     -37.254 133.448  10.340  1.00 42.32     0.001 C 
HETATM   12  C12 8UH 5 620     -37.753 134.574   9.847  1.00 42.32     0.007 C 
HETATM   13  C13 8UH 5 620     -38.938 135.216  10.440  1.00 42.32    -0.062 C 
HETATM   14  C14 8UH 5 620     -39.456 136.234   9.739  1.00 42.32     0.007 C 
HETATM   15  C15 8UH 5 620     -40.652 136.996  10.073  1.00 42.32     0.001 C 
HETATM   16  C16 8UH 5 620     -32.820 127.972   6.449  1.00 42.32     0.020 C 
HETATM   17  C17 8UH 5 620     -35.000 129.042   6.984  1.00 42.32     0.020 C 
HETATM   18  C18 8UH 5 620     -31.348 130.980   9.592  1.00 42.32     0.044 C 
HETATM   19  C19 8UH 5 620     -36.169 130.801  11.155  1.00 42.32     0.048 C 
HETATM   20  C20 8UH 5 620     -39.534 134.695  11.715  1.00 42.32     0.048 C 
HETATM   21  O3  8UH 5 620     -31.580 131.938   5.083  1.00 42.32    -0.395 OA
ATOM     22  H3  8UH 5 620     -32.249 132.319   4.527  1.00  0.00     0.210 HD
HETATM   23  C21 8UH 5 620     -50.180 144.936   8.220  1.00 16.14    -0.018 C 
HETATM   24  C22 8UH 5 620     -51.416 145.335   9.023  1.00 16.14     0.045 C 
HETATM   25  C23 8UH 5 620     -51.170 146.024  10.354  1.00 16.14     0.123 C 
HETATM   26  C24 8UH 5 620     -50.058 147.037  10.228  1.00 16.14     0.066 C 
HETATM   27  C25 8UH 5 620     -48.819 146.314   9.795  1.00 16.14    -0.074 C 
HETATM   28  C26 8UH 5 620     -48.862 145.440   8.783  1.00 16.14    -0.048 C 
HETATM   29  C27 8UH 5 620     -47.596 144.975   8.170  1.00 16.14     0.009 C 
HETATM   30  C28 8UH 5 620     -46.875 143.957   8.649  1.00 16.14     0.007 C 
HETATM   31  C29 8UH 5 620     -45.617 143.542   8.006  1.00 42.32    -0.062 C 
HETATM   32  C30 8UH 5 620     -45.122 142.416   8.529  1.00 42.32     0.007 C 
HETATM   33  C31 8UH 5 620     -43.919 141.724   8.100  1.00 42.32     0.001 C 
HETATM   34  C32 8UH 5 620     -43.618 140.624   8.780  1.00 42.32     0.007 C 
HETATM   35  C33 8UH 5 620     -42.434 139.806   8.500  1.00 42.32    -0.062 C 
HETATM   36  C34 8UH 5 620     -42.147 138.803   9.357  1.00 42.32     0.007 C 
HETATM   37  C35 8UH 5 620     -40.982 137.939   9.199  1.00 42.32     0.001 C 
HETATM   38  C36 8UH 5 620     -50.398 145.423   6.791  1.00 16.14     0.020 C 
HETATM   39  C37 8UH 5 620     -50.092 143.418   8.204  1.00 16.14     0.020 C 
HETATM   40  C38 8UH 5 620     -47.573 147.060  10.172  1.00 16.14     0.044 C 
HETATM   41  C39 8UH 5 620     -45.038 144.278   6.834  1.00 42.32     0.048 C 
HETATM   42  C40 8UH 5 620     -41.627 140.152   7.286  1.00 42.32     0.048 C 
HETATM   43  O23 8UH 5 620     -52.359 146.701  10.764  1.00 16.14    -0.395 OA
ATOM     44  H23 8UH 5 620     -52.205 147.131  11.597  1.00  0.00     0.210 HD
ENDROOT
TORSDOF 12
BEGIN_RES PHE A  61
REMARK  2 active torsions:
REMARK  status: ('A' for Active; 'I' for Inactive)
REMARK    1  A    between atoms: CA   and  CB  
REMARK    2  A    between atoms: CB   and  CG  
ROOT
ATOM      1  CA  PHE A  61     -36.237 128.293  12.768  1.00 39.40     0.164 C 
ENDROOT
BRANCH   1   2
ATOM      2  CB  PHE A  61     -36.813 128.951  11.509  1.00 39.41     0.058 C 
BRANCH   2   3
ATOM      3  CG  PHE A  61     -36.768 128.083  10.275  1.00 39.01    -0.020 A 
ATOM      4  CD2 PHE A  61     -37.812 128.086   9.363  1.00 40.32    -0.004 A 
ATOM      5  CE2 PHE A  61     -37.770 127.284   8.229  1.00 40.20    -0.000 A 
ATOM      6  CZ  PHE A  61     -36.683 126.473   7.993  1.00 40.34    -0.000 A 
ATOM      7  CE1 PHE A  61     -35.637 126.460   8.888  1.00 41.51    -0.000 A 
ATOM      8  CD1 PHE A  61     -35.681 127.257  10.025  1.00 39.94    -0.004 A 
ENDBRANCH   2   3
ENDBRANCH   1   2
END_RES PHE A  61
BEGIN_RES VAL A 134
REMARK  1 active torsions:
REMARK  status: ('A' for Active; 'I' for Inactive)
REMARK    3  A    between atoms: CA   and  CB  
ROOT
ATOM      9  CA  VAL A 134     -29.766 132.051   9.815  1.00 40.75     0.159 C 
ENDROOT
BRANCH   9  10
ATOM     10  CB  VAL A 134     -30.864 132.765   9.009  1.00 40.76     0.029 C 
ATOM     11  CG1 VAL A 134     -31.973 133.256   9.928  1.00 41.76     0.002 C 
ATOM     12  CG2 VAL A 134     -30.299 133.911   8.183  1.00 40.56     0.002 C 
ENDBRANCH   9  10
END_RES VAL A 134
BEGIN_RES TYR A 338
REMARK  3 active torsions:
REMARK  status: ('A' for Active; 'I' for Inactive)
REMARK    4  A    between atoms: CA   and  CB  
REMARK    5  A    between atoms: CB   and  CG  
REMARK    6  A    between atoms: CZ   and  OH  
ROOT
ATOM     13  CA  TYR A 338     -41.631 124.950   6.058  1.00 38.23     0.164 C 
ENDROOT
BRANCH  13  14
ATOM     14  CB  TYR A 338     -41.621 126.456   6.339  1.00 39.15     0.058 C 
BRANCH  14  15
ATOM     15  CG  TYR A 338     -40.395 127.204   5.866  1.00 39.03    -0.020 A 
ATOM     16  CD2 TYR A 338     -40.224 128.540   6.184  1.00 40.65    -0.002 A 
ATOM     17  CE2 TYR A 338     -39.120 129.261   5.754  1.00 40.91     0.024 A 
ATOM     18  CZ  TYR A 338     -38.154 128.641   4.983  1.00 42.33     0.089 A 
ATOM     19  CE1 TYR A 338     -38.301 127.305   4.657  1.00 40.63     0.024 A 
ATOM     20  CD1 TYR A 338     -39.418 126.605   5.086  1.00 39.27    -0.002 A 
BRANCH  18  21
ATOM     21  OH  TYR A 338     -37.060 129.341   4.557  1.00 43.36    -0.359 OA
ATOM     22  HH  TYR A 338     -36.194 129.122   4.881  1.00  0.00     0.217 HD
ENDBRANCH  18  21
ENDBRANCH  14  15
ENDBRANCH  13  14
END_RES TYR A 338
ENDMDL
MODEL 3
REMARK VINA RESULT:    -8.153      1.305     16.148
REMARK INTER + INTRA:          -8.399
REMARK INTER:                  -6.015
REMARK INTRA:                  -2.384
REMARK UNBOUND:                -0.246
REMARK  0 active torsions:
REMARK  status: ('A' for Active; 'I' for Inactive)
REMARK       I    between atoms: C3_3  and  O3_21 
REMARK       I    between atoms: C6_6  and  C7_7 
REMARK       I    between atoms: C8_8  and  C9_9 
REMARK       I    between atoms: C10_10  and  C11_11 
REMARK       I    between atoms: C12_12  and  C13_13 
REMARK       I    between atoms: C14_14  and  C15_15 
REMARK       I    between atoms: C23_25  and  O23_43 
REMARK       I    between atoms: C26_28  and  C27_29 
REMARK       I    between atoms: C28_30  and  C29_31 
REMARK       I    between atoms: C30_32  and  C31_33 
REMARK       I    between atoms: C32_34  and  C33_35 
REMARK       I    between atoms: C34_36  and  C35_37 
ROOT
HETATM    1  C1  8UH 5 620     -34.283 127.282   6.539  1.00 42.32    -0.018 C 
HETATM    2  C2  8UH 5 620     -34.473 127.940   5.176  1.00 42.32     0.045 C 
HETATM    3  C3  8UH 5 620     -33.400 128.956   4.801  1.00 42.32     0.123 C 
HETATM    4  C4  8UH 5 620     -32.053 128.528   5.351  1.00 42.32     0.066 C 
HETATM    5  C5  8UH 5 620     -32.152 128.460   6.851  1.00 42.32    -0.074 C 
HETATM    6  C6  8UH 5 620     -33.290 128.032   7.396  1.00 42.32    -0.048 C 
HETATM    7  C7  8UH 5 620     -33.789 128.608   8.648  1.00 42.32     0.009 C 
HETATM    8  C8  8UH 5 620     -34.345 129.785   8.320  1.00 42.32     0.007 C 
HETATM    9  C9  8UH 5 620     -35.020 130.677   9.296  1.00 42.32    -0.062 C 
HETATM   10  C10 8UH 5 620     -35.631 131.777   8.808  1.00 42.32     0.007 C 
HETATM   11  C11 8UH 5 620     -36.396 132.721   9.622  1.00 42.32     0.001 C 
HETATM   12  C12 8UH 5 620     -37.073 133.694   9.026  1.00 42.32     0.007 C 
HETATM   13  C13 8UH 5 620     -37.929 134.618   9.789  1.00 42.32    -0.062 C 
HETATM   14  C14 8UH 5 620     -38.705 135.427   9.054  1.00 42.32     0.007 C 
HETATM   15  C15 8UH 5 620     -39.677 136.388   9.559  1.00 42.32     0.001 C 
HETATM   16  C16 8UH 5 620     -33.813 125.851   6.321  1.00 42.32     0.020 C 
HETATM   17  C17 8UH 5 620     -35.611 127.275   7.282  1.00 42.32     0.020 C 
HETATM   18  C18 8UH 5 620     -31.253 129.480   7.486  1.00 42.32     0.044 C 
HETATM   19  C19 8UH 5 620     -35.027 130.341  10.763  1.00 42.32     0.048 C 
HETATM   20  C20 8UH 5 620     -37.949 134.582  11.289  1.00 42.32     0.048 C 
HETATM   21  O3  8UH 5 620     -33.305 129.043   3.375  1.00 42.32    -0.395 OA
ATOM     22  H3  8UH 5 620     -34.149 129.311   3.032  1.00  0.00     0.210 HD
HETATM   23  C21 8UH 5 620     -49.287 144.431   9.081  1.00 16.14    -0.018 C 
HETATM   24  C22 8UH 5 620     -50.100 145.195  10.125  1.00 16.14     0.045 C 
HETATM   25  C23 8UH 5 620     -49.349 146.222  10.954  1.00 16.14     0.123 C 
HETATM   26  C24 8UH 5 620     -48.403 147.014  10.085  1.00 16.14     0.066 C 
HETATM   27  C25 8UH 5 620     -47.431 146.056   9.466  1.00 16.14    -0.074 C 
HETATM   28  C26 8UH 5 620     -47.864 144.926   8.893  1.00 16.14    -0.048 C 
HETATM   29  C27 8UH 5 620     -46.945 144.155   8.024  1.00 16.14     0.009 C 
HETATM   30  C28 8UH 5 620     -46.073 143.254   8.488  1.00 16.14     0.007 C 
HETATM   31  C29 8UH 5 620     -45.175 142.522   7.579  1.00 42.32    -0.062 C 
HETATM   32  C30 8UH 5 620     -44.490 141.559   8.204  1.00 42.32     0.007 C 
HETATM   33  C31 8UH 5 620     -43.551 140.635   7.591  1.00 42.32     0.001 C 
HETATM   34  C32 8UH 5 620     -42.981 139.767   8.417  1.00 42.32     0.007 C 
HETATM   35  C33 8UH 5 620     -41.995 138.773   7.982  1.00 42.32    -0.062 C 
HETATM   36  C34 8UH 5 620     -41.368 138.051   8.935  1.00 42.32     0.007 C 
HETATM   37  C35 8UH 5 620     -40.351 137.052   8.628  1.00 42.32     0.001 C 
HETATM   38  C36 8UH 5 620     -50.073 144.483   7.775  1.00 16.14     0.020 C 
HETATM   39  C37 8UH 5 620     -49.185 142.980   9.526  1.00 16.14     0.020 C 
HETATM   40  C38 8UH 5 620     -46.153 146.733   9.065  1.00 16.14     0.044 C 
HETATM   41  C39 8UH 5 620     -45.133 142.795   6.104  1.00 42.32     0.048 C 
HETATM   42  C40 8UH 5 620     -41.755 138.637   6.509  1.00 42.32     0.048 C 
HETATM   43  O23 8UH 5 620     -50.284 147.124  11.550  1.00 16.14    -0.395 OA
ATOM     44  H23 8UH 5 620     -49.814 147.766  12.068  1.00  0.00     0.210 HD
ENDROOT
TORSDOF 12
BEGIN_RES PHE A  61
REMARK  2 active torsions:
REMARK  status: ('A' for Active; 'I' for Inactive)
REMARK    1  A    between atoms: CA   and  CB  
REMARK    2  A    between atoms: CB   and  CG  
ROOT
ATOM      1  CA  PHE A  61     -36.237 128.293  12.768  1.00 39.40     0.164 C 
ENDROOT
BRANCH   1   2
ATOM      2  CB  PHE A  61     -36.813 128.951  11.509  1.00 39.41     0.058 C 
BRANCH   2   3
ATOM      3  CG  PHE A  61     -37.106 127.991  10.381  1.00 39.01    -0.020 A 
ATOM      4  CD2 PHE A  61     -38.093 128.268   9.449  1.00 40.32    -0.004 A 
ATOM      5  CE2 PHE A  61     -38.364 127.382   8.414  1.00 40.20    -0.000 A 
ATOM      6  CZ  PHE A  61     -37.649 126.211   8.297  1.00 40.34    -0.000 A 
ATOM      7  CE1 PHE A  61     -36.664 125.922   9.215  1.00 41.51    -0.000 A 
ATOM      8  CD1 PHE A  61     -36.397 126.805  10.253  1.00 39.94    -0.004 A 
ENDBRANCH   2   3
ENDBRANCH   1   2
END_RES PHE A  61
BEGIN_RES VAL A 134
REMARK  1 active torsions:
REMARK  status: ('A' for Active; 'I' for Inactive)
REMARK    3  A    between atoms: CA   and  CB  
ROOT
ATOM      9  CA  VAL A 134     -29.766 132.051   9.815  1.00 40.75     0.159 C 
ENDROOT
BRANCH   9  10
ATOM     10  CB  VAL A 134     -30.864 132.765   9.009  1.00 40.76     0.029 C 
ATOM     11  CG1 VAL A 134     -30.997 132.154   7.622  1.00 41.76     0.002 C 
ATOM     12  CG2 VAL A 134     -32.199 132.745   9.738  1.00 40.56     0.002 C 
ENDBRANCH   9  10
END_RES VAL A 134
BEGIN_RES TYR A 338
REMARK  3 active torsions:
REMARK  status: ('A' for Active; 'I' for Inactive)
REMARK    4  A    between atoms: CA   and  CB  
REMARK    5  A    between atoms: CB   and  CG  
REMARK    6  A    between atoms: CZ   and  OH  
ROOT
ATOM     13  CA  TYR A 338     -41.631 124.950   6.058  1.00 38.23     0.164 C 
ENDROOT
BRANCH  13  14
ATOM     14  CB  TYR A 338     -41.621 126.456   6.339  1.00 39.15     0.058 C 
BRANCH  14  15
ATOM     15  CG  TYR A 338     -40.396 127.204   5.864  1.00 39.03    -0.020 A 
ATOM     16  CD2 TYR A 338     -40.241 128.549   6.152  1.00 40.65    -0.002 A 
ATOM     17  CE2 TYR A 338     -39.139 129.270   5.720  1.00 40.91     0.024 A 
ATOM     18  CZ  TYR A 338     -38.157 128.642   4.977  1.00 42.33     0.089 A 
ATOM     19  CE1 TYR A 338     -38.287 127.297   4.680  1.00 40.63     0.024 A 
ATOM     20  CD1 TYR A 338     -39.404 126.597   5.111  1.00 39.27    -0.002 A 
BRANCH  18  21
ATOM     21  OH  TYR A 338     -37.064 129.342   4.548  1.00 43.36    -0.359 OA
ATOM     22  HH  TYR A 338     -36.285 129.395   5.090  1.00  0.00     0.217 HD
ENDBRANCH  18  21
ENDBRANCH  14  15
ENDBRANCH  13  14
END_RES TYR A 338
ENDMDL
MODEL 4
REMARK VINA RESULT:    -7.334      1.706      2.381
REMARK INTER + INTRA:          -7.581
REMARK INTER:                  -3.861
REMARK INTRA:                  -3.720
REMARK UNBOUND:                -0.246
REMARK  0 active torsions:
REMARK  status: ('A' for Active; 'I' for Inactive)
REMARK       I    between atoms: C3_3  and  O3_21 
REMARK       I    between atoms: C6_6  and  C7_7 
REMARK       I    between atoms: C8_8  and  C9_9 
REMARK       I    between atoms: C10_10  and  C11_11 
REMARK       I    between atoms: C12_12  and  C13_13 
REMARK       I    between atoms: C14_14  and  C15_15 
REMARK       I    between atoms: C23_25  and  O23_43 
REMARK       I    between atoms: C26_28  and  C27_29 
REMARK       I    between atoms: C28_30  and  C29_31 
REMARK       I    between atoms: C30_32  and  C31_33 
REMARK       I    between atoms: C32_34  and  C33_35 
REMARK       I    between atoms: C34_36  and  C35_37 
ROOT
HETATM    1  C1  8UH 5 620     -50.384 146.038   8.282  1.00 42.32    -0.018 C 
HETATM    2  C2  8UH 5 620     -51.011 144.657   8.443  1.00 42.32     0.045 C 
HETATM    3  C3  8UH 5 620     -51.262 144.232   9.885  1.00 42.32     0.123 C 
HETATM    4  C4  8UH 5 620     -51.639 145.434  10.731  1.00 42.32     0.066 C 
HETATM    5  C5  8UH 5 620     -50.494 146.409  10.706  1.00 42.32    -0.074 C 
HETATM    6  C6  8UH 5 620     -49.798 146.548   9.578  1.00 42.32    -0.048 C 
HETATM    7  C7  8UH 5 620     -48.352 146.787   9.609  1.00 42.32     0.009 C 
HETATM    8  C8  8UH 5 620     -47.784 145.597   9.858  1.00 42.32     0.007 C 
HETATM    9  C9  8UH 5 620     -46.316 145.383   9.922  1.00 42.32    -0.062 C 
HETATM   10  C10 8UH 5 620     -45.883 144.114  10.070  1.00 42.32     0.007 C 
HETATM   11  C11 8UH 5 620     -44.473 143.723  10.084  1.00 42.32     0.001 C 
HETATM   12  C12 8UH 5 620     -44.155 142.435  10.097  1.00 42.32     0.007 C 
HETATM   13  C13 8UH 5 620     -42.754 141.985  10.023  1.00 42.32    -0.062 C 
HETATM   14  C14 8UH 5 620     -42.579 140.668   9.850  1.00 42.32     0.007 C 
HETATM   15  C15 8UH 5 620     -41.306 139.978   9.689  1.00 42.32     0.001 C 
HETATM   16  C16 8UH 5 620     -51.453 146.997   7.776  1.00 42.32     0.020 C 
HETATM   17  C17 8UH 5 620     -49.251 145.959   7.270  1.00 42.32     0.020 C 
HETATM   18  C18 8UH 5 620     -49.902 146.565  12.077  1.00 42.32     0.044 C 
HETATM   19  C19 8UH 5 620     -45.367 146.545   9.806  1.00 42.32     0.048 C 
HETATM   20  C20 8UH 5 620     -41.628 142.975  10.080  1.00 42.32     0.048 C 
HETATM   21  O3  8UH 5 620     -52.340 143.291   9.923  1.00 42.32    -0.395 OA
ATOM     22  H3  8UH 5 620     -52.104 142.539   9.393  1.00  0.00     0.210 HD
HETATM   23  C21 8UH 5 620     -33.572 130.513   6.886  1.00 16.14    -0.018 C 
HETATM   24  C22 8UH 5 620     -32.056 130.364   6.768  1.00 16.14     0.045 C 
HETATM   25  C23 8UH 5 620     -31.250 130.578   8.037  1.00 16.14     0.123 C 
HETATM   26  C24 8UH 5 620     -31.930 129.918   9.212  1.00 16.14     0.066 C 
HETATM   27  C25 8UH 5 620     -33.288 130.533   9.367  1.00 16.14    -0.074 C 
HETATM   28  C26 8UH 5 620     -34.088 130.685   8.304  1.00 16.14    -0.048 C 
HETATM   29  C27 8UH 5 620     -35.521 130.997   8.513  1.00 16.14     0.009 C 
HETATM   30  C28 8UH 5 620     -35.988 132.237   8.691  1.00 16.14     0.007 C 
HETATM   31  C29 8UH 5 620     -37.423 132.489   8.904  1.00 42.32    -0.062 C 
HETATM   32  C30 8UH 5 620     -37.718 133.793   8.906  1.00 42.32     0.007 C 
HETATM   33  C31 8UH 5 620     -39.040 134.376   9.055  1.00 42.32     0.001 C 
HETATM   34  C32 8UH 5 620     -39.086 135.702   9.036  1.00 42.32     0.007 C 
HETATM   35  C33 8UH 5 620     -40.329 136.465   9.190  1.00 42.32    -0.062 C 
HETATM   36  C34 8UH 5 620     -40.232 137.805   9.312  1.00 42.32     0.007 C 
HETATM   37  C35 8UH 5 620     -41.394 138.668   9.497  1.00 42.32     0.001 C 
HETATM   38  C36 8UH 5 620     -34.195 129.296   6.211  1.00 16.14     0.020 C 
HETATM   39  C37 8UH 5 620     -33.990 131.757   6.119  1.00 16.14     0.020 C 
HETATM   40  C38 8UH 5 620     -33.813 130.391  10.765  1.00 16.14     0.044 C 
HETATM   41  C39 8UH 5 620     -38.423 131.376   9.009  1.00 42.32     0.048 C 
HETATM   42  C40 8UH 5 620     -41.614 135.694   9.206  1.00 42.32     0.048 C 
HETATM   43  O23 8UH 5 620     -29.953 130.000   7.877  1.00 16.14    -0.395 OA
ATOM     44  H23 8UH 5 620     -29.449 130.134   8.671  1.00  0.00     0.210 HD
ENDROOT
TORSDOF 12
BEGIN_RES PHE A  61
REMARK  2 active torsions:
REMARK  status: ('A' for Active; 'I' for Inactive)
REMARK    1  A    between atoms: CA   and  CB  
REMARK    2  A    between atoms: CB   and  CG  
ROOT
ATOM      1  CA  PHE A  61     -36.237 128.293  12.768  1.00 39.40     0.164 C 
ENDROOT
BRANCH   1   2
ATOM      2  CB  PHE A  61     -36.813 128.951  11.509  1.00 39.41     0.058 C 
BRANCH   2   3
ATOM      3  CG  PHE A  61     -36.583 128.171  10.237  1.00 39.01    -0.020 A 
ATOM      4  CD2 PHE A  61     -37.593 128.027   9.298  1.00 40.32    -0.004 A 
ATOM      5  CE2 PHE A  61     -37.382 127.306   8.130  1.00 40.20    -0.000 A 
ATOM      6  CZ  PHE A  61     -36.158 126.726   7.884  1.00 40.34    -0.000 A 
ATOM      7  CE1 PHE A  61     -35.144 126.862   8.806  1.00 41.51    -0.000 A 
ATOM      8  CD1 PHE A  61     -35.357 127.576   9.977  1.00 39.94    -0.004 A 
ENDBRANCH   2   3
ENDBRANCH   1   2
END_RES PHE A  61
BEGIN_RES VAL A 134
REMARK  1 active torsions:
REMARK  status: ('A' for Active; 'I' for Inactive)
REMARK    3  A    between atoms: CA   and  CB  
ROOT
ATOM      9  CA  VAL A 134     -29.766 132.051   9.815  1.00 40.75     0.159 C 
ENDROOT
BRANCH   9  10
ATOM     10  CB  VAL A 134     -30.864 132.765   9.009  1.00 40.76     0.029 C 
ATOM     11  CG1 VAL A 134     -31.926 133.337   9.936  1.00 41.76     0.002 C 
ATOM     12  CG2 VAL A 134     -30.287 133.851   8.114  1.00 40.56     0.002 C 
ENDBRANCH   9  10
END_RES VAL A 134
BEGIN_RES TYR A 338
REMARK  3 active torsions:
REMARK  status: ('A' for Active; 'I' for Inactive)
REMARK    4  A    between atoms: CA   and  CB  
REMARK    5  A    between atoms: CB   and  CG  
REMARK    6  A    between atoms: CZ   and  OH  
ROOT
ATOM     13  CA  TYR A 338     -41.631 124.950   6.058  1.00 38.23     0.164 C 
ENDROOT
BRANCH  13  14
ATOM     14  CB  TYR A 338     -41.621 126.456   6.339  1.00 39.15     0.058 C 
BRANCH  14  15
ATOM     15  CG  TYR A 338     -40.388 127.201   5.881  1.00 39.03    -0.020 A 
ATOM     16  CD2 TYR A 338     -40.206 128.531   6.220  1.00 40.65    -0.002 A 
ATOM     17  CE2 TYR A 338     -39.095 129.249   5.805  1.00 40.91     0.024 A 
ATOM     18  CZ  TYR A 338     -38.132 128.634   5.027  1.00 42.33     0.089 A 
ATOM     19  CE1 TYR A 338     -38.289 127.304   4.679  1.00 40.63     0.024 A 
ATOM     20  CD1 TYR A 338     -39.414 126.607   5.094  1.00 39.27    -0.002 A 
BRANCH  18  21
ATOM     21  OH  TYR A 338     -37.031 129.331   4.616  1.00 43.36    -0.359 OA
ATOM     22  HH  TYR A 338     -36.795 129.357   3.696  1.00  0.00     0.217 HD
ENDBRANCH  18  21
ENDBRANCH  14  15
ENDBRANCH  13  14
END_RES TYR A 338
ENDMDL
MODEL 5
REMARK VINA RESULT:    -7.212      1.500      2.275
REMARK INTER + INTRA:          -7.458
REMARK INTER:                  -5.005
REMARK INTRA:                  -2.454
REMARK UNBOUND:                -0.246
REMARK  0 active torsions:
REMARK  status: ('A' for Active; 'I' for Inactive)
REMARK       I    between atoms: C3_3  and  O3_21 
REMARK       I    between atoms: C6_6  and  C7_7 
REMARK       I    between atoms: C8_8  and  C9_9 
REMARK       I    between atoms: C10_10  and  C11_11 
REMARK       I    between atoms: C12_12  and  C13_13 
REMARK       I    between atoms: C14_14  and  C15_15 
REMARK       I    between atoms: C23_25  and  O23_43 
REMARK       I    between atoms: C26_28  and  C27_29 
REMARK       I    between atoms: C28_30  and  C29_31 
REMARK       I    between atoms: C30_32  and  C31_33 
REMARK       I    between atoms: C32_34  and  C33_35 
REMARK       I    between atoms: C34_36  and  C35_37 
ROOT
HETATM    1  C1  8UH 5 620     -49.985 144.336   9.586  1.00 42.32    -0.018 C 
HETATM    2  C2  8UH 5 620     -50.359 143.118  10.424  1.00 42.32     0.045 C 
HETATM    3  C3  8UH 5 620     -49.865 143.159  11.866  1.00 42.32     0.123 C 
HETATM    4  C4  8UH 5 620     -49.883 144.583  12.390  1.00 42.32     0.066 C 
HETATM    5  C5  8UH 5 620     -48.962 145.413  11.539  1.00 42.32    -0.074 C 
HETATM    6  C6  8UH 5 620     -48.895 145.157  10.233  1.00 42.32    -0.048 C 
HETATM    7  C7  8UH 5 620     -47.629 145.279   9.505  1.00 42.32     0.009 C 
HETATM    8  C8  8UH 5 620     -46.925 144.174   9.796  1.00 42.32     0.007 C 
HETATM    9  C9  8UH 5 620     -45.590 143.872   9.220  1.00 42.32    -0.062 C 
HETATM   10  C10 8UH 5 620     -45.046 142.673   9.514  1.00 42.32     0.007 C 
HETATM   11  C11 8UH 5 620     -43.773 142.194   8.976  1.00 42.32     0.001 C 
HETATM   12  C12 8UH 5 620     -43.394 140.946   9.219  1.00 42.32     0.007 C 
HETATM   13  C13 8UH 5 620     -42.166 140.384   8.630  1.00 42.32    -0.062 C 
HETATM   14  C14 8UH 5 620     -41.998 139.065   8.793  1.00 42.32     0.007 C 
HETATM   15  C15 8UH 5 620     -40.905 138.260   8.263  1.00 42.32     0.001 C 
HETATM   16  C16 8UH 5 620     -51.234 145.185   9.386  1.00 42.32     0.020 C 
HETATM   17  C17 8UH 5 620     -49.464 143.872   8.233  1.00 42.32     0.020 C 
HETATM   18  C18 8UH 5 620     -47.805 145.919  12.351  1.00 42.32     0.044 C 
HETATM   19  C19 8UH 5 620     -44.897 144.870   8.331  1.00 42.32     0.048 C 
HETATM   20  C20 8UH 5 620     -41.223 141.255   7.851  1.00 42.32     0.048 C 
HETATM   21  O3  8UH 5 620     -50.724 142.360  12.686  1.00 42.32    -0.395 OA
ATOM     22  H3  8UH 5 620     -50.713 141.468  12.357  1.00  0.00     0.210 HD
HETATM   23  C21 8UH 5 620     -34.748 127.805   5.091  1.00 16.14    -0.018 C 
HETATM   24  C22 8UH 5 620     -33.462 127.508   4.321  1.00 16.14     0.045 C 
HETATM   25  C23 8UH 5 620     -32.169 128.022   4.931  1.00 16.14     0.123 C 
HETATM   26  C24 8UH 5 620     -32.162 127.795   6.423  1.00 16.14     0.066 C 
HETATM   27  C25 8UH 5 620     -33.326 128.534   7.010  1.00 16.14    -0.074 C 
HETATM   28  C26 8UH 5 620     -34.542 128.429   6.461  1.00 16.14    -0.048 C 
HETATM   29  C27 8UH 5 620     -35.724 128.902   7.218  1.00 16.14     0.009 C 
HETATM   30  C28 8UH 5 620     -36.141 130.171   7.219  1.00 16.14     0.007 C 
HETATM   31  C29 8UH 5 620     -37.318 130.588   7.999  1.00 42.32    -0.062 C 
HETATM   32  C30 8UH 5 620     -37.672 131.854   7.753  1.00 42.32     0.007 C 
HETATM   33  C31 8UH 5 620     -38.805 132.558   8.328  1.00 42.32     0.001 C 
HETATM   34  C32 8UH 5 620     -38.952 133.819   7.941  1.00 42.32     0.007 C 
HETATM   35  C33 8UH 5 620     -40.026 134.689   8.430  1.00 42.32    -0.062 C 
HETATM   36  C34 8UH 5 620     -39.982 135.994   8.088  1.00 42.32     0.007 C 
HETATM   37  C35 8UH 5 620     -40.978 136.962   8.534  1.00 42.32     0.001 C 
HETATM   38  C36 8UH 5 620     -35.525 126.497   5.186  1.00 16.14     0.020 C 
HETATM   39  C37 8UH 5 620     -35.569 128.797   4.282  1.00 16.14     0.020 C 
HETATM   40  C38 8UH 5 620     -33.115 128.853   8.461  1.00 16.14     0.044 C 
HETATM   41  C39 8UH 5 620     -38.066 129.640   8.888  1.00 42.32     0.048 C 
HETATM   42  C40 8UH 5 620     -41.090 134.063   9.278  1.00 42.32     0.048 C 
HETATM   43  O23 8UH 5 620     -31.065 127.322   4.357  1.00 16.14    -0.395 OA
ATOM     44  H23 8UH 5 620     -30.256 127.644   4.738  1.00  0.00     0.210 HD
ENDROOT
TORSDOF 12
BEGIN_RES PHE A  61
REMARK  2 active torsions:
REMARK  status: ('A' for Active; 'I' for Inactive)
REMARK    1  A    between atoms: CA   and  CB  
REMARK    2  A    between atoms: CB   and  CG  
ROOT
ATOM      1  CA  PHE A  61     -36.237 128.293  12.768  1.00 39.40     0.164 C 
ENDROOT
BRANCH   1   2
ATOM      2  CB  PHE A  61     -36.813 128.951  11.509  1.00 39.41     0.058 C 
BRANCH   2   3
ATOM      3  CG  PHE A  61     -36.187 130.279  11.157  1.00 39.01    -0.020 A 
ATOM      4  CD2 PHE A  61     -34.915 130.344  10.610  1.00 40.32    -0.004 A 
ATOM      5  CE2 PHE A  61     -34.340 131.567  10.290  1.00 40.20    -0.000 A 
ATOM      6  CZ  PHE A  61     -35.030 132.738  10.509  1.00 40.34    -0.000 A 
ATOM      7  CE1 PHE A  61     -36.295 132.690  11.050  1.00 41.51    -0.000 A 
ATOM      8  CD1 PHE A  61     -36.869 131.468  11.377  1.00 39.94    -0.004 A 
ENDBRANCH   2   3
ENDBRANCH   1   2
END_RES PHE A  61
BEGIN_RES VAL A 134
REMARK  1 active torsions:
REMARK  status: ('A' for Active; 'I' for Inactive)
REMARK    3  A    between atoms: CA   and  CB  
ROOT
ATOM      9  CA  VAL A 134     -29.766 132.051   9.815  1.00 40.75     0.159 C 
ENDROOT
BRANCH   9  10
ATOM     10  CB  VAL A 134     -30.864 132.765   9.009  1.00 40.76     0.029 C 
ATOM     11  CG1 VAL A 134     -31.476 131.824   7.982  1.00 41.76     0.002 C 
ATOM     12  CG2 VAL A 134     -31.938 133.347   9.916  1.00 40.56     0.002 C 
ENDBRANCH   9  10
END_RES VAL A 134
BEGIN_RES TYR A 338
REMARK  3 active torsions:
REMARK  status: ('A' for Active; 'I' for Inactive)
REMARK    4  A    between atoms: CA   and  CB  
REMARK    5  A    between atoms: CB   and  CG  
REMARK    6  A    between atoms: CZ   and  OH  
ROOT
ATOM     13  CA  TYR A 338     -41.631 124.950   6.058  1.00 38.23     0.164 C 
ENDROOT
BRANCH  13  14
ATOM     14  CB  TYR A 338     -41.621 126.456   6.339  1.00 39.15     0.058 C 
BRANCH  14  15
ATOM     15  CG  TYR A 338     -40.458 127.225   5.755  1.00 39.03    -0.020 A 
ATOM     16  CD2 TYR A 338     -40.240 128.544   6.112  1.00 40.65    -0.002 A 
ATOM     17  CE2 TYR A 338     -39.193 129.284   5.585  1.00 40.91     0.024 A 
ATOM     18  CZ  TYR A 338     -38.333 128.702   4.673  1.00 42.33     0.089 A 
ATOM     19  CE1 TYR A 338     -38.527 127.383   4.304  1.00 40.63     0.024 A 
ATOM     20  CD1 TYR A 338     -39.588 126.664   4.833  1.00 39.27    -0.002 A 
BRANCH  18  21
ATOM     21  OH  TYR A 338     -37.294 129.420   4.150  1.00 43.36    -0.359 OA
ATOM     22  HH  TYR A 338     -36.480 129.508   4.631  1.00  0.00     0.217 HD
ENDBRANCH  18  21
ENDBRANCH  14  15
ENDBRANCH  13  14
END_RES TYR A 338
ENDMDL
