MODEL 1
REMARK VINA RESULT:    -8.662      0.000      0.000
REMARK INTER + INTRA:         -11.702
REMARK INTER:                  -8.662
REMARK INTRA:                  -3.040
REMARK UNBOUND:                -3.040
REMARK  0 active torsions:
REMARK  status: ('A' for Active; 'I' for Inactive)
REMARK       I    between atoms: C3_3  and  O3_21 
REMARK       I    between atoms: C6_6  and  C7_7 
REMARK       I    between atoms: C8_8  and  C9_9 
REMARK       I    between atoms: C10_10  and  C11_11 
REMARK       I    between atoms: C12_12  and  C13_13 
REMARK       I    between atoms: C14_14  and  C15_15 
REMARK       I    between atoms: C23_25  and  O23_43 
REMARK       I    between atoms: C26_28  and  C27_29 
REMARK       I    between atoms: C28_30  and  C29_31 
REMARK       I    between atoms: C30_32  and  C31_33 
REMARK       I    between atoms: C32_34  and  C33_35 
REMARK       I    between atoms: C34_36  and  C35_37 
ROOT
HETATM    1  C1  8UH A 620     -50.401 142.168  12.900  1.00 22.96    -0.018 C 
HETATM    2  C2  8UH A 620     -50.908 143.155  13.976  1.00 23.40     0.045 C 
HETATM    3  C3  8UH A 620     -50.301 144.556  14.036  1.00 22.69     0.123 C 
HETATM    4  C4  8UH A 620     -49.810 145.082  12.689  1.00 22.06     0.066 C 
HETATM    5  C5  8UH A 620     -49.257 144.115  11.696  1.00 21.38    -0.074 C 
HETATM    6  C6  8UH A 620     -49.511 142.761  11.762  1.00 22.58    -0.048 C 
HETATM    7  C7  8UH A 620     -48.960 141.830  10.757  1.00 22.00     0.009 C 
HETATM    8  C8  8UH A 620     -47.704 141.348  10.680  1.00 20.93     0.007 C 
HETATM    9  C9  8UH A 620     -47.153 140.537   9.592  1.00 21.87    -0.062 C 
HETATM   10  C10 8UH A 620     -45.901 140.047   9.735  1.00 20.24     0.007 C 
HETATM   11  C11 8UH A 620     -45.188 139.221   8.792  1.00 21.04     0.001 C 
HETATM   12  C12 8UH A 620     -44.032 138.640   9.145  1.00 22.18     0.007 C 
HETATM   13  C13 8UH A 620     -43.159 137.733   8.386  1.00 24.17    -0.062 C 
HETATM   14  C14 8UH A 620     -42.105 137.204   9.046  1.00 25.88     0.007 C 
HETATM   15  C15 8UH A 620     -41.146 136.240   8.587  1.00 26.51     0.001 C 
HETATM   16  C16 8UH A 620     -51.695 141.579  12.308  1.00 20.65     0.020 C 
HETATM   17  C17 8UH A 620     -49.659 141.033  13.630  1.00 21.73     0.020 C 
HETATM   18  C18 8UH A 620     -48.464 144.894  10.706  1.00 21.05     0.044 C 
HETATM   19  C19 8UH A 620     -48.043 140.260   8.411  1.00 19.19     0.048 C 
HETATM   20  C20 8UH A 620     -43.532 137.397   6.972  1.00 21.80     0.048 C 
HETATM   21  O3  8UH A 620     -51.221 145.471  14.612  1.00 22.00    -0.395 OA
ATOM     22  H3  8UH A 620     -50.844 146.342  14.650  1.00  0.00     0.210 HD
HETATM   23  C21 8UH A 620     -33.735 127.078   6.974  1.00 42.32    -0.018 C 
HETATM   24  C22 8UH A 620     -34.735 127.159   5.825  1.00 42.32     0.045 C 
HETATM   25  C23 8UH A 620     -34.443 128.250   4.800  1.00 42.32     0.123 C 
HETATM   26  C24 8UH A 620     -32.946 128.430   4.633  1.00 42.32     0.066 C 
HETATM   27  C25 8UH A 620     -32.366 128.843   5.958  1.00 42.32    -0.074 C 
HETATM   28  C26 8UH A 620     -32.880 128.319   7.070  1.00 42.32    -0.048 C 
HETATM   29  C27 8UH A 620     -32.992 129.115   8.296  1.00 42.32     0.009 C 
HETATM   30  C28 8UH A 620     -34.063 129.906   8.128  1.00 42.32     0.007 C 
HETATM   31  C29 8UH A 620     -34.586 130.859   9.159  1.00 37.91    -0.062 C 
HETATM   32  C30 8UH A 620     -35.672 131.591   8.828  1.00 37.54     0.007 C 
HETATM   33  C31 8UH A 620     -36.354 132.563   9.644  1.00 35.36     0.001 C 
HETATM   34  C32 8UH A 620     -37.414 133.240   9.158  1.00 32.59     0.007 C 
HETATM   35  C33 8UH A 620     -38.243 134.278   9.789  1.00 30.48    -0.062 C 
HETATM   36  C34 8UH A 620     -39.248 134.801   9.054  1.00 28.06     0.007 C 
HETATM   37  C35 8UH A 620     -40.197 135.808   9.433  1.00 27.79     0.001 C 
HETATM   38  C36 8UH A 620     -32.859 125.850   6.765  1.00 42.32     0.020 C 
HETATM   39  C37 8UH A 620     -34.493 126.945   8.287  1.00 42.32     0.020 C 
HETATM   40  C38 8UH A 620     -31.790 130.226   5.875  1.00 42.32     0.044 C 
HETATM   41  C39 8UH A 620     -33.882 130.956  10.480  1.00 38.40     0.048 C 
HETATM   42  C40 8UH A 620     -37.914 134.686  11.200  1.00 28.72     0.048 C 
HETATM   43  O23 8UH A 620     -35.003 127.878   3.537  1.00 42.32    -0.395 OA
ATOM     44  H23 8UH A 620     -34.822 128.558   2.899  1.00  0.00     0.210 HD
ENDROOT
TORSDOF 12
BEGIN_RES PHE A  61
REMARK  2 active torsions:
REMARK  status: ('A' for Active; 'I' for Inactive)
REMARK    1  A    between atoms: CA   and  CB  
REMARK    2  A    between atoms: CB   and  CG  
ROOT
ATOM      1  CA  PHE A  61     -36.237 128.293  12.768  1.00 39.40     0.164 C 
ENDROOT
BRANCH   1   2
ATOM      2  CB  PHE A  61     -36.813 128.951  11.509  1.00 39.41     0.058 C 
BRANCH   2   3
ATOM      3  CG  PHE A  61     -37.031 128.003  10.354  1.00 39.01    -0.020 A 
ATOM      4  CD2 PHE A  61     -36.384 126.779  10.306  1.00 40.32    -0.004 A 
ATOM      5  CE2 PHE A  61     -36.583 125.909   9.241  1.00 40.20    -0.000 A 
ATOM      6  CZ  PHE A  61     -37.434 126.252   8.215  1.00 40.34    -0.000 A 
ATOM      7  CE1 PHE A  61     -38.087 127.465   8.249  1.00 41.51    -0.000 A 
ATOM      8  CD1 PHE A  61     -37.883 128.337   9.310  1.00 39.94    -0.004 A 
ENDBRANCH   2   3
ENDBRANCH   1   2
END_RES PHE A  61
BEGIN_RES VAL A 134
REMARK  1 active torsions:
REMARK  status: ('A' for Active; 'I' for Inactive)
REMARK    3  A    between atoms: CA   and  CB  
ROOT
ATOM      9  CA  VAL A 134     -29.766 132.051   9.815  1.00 40.75     0.159 C 
ENDROOT
BRANCH   9  10
ATOM     10  CB  VAL A 134     -30.864 132.765   9.009  1.00 40.76     0.029 C 
ATOM     11  CG1 VAL A 134     -31.222 131.967   7.764  1.00 41.76     0.002 C 
ATOM     12  CG2 VAL A 134     -32.100 133.029   9.855  1.00 40.56     0.002 C 
ENDBRANCH   9  10
END_RES VAL A 134
BEGIN_RES TYR A 338
REMARK  3 active torsions:
REMARK  status: ('A' for Active; 'I' for Inactive)
REMARK    4  A    between atoms: CA   and  CB  
REMARK    5  A    between atoms: CB   and  CG  
REMARK    6  A    between atoms: CZ   and  OH  
ROOT
ATOM     13  CA  TYR A 338     -41.631 124.950   6.058  1.00 38.23     0.164 C 
ENDROOT
BRANCH  13  14
ATOM     14  CB  TYR A 338     -41.621 126.456   6.339  1.00 39.15     0.058 C 
BRANCH  14  15
ATOM     15  CG  TYR A 338     -40.410 127.209   5.838  1.00 39.03    -0.020 A 
ATOM     16  CD2 TYR A 338     -40.257 128.556   6.119  1.00 40.65    -0.002 A 
ATOM     17  CE2 TYR A 338     -39.167 129.281   5.662  1.00 40.91     0.024 A 
ATOM     18  CZ  TYR A 338     -38.197 128.656   4.902  1.00 42.33     0.089 A 
ATOM     19  CE1 TYR A 338     -38.325 127.309   4.611  1.00 40.63     0.024 A 
ATOM     20  CD1 TYR A 338     -39.429 126.605   5.066  1.00 39.27    -0.002 A 
BRANCH  18  21
ATOM     21  OH  TYR A 338     -37.116 129.360   4.450  1.00 43.36    -0.359 OA
ATOM     22  HH  TYR A 338     -36.954 129.446   3.517  1.00  0.00     0.217 HD
ENDBRANCH  18  21
ENDBRANCH  14  15
ENDBRANCH  13  14
END_RES TYR A 338
ENDMDL
MODEL 2
REMARK VINA RESULT:    -6.354      1.810     16.290
REMARK INTER + INTRA:          -9.394
REMARK INTER:                  -9.097
REMARK INTRA:                  -0.297
REMARK UNBOUND:                -3.040
REMARK  0 active torsions:
REMARK  status: ('A' for Active; 'I' for Inactive)
REMARK       I    between atoms: C3_3  and  O3_21 
REMARK       I    between atoms: C6_6  and  C7_7 
REMARK       I    between atoms: C8_8  and  C9_9 
REMARK       I    between atoms: C10_10  and  C11_11 
REMARK       I    between atoms: C12_12  and  C13_13 
REMARK       I    between atoms: C14_14  and  C15_15 
REMARK       I    between atoms: C23_25  and  O23_43 
REMARK       I    between atoms: C26_28  and  C27_29 
REMARK       I    between atoms: C28_30  and  C29_31 
REMARK       I    between atoms: C30_32  and  C31_33 
REMARK       I    between atoms: C32_34  and  C33_35 
REMARK       I    between atoms: C34_36  and  C35_37 
ROOT
HETATM    1  C1  8UH A 620     -34.213 128.355   6.718  1.00 22.96    -0.018 C 
HETATM    2  C2  8UH A 620     -33.189 127.748   5.732  1.00 23.40     0.045 C 
HETATM    3  C3  8UH A 620     -31.829 128.425   5.573  1.00 22.69     0.123 C 
HETATM    4  C4  8UH A 620     -31.343 129.152   6.825  1.00 22.06     0.066 C 
HETATM    5  C5  8UH A 620     -32.350 129.793   7.721  1.00 21.38    -0.074 C 
HETATM    6  C6  8UH A 620     -33.685 129.447   7.701  1.00 22.58    -0.048 C 
HETATM    7  C7  8UH A 620     -34.655 130.089   8.610  1.00 22.00     0.009 C 
HETATM    8  C8  8UH A 620     -35.214 131.310   8.491  1.00 20.93     0.007 C 
HETATM    9  C9  8UH A 620     -36.065 131.972   9.482  1.00 21.87    -0.062 C 
HETATM   10  C10 8UH A 620     -36.631 133.154   9.146  1.00 20.24     0.007 C 
HETATM   11  C11 8UH A 620     -37.506 133.952   9.968  1.00 21.04     0.001 C 
HETATM   12  C12 8UH A 620     -38.156 135.000   9.440  1.00 22.18     0.007 C 
HETATM   13  C13 8UH A 620     -39.120 135.923  10.056  1.00 24.17    -0.062 C 
HETATM   14  C14 8UH A 620     -39.709 136.825   9.241  1.00 25.88     0.007 C 
HETATM   15  C15 8UH A 620     -40.735 137.783   9.547  1.00 26.51     0.001 C 
HETATM   16  C16 8UH A 620     -34.725 127.135   7.508  1.00 20.65     0.020 C 
HETATM   17  C17 8UH A 620     -35.388 128.901   5.885  1.00 21.73     0.020 C 
HETATM   18  C18 8UH A 620     -31.628 130.778   8.573  1.00 21.05     0.044 C 
HETATM   19  C19 8UH A 620     -36.294 131.263  10.788  1.00 19.19     0.048 C 
HETATM   20  C20 8UH A 620     -39.441 135.756  11.512  1.00 21.80     0.048 C 
HETATM   21  O3  8UH A 620     -30.854 127.485   5.145  1.00 22.00    -0.395 OA
ATOM     22  H3  8UH A 620     -30.008 127.905   5.046  1.00  0.00     0.210 HD
HETATM   23  C21 8UH A 620     -50.351 144.767  10.008  1.00 42.32    -0.018 C 
HETATM   24  C22 8UH A 620     -50.214 143.967  11.300  1.00 42.32     0.045 C 
HETATM   25  C23 8UH A 620     -49.150 144.483  12.262  1.00 42.32     0.123 C 
HETATM   26  C24 8UH A 620     -49.066 145.996  12.193  1.00 42.32     0.066 C 
HETATM   27  C25 8UH A 620     -48.681 146.386  10.792  1.00 42.32    -0.074 C 
HETATM   28  C26 8UH A 620     -49.164 145.673   9.776  1.00 42.32    -0.048 C 
HETATM   29  C27 8UH A 620     -48.355 145.420   8.580  1.00 42.32     0.009 C 
HETATM   30  C28 8UH A 620     -47.500 144.440   8.910  1.00 42.32     0.007 C 
HETATM   31  C29 8UH A 620     -46.509 143.823   7.972  1.00 37.91    -0.062 C 
HETATM   32  C30 8UH A 620     -45.713 142.850   8.466  1.00 37.54     0.007 C 
HETATM   33  C31 8UH A 620     -44.695 142.111   7.764  1.00 35.36     0.001 C 
HETATM   34  C32 8UH A 620     -43.957 141.184   8.408  1.00 32.59     0.007 C 
HETATM   35  C33 8UH A 620     -42.865 140.333   7.912  1.00 30.48    -0.062 C 
HETATM   36  C34 8UH A 620     -42.285 139.490   8.793  1.00 28.06     0.007 C 
HETATM   37  C35 8UH A 620     -41.219 138.559   8.564  1.00 27.79     0.001 C 
HETATM   38  C36 8UH A 620     -51.632 145.586  10.082  1.00 42.32     0.020 C 
HETATM   39  C37 8UH A 620     -50.428 143.806   8.830  1.00 42.32     0.020 C 
HETATM   40  C38 8UH A 620     -47.336 147.053  10.779  1.00 42.32     0.044 C 
HETATM   41  C39 8UH A 620     -46.448 144.316   6.556  1.00 38.40     0.048 C 
HETATM   42  C40 8UH A 620     -42.469 140.462   6.464  1.00 28.72     0.048 C 
HETATM   43  O23 8UH A 620     -49.496 144.105  13.599  1.00 42.32    -0.395 OA
ATOM     44  H23 8UH A 620     -48.832 144.426  14.199  1.00  0.00     0.210 HD
ENDROOT
TORSDOF 12
BEGIN_RES PHE A  61
REMARK  2 active torsions:
REMARK  status: ('A' for Active; 'I' for Inactive)
REMARK    1  A    between atoms: CA   and  CB  
REMARK    2  A    between atoms: CB   and  CG  
ROOT
ATOM      1  CA  PHE A  61     -36.237 128.293  12.768  1.00 39.40     0.164 C 
ENDROOT
BRANCH   1   2
ATOM      2  CB  PHE A  61     -36.813 128.951  11.509  1.00 39.41     0.058 C 
BRANCH   2   3
ATOM      3  CG  PHE A  61     -37.003 128.009  10.344  1.00 39.01    -0.020 A 
ATOM      4  CD2 PHE A  61     -36.280 126.830  10.256  1.00 40.32    -0.004 A 
ATOM      5  CE2 PHE A  61     -36.454 125.966   9.183  1.00 40.20    -0.000 A 
ATOM      6  CZ  PHE A  61     -37.355 126.269   8.187  1.00 40.34    -0.000 A 
ATOM      7  CE1 PHE A  61     -38.083 127.436   8.261  1.00 41.51    -0.000 A 
ATOM      8  CD1 PHE A  61     -37.905 128.303   9.331  1.00 39.94    -0.004 A 
ENDBRANCH   2   3
ENDBRANCH   1   2
END_RES PHE A  61
BEGIN_RES VAL A 134
REMARK  1 active torsions:
REMARK  status: ('A' for Active; 'I' for Inactive)
REMARK    3  A    between atoms: CA   and  CB  
ROOT
ATOM      9  CA  VAL A 134     -29.766 132.051   9.815  1.00 40.75     0.159 C 
ENDROOT
BRANCH   9  10
ATOM     10  CB  VAL A 134     -30.864 132.765   9.009  1.00 40.76     0.029 C 
ATOM     11  CG1 VAL A 134     -32.088 133.020   9.876  1.00 41.76     0.002 C 
ATOM     12  CG2 VAL A 134     -30.357 134.061   8.396  1.00 40.56     0.002 C 
ENDBRANCH   9  10
END_RES VAL A 134
BEGIN_RES TYR A 338
REMARK  3 active torsions:
REMARK  status: ('A' for Active; 'I' for Inactive)
REMARK    4  A    between atoms: CA   and  CB  
REMARK    5  A    between atoms: CB   and  CG  
REMARK    6  A    between atoms: CZ   and  OH  
ROOT
ATOM     13  CA  TYR A 338     -41.631 124.950   6.058  1.00 38.23     0.164 C 
ENDROOT
BRANCH  13  14
ATOM     14  CB  TYR A 338     -41.621 126.456   6.339  1.00 39.15     0.058 C 
BRANCH  14  15
ATOM     15  CG  TYR A 338     -40.430 127.216   5.802  1.00 39.03    -0.020 A 
ATOM     16  CD2 TYR A 338     -40.280 128.565   6.072  1.00 40.65    -0.002 A 
ATOM     17  CE2 TYR A 338     -39.208 129.297   5.583  1.00 40.91     0.024 A 
ATOM     18  CZ  TYR A 338     -38.254 128.675   4.800  1.00 42.33     0.089 A 
ATOM     19  CE1 TYR A 338     -38.379 127.326   4.520  1.00 40.63     0.024 A 
ATOM     20  CD1 TYR A 338     -39.465 126.615   5.008  1.00 39.27    -0.002 A 
BRANCH  18  21
ATOM     21  OH  TYR A 338     -37.191 129.386   4.316  1.00 43.36    -0.359 OA
ATOM     22  HH  TYR A 338     -36.325 128.996   4.289  1.00  0.00     0.217 HD
ENDBRANCH  18  21
ENDBRANCH  14  15
ENDBRANCH  13  14
END_RES TYR A 338
ENDMDL
MODEL 3
REMARK VINA RESULT:    -6.159      2.130      2.870
REMARK INTER + INTRA:          -9.199
REMARK INTER:                  -6.863
REMARK INTRA:                  -2.336
REMARK UNBOUND:                -3.040
REMARK  0 active torsions:
REMARK  status: ('A' for Active; 'I' for Inactive)
REMARK       I    between atoms: C3_3  and  O3_21 
REMARK       I    between atoms: C6_6  and  C7_7 
REMARK       I    between atoms: C8_8  and  C9_9 
REMARK       I    between atoms: C10_10  and  C11_11 
REMARK       I    between atoms: C12_12  and  C13_13 
REMARK       I    between atoms: C14_14  and  C15_15 
REMARK       I    between atoms: C23_25  and  O23_43 
REMARK       I    between atoms: C26_28  and  C27_29 
REMARK       I    between atoms: C28_30  and  C29_31 
REMARK       I    between atoms: C30_32  and  C31_33 
REMARK       I    between atoms: C32_34  and  C33_35 
REMARK       I    between atoms: C34_36  and  C35_37 
ROOT
HETATM    1  C1  8UH A 620     -50.335 144.642   9.021  1.00 22.96    -0.018 C 
HETATM    2  C2  8UH A 620     -51.560 145.097   9.846  1.00 23.40     0.045 C 
HETATM    3  C3  8UH A 620     -51.332 145.916  11.115  1.00 22.69     0.123 C 
HETATM    4  C4  8UH A 620     -50.071 146.778  11.083  1.00 22.06     0.066 C 
HETATM    5  C5  8UH A 620     -48.877 146.280  10.340  1.00 21.38    -0.074 C 
HETATM    6  C6  8UH A 620     -48.962 145.295   9.378  1.00 22.58    -0.048 C 
HETATM    7  C7  8UH A 620     -47.764 144.832   8.649  1.00 22.00     0.009 C 
HETATM    8  C8  8UH A 620     -46.806 143.991   9.087  1.00 20.93     0.007 C 
HETATM    9  C9  8UH A 620     -45.560 143.662   8.391  1.00 21.87    -0.062 C 
HETATM   10  C10 8UH A 620     -44.764 142.709   8.928  1.00 20.24     0.007 C 
HETATM   11  C11 8UH A 620     -43.512 142.234   8.395  1.00 21.04     0.001 C 
HETATM   12  C12 8UH A 620     -42.925 141.147   8.919  1.00 22.18     0.007 C 
HETATM   13  C13 8UH A 620     -41.690 140.456   8.523  1.00 24.17    -0.062 C 
HETATM   14  C14 8UH A 620     -41.401 139.304   9.167  1.00 25.88     0.007 C 
HETATM   15  C15 8UH A 620     -40.319 138.389   8.936  1.00 26.51     0.001 C 
HETATM   16  C16 8UH A 620     -50.724 144.986   7.571  1.00 20.65     0.020 C 
HETATM   17  C17 8UH A 620     -50.248 143.108   9.133  1.00 21.73     0.020 C 
HETATM   18  C18 8UH A 620     -47.696 147.046  10.824  1.00 21.05     0.044 C 
HETATM   19  C19 8UH A 620     -45.278 144.371   7.095  1.00 19.19     0.048 C 
HETATM   20  C20 8UH A 620     -40.881 141.025   7.395  1.00 21.80     0.048 C 
HETATM   21  O3  8UH A 620     -52.467 146.721  11.397  1.00 22.00    -0.395 OA
ATOM     22  H3  8UH A 620     -52.325 147.230  12.186  1.00  0.00     0.210 HD
HETATM   23  C21 8UH A 620     -33.197 129.054   7.039  1.00 42.32    -0.018 C 
HETATM   24  C22 8UH A 620     -33.048 130.072   5.912  1.00 42.32     0.045 C 
HETATM   25  C23 8UH A 620     -32.214 131.299   6.265  1.00 42.32     0.123 C 
HETATM   26  C24 8UH A 620     -31.094 130.920   7.214  1.00 42.32     0.066 C 
HETATM   27  C25 8UH A 620     -31.704 130.371   8.475  1.00 42.32    -0.074 C 
HETATM   28  C26 8UH A 620     -32.810 129.633   8.379  1.00 42.32    -0.048 C 
HETATM   29  C27 8UH A 620     -33.857 129.708   9.402  1.00 42.32     0.009 C 
HETATM   30  C28 8UH A 620     -34.542 130.834   9.151  1.00 42.32     0.007 C 
HETATM   31  C29 8UH A 620     -35.742 131.291   9.923  1.00 37.91    -0.062 C 
HETATM   32  C30 8UH A 620     -36.312 132.456   9.546  1.00 37.54     0.007 C 
HETATM   33  C31 8UH A 620     -37.466 133.094  10.127  1.00 35.36     0.001 C 
HETATM   34  C32 8UH A 620     -37.900 134.280   9.656  1.00 32.59     0.007 C 
HETATM   35  C33 8UH A 620     -39.025 135.118  10.096  1.00 30.48    -0.062 C 
HETATM   36  C34 8UH A 620     -39.226 136.282   9.442  1.00 28.06     0.007 C 
HETATM   37  C35 8UH A 620     -40.247 137.265   9.667  1.00 27.79     0.001 C 
HETATM   38  C36 8UH A 620     -32.327 127.847   6.716  1.00 42.32     0.020 C 
HETATM   39  C37 8UH A 620     -34.653 128.622   7.133  1.00 42.32     0.020 C 
HETATM   40  C38 8UH A 620     -31.392 131.259   9.644  1.00 42.32     0.044 C 
HETATM   41  C39 8UH A 620     -36.234 130.448  11.062  1.00 38.40     0.048 C 
HETATM   42  C40 8UH A 620     -39.869 134.624  11.242  1.00 28.72     0.048 C 
HETATM   43  O23 8UH A 620     -31.639 131.841   5.072  1.00 42.32    -0.395 OA
ATOM     44  H23 8UH A 620     -31.120 132.606   5.292  1.00  0.00     0.210 HD
ENDROOT
TORSDOF 12
BEGIN_RES PHE A  61
REMARK  2 active torsions:
REMARK  status: ('A' for Active; 'I' for Inactive)
REMARK    1  A    between atoms: CA   and  CB  
REMARK    2  A    between atoms: CB   and  CG  
ROOT
ATOM      1  CA  PHE A  61     -36.237 128.293  12.768  1.00 39.40     0.164 C 
ENDROOT
BRANCH   1   2
ATOM      2  CB  PHE A  61     -36.813 128.951  11.509  1.00 39.41     0.058 C 
BRANCH   2   3
ATOM      3  CG  PHE A  61     -36.833 128.058  10.292  1.00 39.01    -0.020 A 
ATOM      4  CD2 PHE A  61     -37.865 128.134   9.370  1.00 40.32    -0.004 A 
ATOM      5  CE2 PHE A  61     -37.884 127.310   8.252  1.00 40.20    -0.000 A 
ATOM      6  CZ  PHE A  61     -36.871 126.403   8.041  1.00 40.34    -0.000 A 
ATOM      7  CE1 PHE A  61     -35.837 126.316   8.947  1.00 41.51    -0.000 A 
ATOM      8  CD1 PHE A  61     -35.821 127.136  10.068  1.00 39.94    -0.004 A 
ENDBRANCH   2   3
ENDBRANCH   1   2
END_RES PHE A  61
BEGIN_RES VAL A 134
REMARK  1 active torsions:
REMARK  status: ('A' for Active; 'I' for Inactive)
REMARK    3  A    between atoms: CA   and  CB  
ROOT
ATOM      9  CA  VAL A 134     -29.766 132.051   9.815  1.00 40.75     0.159 C 
ENDROOT
BRANCH   9  10
ATOM     10  CB  VAL A 134     -30.864 132.765   9.009  1.00 40.76     0.029 C 
ATOM     11  CG1 VAL A 134     -31.974 133.255   9.928  1.00 41.76     0.002 C 
ATOM     12  CG2 VAL A 134     -30.299 133.912   8.185  1.00 40.56     0.002 C 
ENDBRANCH   9  10
END_RES VAL A 134
BEGIN_RES TYR A 338
REMARK  3 active torsions:
REMARK  status: ('A' for Active; 'I' for Inactive)
REMARK    4  A    between atoms: CA   and  CB  
REMARK    5  A    between atoms: CB   and  CG  
REMARK    6  A    between atoms: CZ   and  OH  
ROOT
ATOM     13  CA  TYR A 338     -41.631 124.950   6.058  1.00 38.23     0.164 C 
ENDROOT
BRANCH  13  14
ATOM     14  CB  TYR A 338     -41.621 126.456   6.339  1.00 39.15     0.058 C 
BRANCH  14  15
ATOM     15  CG  TYR A 338     -40.390 127.202   5.877  1.00 39.03    -0.020 A 
ATOM     16  CD2 TYR A 338     -40.224 128.540   6.188  1.00 40.65    -0.002 A 
ATOM     17  CE2 TYR A 338     -39.116 129.259   5.767  1.00 40.91     0.024 A 
ATOM     18  CZ  TYR A 338     -38.139 128.636   5.013  1.00 42.33     0.089 A 
ATOM     19  CE1 TYR A 338     -38.281 127.297   4.693  1.00 40.63     0.024 A 
ATOM     20  CD1 TYR A 338     -39.403 126.599   5.113  1.00 39.27    -0.002 A 
BRANCH  18  21
ATOM     21  OH  TYR A 338     -37.040 129.333   4.596  1.00 43.36    -0.359 OA
ATOM     22  HH  TYR A 338     -36.220 129.267   5.072  1.00  0.00     0.217 HD
ENDBRANCH  18  21
ENDBRANCH  14  15
ENDBRANCH  13  14
END_RES TYR A 338
ENDMDL
