MODEL 1
REMARK VINA RESULT:   -10.558      0.000      0.000
REMARK INTER + INTRA:         -12.887
REMARK INTER:                 -10.558
REMARK INTRA:                  -2.329
REMARK UNBOUND:                -2.329
REMARK  0 active torsions:
REMARK  status: ('A' for Active; 'I' for Inactive)
REMARK       I    between atoms: C3_3  and  O3_21 
REMARK       I    between atoms: C6_6  and  C7_7 
REMARK       I    between atoms: C8_8  and  C9_9 
REMARK       I    between atoms: C10_10  and  C11_11 
REMARK       I    between atoms: C12_12  and  C13_13 
REMARK       I    between atoms: C14_14  and  C15_15 
REMARK       I    between atoms: C23_25  and  O23_43 
REMARK       I    between atoms: C26_28  and  C27_29 
REMARK       I    between atoms: C28_30  and  C29_31 
REMARK       I    between atoms: C30_32  and  C31_33 
REMARK       I    between atoms: C32_34  and  C33_35 
REMARK       I    between atoms: C34_36  and  C35_37 
ROOT
HETATM    1  C1  8UH 3 316     -34.314 127.385   6.729  1.00 78.71    -0.018 C 
HETATM    2  C2  8UH 3 316     -33.717 126.905   5.404  1.00 77.73     0.045 C 
HETATM    3  C3  8UH 3 316     -32.535 127.708   4.874  1.00 76.79     0.123 C 
HETATM    4  C4  8UH 3 316     -31.580 128.028   6.007  1.00 76.86     0.066 C 
HETATM    5  C5  8UH 3 316     -32.322 128.867   7.010  1.00 77.66    -0.074 C 
HETATM    6  C6  8UH 3 316     -33.562 128.536   7.376  1.00 78.84    -0.048 C 
HETATM    7  C7  8UH 3 316     -34.249 129.316   8.431  1.00 78.35     0.009 C 
HETATM    8  C8  8UH 3 316     -34.808 130.486   8.126  1.00 77.95     0.007 C 
HETATM    9  C9  8UH 3 316     -35.516 131.306   9.126  1.00 78.35    -0.062 C 
HETATM   10  C10 8UH 3 316     -36.140 132.412   8.699  1.00 77.38     0.007 C 
HETATM   11  C11 8UH 3 316     -36.894 133.303   9.572  1.00 77.06     0.001 C 
HETATM   12  C12 8UH 3 316     -37.672 134.187   8.957  1.00 77.59     0.007 C 
HETATM   13  C13 8UH 3 316     -38.535 135.160   9.654  1.00 77.36    -0.062 C 
HETATM   14  C14 8UH 3 316     -39.324 135.937   8.899  1.00 75.86     0.007 C 
HETATM   15  C15 8UH 3 316     -40.241 136.921   9.460  1.00 74.54     0.001 C 
HETATM   16  C16 8UH 3 316     -34.336 126.215   7.706  1.00 78.56     0.020 C 
HETATM   17  C17 8UH 3 316     -35.745 127.846   6.471  1.00 78.60     0.020 C 
HETATM   18  C18 8UH 3 316     -31.548 129.927   7.740  1.00 77.80     0.044 C 
HETATM   19  C19 8UH 3 316     -35.541 130.905  10.571  1.00 79.41     0.048 C 
HETATM   20  C20 8UH 3 316     -38.536 135.265  11.151  1.00 77.68     0.048 C 
HETATM   21  O3  8UH 3 316     -31.840 126.951   3.876  1.00 76.23    -0.395 OA
ATOM     22  H3  8UH 3 316     -31.104 127.451   3.545  1.00  0.00     0.210 HD
HETATM   23  C21 8UH 3 316     -49.909 145.294   9.311  1.00 16.22    -0.018 C 
HETATM   24  C22 8UH 3 316     -50.939 145.074  10.398  1.00 16.22     0.045 C 
HETATM   25  C23 8UH 3 316     -50.383 145.044  11.791  1.00 16.22     0.123 C 
HETATM   26  C24 8UH 3 316     -49.410 146.188  11.895  1.00 16.22     0.066 C 
HETATM   27  C25 8UH 3 316     -48.256 145.803  11.028  1.00 16.22    -0.074 C 
HETATM   28  C26 8UH 3 316     -48.488 145.439   9.770  1.00 16.22    -0.048 C 
HETATM   29  C27 8UH 3 316     -47.452 144.932   8.860  1.00 16.22     0.009 C 
HETATM   30  C28 8UH 3 316     -46.606 144.054   9.387  1.00 16.22     0.007 C 
HETATM   31  C29 8UH 3 316     -45.691 143.288   8.507  1.00 87.05    -0.062 C 
HETATM   32  C30 8UH 3 316     -44.970 142.307   9.064  1.00 83.33     0.007 C 
HETATM   33  C31 8UH 3 316     -44.045 141.477   8.300  1.00 80.71     0.001 C 
HETATM   34  C32 8UH 3 316     -43.372 140.558   8.983  1.00 78.86     0.007 C 
HETATM   35  C33 8UH 3 316     -42.405 139.631   8.370  1.00 77.40    -0.062 C 
HETATM   36  C34 8UH 3 316     -41.851 138.691   9.149  1.00 76.14     0.007 C 
HETATM   37  C35 8UH 3 316     -40.902 137.718   8.626  1.00 74.61     0.001 C 
HETATM   38  C36 8UH 3 316     -50.212 146.616   8.628  1.00 16.22     0.020 C 
HETATM   39  C37 8UH 3 316     -50.043 144.133   8.368  1.00 16.22     0.020 C 
HETATM   40  C38 8UH 3 316     -46.922 146.265  11.512  1.00 16.22     0.044 C 
HETATM   41  C39 8UH 3 316     -45.576 143.594   7.042  1.00 86.53     0.048 C 
HETATM   42  C40 8UH 3 316     -42.051 139.738   6.917  1.00 77.09     0.048 C 
HETATM   43  O23 8UH 3 316     -51.490 145.205  12.670  1.00 16.22    -0.395 OA
ATOM     44  H23 8UH 3 316     -52.104 144.483  12.604  1.00  0.00     0.210 HD
ENDROOT
TORSDOF 12
BEGIN_RES PHE A  61
REMARK  2 active torsions:
REMARK  status: ('A' for Active; 'I' for Inactive)
REMARK    1  A    between atoms: CA   and  CB  
REMARK    2  A    between atoms: CB   and  CG  
ROOT
ATOM      1  CA  PHE A  61     -36.237 128.293  12.768  1.00 39.40     0.164 C 
ENDROOT
BRANCH   1   2
ATOM      2  CB  PHE A  61     -36.813 128.951  11.509  1.00 39.41     0.058 C 
BRANCH   2   3
ATOM      3  CG  PHE A  61     -37.080 127.995  10.371  1.00 39.01    -0.020 A 
ATOM      4  CD2 PHE A  61     -36.374 126.807  10.260  1.00 40.32    -0.004 A 
ATOM      5  CE2 PHE A  61     -36.618 125.929   9.211  1.00 40.20    -0.000 A 
ATOM      6  CZ  PHE A  61     -37.572 126.227   8.265  1.00 40.34    -0.000 A 
ATOM      7  CE1 PHE A  61     -38.283 127.403   8.362  1.00 41.51    -0.000 A 
ATOM      8  CD1 PHE A  61     -38.035 128.283   9.407  1.00 39.94    -0.004 A 
ENDBRANCH   2   3
ENDBRANCH   1   2
END_RES PHE A  61
BEGIN_RES VAL A 134
REMARK  1 active torsions:
REMARK  status: ('A' for Active; 'I' for Inactive)
REMARK    3  A    between atoms: CA   and  CB  
ROOT
ATOM      9  CA  VAL A 134     -29.766 132.051   9.815  1.00 40.75     0.159 C 
ENDROOT
BRANCH   9  10
ATOM     10  CB  VAL A 134     -30.864 132.765   9.009  1.00 40.76     0.029 C 
ATOM     11  CG1 VAL A 134     -30.879 132.275   7.569  1.00 41.76     0.002 C 
ATOM     12  CG2 VAL A 134     -32.232 132.596   9.652  1.00 40.56     0.002 C 
ENDBRANCH   9  10
END_RES VAL A 134
BEGIN_RES TYR A 338
REMARK  3 active torsions:
REMARK  status: ('A' for Active; 'I' for Inactive)
REMARK    4  A    between atoms: CA   and  CB  
REMARK    5  A    between atoms: CB   and  CG  
REMARK    6  A    between atoms: CZ   and  OH  
ROOT
ATOM     13  CA  TYR A 338     -41.631 124.950   6.058  1.00 38.23     0.164 C 
ENDROOT
BRANCH  13  14
ATOM     14  CB  TYR A 338     -41.621 126.456   6.339  1.00 39.15     0.058 C 
BRANCH  14  15
ATOM     15  CG  TYR A 338     -40.423 127.213   5.815  1.00 39.03    -0.020 A 
ATOM     16  CD2 TYR A 338     -40.256 128.555   6.113  1.00 40.65    -0.002 A 
ATOM     17  CE2 TYR A 338     -39.178 129.284   5.636  1.00 40.91     0.024 A 
ATOM     18  CZ  TYR A 338     -38.232 128.669   4.838  1.00 42.33     0.089 A 
ATOM     19  CE1 TYR A 338     -38.374 127.327   4.530  1.00 40.63     0.024 A 
ATOM     20  CD1 TYR A 338     -39.467 126.619   5.006  1.00 39.27    -0.002 A 
BRANCH  18  21
ATOM     21  OH  TYR A 338     -37.163 129.377   4.366  1.00 43.36    -0.359 OA
ATOM     22  HH  TYR A 338     -36.345 129.393   4.850  1.00  0.00     0.217 HD
ENDBRANCH  18  21
ENDBRANCH  14  15
ENDBRANCH  13  14
END_RES TYR A 338
ENDMDL
MODEL 2
REMARK VINA RESULT:    -9.314      1.333     16.562
REMARK INTER + INTRA:         -11.643
REMARK INTER:                  -9.568
REMARK INTRA:                  -2.075
REMARK UNBOUND:                -2.329
REMARK  0 active torsions:
REMARK  status: ('A' for Active; 'I' for Inactive)
REMARK       I    between atoms: C3_3  and  O3_21 
REMARK       I    between atoms: C6_6  and  C7_7 
REMARK       I    between atoms: C8_8  and  C9_9 
REMARK       I    between atoms: C10_10  and  C11_11 
REMARK       I    between atoms: C12_12  and  C13_13 
REMARK       I    between atoms: C14_14  and  C15_15 
REMARK       I    between atoms: C23_25  and  O23_43 
REMARK       I    between atoms: C26_28  and  C27_29 
REMARK       I    between atoms: C28_30  and  C29_31 
REMARK       I    between atoms: C30_32  and  C31_33 
REMARK       I    between atoms: C32_34  and  C33_35 
REMARK       I    between atoms: C34_36  and  C35_37 
ROOT
HETATM    1  C1  8UH 3 316     -48.662 145.169  12.047  1.00 78.71    -0.018 C 
HETATM    2  C2  8UH 3 316     -49.477 145.314  13.334  1.00 77.73     0.045 C 
HETATM    3  C3  8UH 3 316     -48.725 145.855  14.544  1.00 76.79     0.123 C 
HETATM    4  C4  8UH 3 316     -47.846 147.018  14.126  1.00 76.86     0.066 C 
HETATM    5  C5  8UH 3 316     -46.847 146.503  13.126  1.00 77.66    -0.074 C 
HETATM    6  C6  8UH 3 316     -47.240 145.693  12.141  1.00 78.84    -0.048 C 
HETATM    7  C7  8UH 3 316     -46.265 145.266  11.111  1.00 78.35     0.009 C 
HETATM    8  C8  8UH 3 316     -45.409 144.282  11.382  1.00 77.95     0.007 C 
HETATM    9  C9  8UH 3 316     -44.423 143.802  10.398  1.00 78.35    -0.062 C 
HETATM   10  C10 8UH 3 316     -43.681 142.735  10.725  1.00 77.38     0.007 C 
HETATM   11  C11 8UH 3 316     -42.684 142.142   9.842  1.00 77.06     0.001 C 
HETATM   12  C12 8UH 3 316     -42.241 140.941  10.201  1.00 77.59     0.007 C 
HETATM   13  C13 8UH 3 316     -41.254 140.158   9.434  1.00 77.36    -0.062 C 
HETATM   14  C14 8UH 3 316     -40.961 138.928   9.879  1.00 75.86     0.007 C 
HETATM   15  C15 8UH 3 316     -40.024 138.041   9.203  1.00 74.54     0.001 C 
HETATM   16  C16 8UH 3 316     -49.378 145.919  10.930  1.00 78.56     0.020 C 
HETATM   17  C17 8UH 3 316     -48.593 143.687  11.687  1.00 78.60     0.020 C 
HETATM   18  C18 8UH 3 316     -45.474 147.110  13.140  1.00 77.80     0.044 C 
HETATM   19  C19 8UH 3 316     -44.265 144.483   9.071  1.00 79.41     0.048 C 
HETATM   20  C20 8UH 3 316     -40.611 140.715   8.197  1.00 77.68     0.048 C 
HETATM   21  O3  8UH 3 316     -49.655 146.304  15.536  1.00 76.23    -0.395 OA
ATOM     22  H3  8UH 3 316     -49.186 146.641  16.290  1.00  0.00     0.210 HD
HETATM   23  C21 8UH 3 316     -34.171 126.945   6.705  1.00 16.22    -0.018 C 
HETATM   24  C22 8UH 3 316     -34.162 126.563   5.241  1.00 16.22     0.045 C 
HETATM   25  C23 8UH 3 316     -33.580 127.602   4.327  1.00 16.22     0.123 C 
HETATM   26  C24 8UH 3 316     -32.322 128.103   4.984  1.00 16.22     0.066 C 
HETATM   27  C25 8UH 3 316     -32.782 128.876   6.176  1.00 16.22    -0.074 C 
HETATM   28  C26 8UH 3 316     -33.616 128.298   7.037  1.00 16.22    -0.048 C 
HETATM   29  C27 8UH 3 316     -34.225 128.994   8.179  1.00 16.22     0.009 C 
HETATM   30  C28 8UH 3 316     -34.681 130.215   7.930  1.00 16.22     0.007 C 
HETATM   31  C29 8UH 3 316     -35.538 130.903   8.926  1.00 87.05    -0.062 C 
HETATM   32  C30 8UH 3 316     -36.101 132.063   8.566  1.00 83.33     0.007 C 
HETATM   33  C31 8UH 3 316     -36.970 132.826   9.453  1.00 80.71     0.001 C 
HETATM   34  C32 8UH 3 316     -37.439 133.975   8.979  1.00 78.86     0.007 C 
HETATM   35  C33 8UH 3 316     -38.336 134.865   9.737  1.00 77.40    -0.062 C 
HETATM   36  C34 8UH 3 316     -38.810 135.957   9.119  1.00 76.14     0.007 C 
HETATM   37  C35 8UH 3 316     -39.720 136.883   9.781  1.00 74.61     0.001 C 
HETATM   38  C36 8UH 3 316     -33.269 125.981   7.455  1.00 16.22     0.020 C 
HETATM   39  C37 8UH 3 316     -35.601 126.837   7.155  1.00 16.22     0.020 C 
HETATM   40  C38 8UH 3 316     -31.944 130.061   6.522  1.00 16.22     0.044 C 
HETATM   41  C39 8UH 3 316     -35.773 130.322  10.290  1.00 86.53     0.048 C 
HETATM   42  C40 8UH 3 316     -38.705 134.559  11.157  1.00 77.09     0.048 C 
HETATM   43  O23 8UH 3 316     -33.311 126.946   3.093  1.00 16.22    -0.395 OA
ATOM     44  H23 8UH 3 316     -34.105 126.630   2.678  1.00  0.00     0.210 HD
ENDROOT
TORSDOF 12
BEGIN_RES PHE A  61
REMARK  2 active torsions:
REMARK  status: ('A' for Active; 'I' for Inactive)
REMARK    1  A    between atoms: CA   and  CB  
REMARK    2  A    between atoms: CB   and  CG  
ROOT
ATOM      1  CA  PHE A  61     -36.237 128.293  12.768  1.00 39.40     0.164 C 
ENDROOT
BRANCH   1   2
ATOM      2  CB  PHE A  61     -36.813 128.951  11.509  1.00 39.41     0.058 C 
BRANCH   2   3
ATOM      3  CG  PHE A  61     -37.115 127.989  10.385  1.00 39.01    -0.020 A 
ATOM      4  CD2 PHE A  61     -36.406 126.806  10.251  1.00 40.32    -0.004 A 
ATOM      5  CE2 PHE A  61     -36.682 125.924   9.214  1.00 40.20    -0.000 A 
ATOM      6  CZ  PHE A  61     -37.673 126.212   8.303  1.00 40.34    -0.000 A 
ATOM      7  CE1 PHE A  61     -38.388 127.383   8.423  1.00 41.51    -0.000 A 
ATOM      8  CD1 PHE A  61     -38.107 128.268   9.456  1.00 39.94    -0.004 A 
ENDBRANCH   2   3
ENDBRANCH   1   2
END_RES PHE A  61
BEGIN_RES VAL A 134
REMARK  1 active torsions:
REMARK  status: ('A' for Active; 'I' for Inactive)
REMARK    3  A    between atoms: CA   and  CB  
ROOT
ATOM      9  CA  VAL A 134     -29.766 132.051   9.815  1.00 40.75     0.159 C 
ENDROOT
BRANCH   9  10
ATOM     10  CB  VAL A 134     -30.864 132.765   9.009  1.00 40.76     0.029 C 
ATOM     11  CG1 VAL A 134     -30.850 132.307   7.558  1.00 41.76     0.002 C 
ATOM     12  CG2 VAL A 134     -32.238 132.559   9.627  1.00 40.56     0.002 C 
ENDBRANCH   9  10
END_RES VAL A 134
BEGIN_RES TYR A 338
REMARK  3 active torsions:
REMARK  status: ('A' for Active; 'I' for Inactive)
REMARK    4  A    between atoms: CA   and  CB  
REMARK    5  A    between atoms: CB   and  CG  
REMARK    6  A    between atoms: CZ   and  OH  
ROOT
ATOM     13  CA  TYR A 338     -41.631 124.950   6.058  1.00 38.23     0.164 C 
ENDROOT
BRANCH  13  14
ATOM     14  CB  TYR A 338     -41.621 126.456   6.339  1.00 39.15     0.058 C 
BRANCH  14  15
ATOM     15  CG  TYR A 338     -40.390 127.201   5.878  1.00 39.03    -0.020 A 
ATOM     16  CD2 TYR A 338     -40.225 128.541   6.187  1.00 40.65    -0.002 A 
ATOM     17  CE2 TYR A 338     -39.116 129.259   5.767  1.00 40.91     0.024 A 
ATOM     18  CZ  TYR A 338     -38.138 128.635   5.016  1.00 42.33     0.089 A 
ATOM     19  CE1 TYR A 338     -38.277 127.295   4.699  1.00 40.63     0.024 A 
ATOM     20  CD1 TYR A 338     -39.400 126.598   5.117  1.00 39.27    -0.002 A 
BRANCH  18  21
ATOM     21  OH  TYR A 338     -37.038 129.332   4.601  1.00 43.36    -0.359 OA
ATOM     22  HH  TYR A 338     -36.189 129.170   4.995  1.00  0.00     0.217 HD
ENDBRANCH  18  21
ENDBRANCH  14  15
ENDBRANCH  13  14
END_RES TYR A 338
ENDMDL
MODEL 3
REMARK VINA RESULT:    -7.630      1.778     16.634
REMARK INTER + INTRA:          -9.960
REMARK INTER:                  -6.933
REMARK INTRA:                  -3.027
REMARK UNBOUND:                -2.329
REMARK  0 active torsions:
REMARK  status: ('A' for Active; 'I' for Inactive)
REMARK       I    between atoms: C3_3  and  O3_21 
REMARK       I    between atoms: C6_6  and  C7_7 
REMARK       I    between atoms: C8_8  and  C9_9 
REMARK       I    between atoms: C10_10  and  C11_11 
REMARK       I    between atoms: C12_12  and  C13_13 
REMARK       I    between atoms: C14_14  and  C15_15 
REMARK       I    between atoms: C23_25  and  O23_43 
REMARK       I    between atoms: C26_28  and  C27_29 
REMARK       I    between atoms: C28_30  and  C29_31 
REMARK       I    between atoms: C30_32  and  C31_33 
REMARK       I    between atoms: C32_34  and  C33_35 
REMARK       I    between atoms: C34_36  and  C35_37 
ROOT
HETATM    1  C1  8UH 3 316     -48.870 147.768   8.635  1.00 78.71    -0.018 C 
HETATM    2  C2  8UH 3 316     -50.378 147.703   8.382  1.00 77.73     0.045 C 
HETATM    3  C3  8UH 3 316     -51.227 147.181   9.534  1.00 76.79     0.123 C 
HETATM    4  C4  8UH 3 316     -50.753 147.789  10.840  1.00 76.86     0.066 C 
HETATM    5  C5  8UH 3 316     -49.328 147.359  11.056  1.00 77.66    -0.074 C 
HETATM    6  C6  8UH 3 316     -48.454 147.401  10.049  1.00 78.84    -0.048 C 
HETATM    7  C7  8UH 3 316     -47.033 147.062  10.296  1.00 78.35     0.009 C 
HETATM    8  C8  8UH 3 316     -46.665 145.784  10.370  1.00 77.95     0.007 C 
HETATM    9  C9  8UH 3 316     -45.267 145.379  10.602  1.00 78.35    -0.062 C 
HETATM   10  C10 8UH 3 316     -44.978 144.071  10.550  1.00 77.38     0.007 C 
HETATM   11  C11 8UH 3 316     -43.636 143.532  10.739  1.00 77.06     0.001 C 
HETATM   12  C12 8UH 3 316     -43.473 142.261  10.386  1.00 77.59     0.007 C 
HETATM   13  C13 8UH 3 316     -42.193 141.534  10.472  1.00 77.36    -0.062 C 
HETATM   14  C14 8UH 3 316     -42.164 140.278  10.004  1.00 75.86     0.007 C 
HETATM   15  C15 8UH 3 316     -40.959 139.457  10.006  1.00 74.54     0.001 C 
HETATM   16  C16 8UH 3 316     -48.388 149.185   8.345  1.00 78.56     0.020 C 
HETATM   17  C17 8UH 3 316     -48.180 146.801   7.677  1.00 78.60     0.020 C 
HETATM   18  C18 8UH 3 316     -48.883 147.113  12.470  1.00 77.80     0.044 C 
HETATM   19  C19 8UH 3 316     -44.205 146.402  10.878  1.00 79.41     0.048 C 
HETATM   20  C20 8UH 3 316     -40.968 142.181  11.050  1.00 77.68     0.048 C 
HETATM   21  O3  8UH 3 316     -52.600 147.532   9.326  1.00 76.23    -0.395 OA
ATOM     22  H3  8UH 3 316     -53.129 147.206  10.045  1.00  0.00     0.210 HD
HETATM   23  C21 8UH 3 316     -33.636 129.454   6.859  1.00 16.22    -0.018 C 
HETATM   24  C22 8UH 3 316     -32.271 129.827   6.324  1.00 16.22     0.045 C 
HETATM   25  C23 8UH 3 316     -31.466 130.715   7.227  1.00 16.22     0.123 C 
HETATM   26  C24 8UH 3 316     -31.605 130.159   8.619  1.00 16.22     0.066 C 
HETATM   27  C25 8UH 3 316     -33.023 130.423   9.009  1.00 16.22    -0.074 C 
HETATM   28  C26 8UH 3 316     -33.999 130.026   8.197  1.00 16.22    -0.048 C 
HETATM   29  C27 8UH 3 316     -35.420 130.330   8.416  1.00 16.22     0.009 C 
HETATM   30  C28 8UH 3 316     -35.689 131.574   8.795  1.00 16.22     0.007 C 
HETATM   31  C29 8UH 3 316     -37.089 132.062   8.793  1.00 87.05    -0.062 C 
HETATM   32  C30 8UH 3 316     -37.294 133.363   9.031  1.00 83.33     0.007 C 
HETATM   33  C31 8UH 3 316     -38.623 133.963   9.046  1.00 80.71     0.001 C 
HETATM   34  C32 8UH 3 316     -38.685 135.260   9.324  1.00 78.86     0.007 C 
HETATM   35  C33 8UH 3 316     -39.943 136.025   9.371  1.00 77.40    -0.062 C 
HETATM   36  C34 8UH 3 316     -39.868 137.348   9.580  1.00 76.14     0.007 C 
HETATM   37  C35 8UH 3 316     -41.058 138.189   9.621  1.00 74.61     0.001 C 
HETATM   38  C36 8UH 3 316     -33.668 127.952   7.079  1.00 16.22     0.020 C 
HETATM   39  C37 8UH 3 316     -34.625 129.887   5.814  1.00 16.22     0.020 C 
HETATM   40  C38 8UH 3 316     -33.235 130.723  10.455  1.00 16.22     0.044 C 
HETATM   41  C39 8UH 3 316     -38.240 131.135   8.531  1.00 86.53     0.048 C 
HETATM   42  C40 8UH 3 316     -41.266 135.343   9.193  1.00 77.09     0.048 C 
HETATM   43  O23 8UH 3 316     -30.123 130.653   6.761  1.00 16.22    -0.395 OA
ATOM     44  H23 8UH 3 316     -30.036 131.004   5.883  1.00  0.00     0.210 HD
ENDROOT
TORSDOF 12
BEGIN_RES PHE A  61
REMARK  2 active torsions:
REMARK  status: ('A' for Active; 'I' for Inactive)
REMARK    1  A    between atoms: CA   and  CB  
REMARK    2  A    between atoms: CB   and  CG  
ROOT
ATOM      1  CA  PHE A  61     -36.237 128.293  12.768  1.00 39.40     0.164 C 
ENDROOT
BRANCH   1   2
ATOM      2  CB  PHE A  61     -36.813 128.951  11.509  1.00 39.41     0.058 C 
BRANCH   2   3
ATOM      3  CG  PHE A  61     -36.716 128.105  10.262  1.00 39.01    -0.020 A 
ATOM      4  CD2 PHE A  61     -37.761 128.053   9.354  1.00 40.32    -0.004 A 
ATOM      5  CE2 PHE A  61     -37.671 127.272   8.209  1.00 40.20    -0.000 A 
ATOM      6  CZ  PHE A  61     -36.535 126.536   7.958  1.00 40.34    -0.000 A 
ATOM      7  CE1 PHE A  61     -35.487 126.578   8.850  1.00 41.51    -0.000 A 
ATOM      8  CD1 PHE A  61     -35.579 127.354   9.998  1.00 39.94    -0.004 A 
ENDBRANCH   2   3
ENDBRANCH   1   2
END_RES PHE A  61
BEGIN_RES VAL A 134
REMARK  1 active torsions:
REMARK  status: ('A' for Active; 'I' for Inactive)
REMARK    3  A    between atoms: CA   and  CB  
ROOT
ATOM      9  CA  VAL A 134     -29.766 132.051   9.815  1.00 40.75     0.159 C 
ENDROOT
BRANCH   9  10
ATOM     10  CB  VAL A 134     -30.864 132.765   9.009  1.00 40.76     0.029 C 
ATOM     11  CG1 VAL A 134     -31.929 133.332   9.936  1.00 41.76     0.002 C 
ATOM     12  CG2 VAL A 134     -30.288 133.855   8.118  1.00 40.56     0.002 C 
ENDBRANCH   9  10
END_RES VAL A 134
BEGIN_RES TYR A 338
REMARK  3 active torsions:
REMARK  status: ('A' for Active; 'I' for Inactive)
REMARK    4  A    between atoms: CA   and  CB  
REMARK    5  A    between atoms: CB   and  CG  
REMARK    6  A    between atoms: CZ   and  OH  
ROOT
ATOM     13  CA  TYR A 338     -41.631 124.950   6.058  1.00 38.23     0.164 C 
ENDROOT
BRANCH  13  14
ATOM     14  CB  TYR A 338     -41.621 126.456   6.339  1.00 39.15     0.058 C 
BRANCH  14  15
ATOM     15  CG  TYR A 338     -40.403 127.206   5.852  1.00 39.03    -0.020 A 
ATOM     16  CD2 TYR A 338     -40.232 128.544   6.164  1.00 40.65    -0.002 A 
ATOM     17  CE2 TYR A 338     -39.135 129.267   5.722  1.00 40.91     0.024 A 
ATOM     18  CZ  TYR A 338     -38.175 128.649   4.944  1.00 42.33     0.089 A 
ATOM     19  CE1 TYR A 338     -38.320 127.311   4.622  1.00 40.63     0.024 A 
ATOM     20  CD1 TYR A 338     -39.431 126.609   5.064  1.00 39.27    -0.002 A 
BRANCH  18  21
ATOM     21  OH  TYR A 338     -37.087 129.351   4.505  1.00 43.36    -0.359 OA
ATOM     22  HH  TYR A 338     -36.881 129.388   3.578  1.00  0.00     0.217 HD
ENDBRANCH  18  21
ENDBRANCH  14  15
ENDBRANCH  13  14
END_RES TYR A 338
ENDMDL
