MODEL 1
REMARK VINA RESULT:   -12.372      0.000      0.000
REMARK INTER + INTRA:         -12.482
REMARK INTER:                 -12.372
REMARK INTRA:                  -0.110
REMARK UNBOUND:                -0.110
REMARK  0 active torsions:
REMARK  status: ('A' for Active; 'I' for Inactive)
REMARK       I    between atoms: C3_3  and  O3_21 
REMARK       I    between atoms: C6_6  and  C7_7 
REMARK       I    between atoms: C8_8  and  C9_9 
REMARK       I    between atoms: C10_10  and  C11_11 
REMARK       I    between atoms: C12_12  and  C13_13 
REMARK       I    between atoms: C14_14  and  C15_15 
REMARK       I    between atoms: C23_25  and  O23_43 
REMARK       I    between atoms: C26_28  and  C27_29 
REMARK       I    between atoms: C28_30  and  C29_31 
REMARK       I    between atoms: C30_32  and  C31_33 
REMARK       I    between atoms: C32_34  and  C33_35 
REMARK       I    between atoms: C34_36  and  C35_37 
ROOT
HETATM    1  C1  8UH 61620     -49.925 144.150  12.546  1.00 97.95    -0.018 C 
HETATM    2  C2  8UH 61620     -50.298 144.576  13.962  1.00 97.95     0.045 C 
HETATM    3  C3  8UH 61620     -49.578 145.782  14.540  1.00 97.95     0.123 C 
HETATM    4  C4  8UH 61620     -49.317 146.833  13.487  1.00 97.95     0.066 C 
HETATM    5  C5  8UH 61620     -48.538 146.214  12.366  1.00 97.95    -0.074 C 
HETATM    6  C6  8UH 61620     -48.838 144.993  11.908  1.00 97.95    -0.048 C 
HETATM    7  C7  8UH 61620     -48.109 144.423  10.749  1.00 97.95     0.009 C 
HETATM    8  C8  8UH 61620     -46.992 143.716  10.913  1.00 97.95     0.007 C 
HETATM    9  C9  8UH 61620     -46.261 143.128   9.789  1.00 97.95    -0.062 C 
HETATM   10  C10 8UH 61620     -45.211 142.371  10.095  1.00 97.95     0.007 C 
HETATM   11  C11 8UH 61620     -44.388 141.703   9.102  1.00 97.95     0.001 C 
HETATM   12  C12 8UH 61620     -43.389 141.006   9.614  1.00 97.95     0.007 C 
HETATM   13  C13 8UH 61620     -42.447 140.224   8.805  1.00 97.95    -0.062 C 
HETATM   14  C14 8UH 61620     -41.722 139.332   9.478  1.00 97.95     0.007 C 
HETATM   15  C15 8UH 61620     -40.770 138.441   8.844  1.00 97.95     0.001 C 
HETATM   16  C16 8UH 61620     -51.210 144.178  11.723  1.00 97.95     0.020 C 
HETATM   17  C17 8UH 61620     -49.414 142.716  12.605  1.00 97.95     0.020 C 
HETATM   18  C18 8UH 61620     -47.511 147.097  11.721  1.00 97.95     0.044 C 
HETATM   19  C19 8UH 61620     -46.684 143.368   8.372  1.00 97.95     0.048 C 
HETATM   20  C20 8UH 61620     -42.321 140.402   7.323  1.00 97.95     0.048 C 
HETATM   21  O3  8UH 61620     -50.397 146.369  15.558  1.00 97.95    -0.395 OA
ATOM     22  H3  8UH 61620     -49.946 147.123  15.920  1.00  0.00     0.210 HD
HETATM   23  C21 8UH 61620     -34.178 128.022   7.022  1.00 25.46    -0.018 C 
HETATM   24  C22 8UH 61620     -33.490 127.478   5.774  1.00 25.46     0.045 C 
HETATM   25  C23 8UH 61620     -32.323 128.278   5.221  1.00 25.46     0.123 C 
HETATM   26  C24 8UH 61620     -31.489 128.832   6.355  1.00 25.46     0.066 C 
HETATM   27  C25 8UH 61620     -32.378 129.720   7.174  1.00 25.46    -0.074 C 
HETATM   28  C26 8UH 61620     -33.564 129.280   7.609  1.00 25.46    -0.048 C 
HETATM   29  C27 8UH 61620     -34.281 129.986   8.709  1.00 25.46     0.009 C 
HETATM   30  C28 8UH 61620     -35.082 131.029   8.476  1.00 25.46     0.007 C 
HETATM   31  C29 8UH 61620     -35.815 131.755   9.509  1.00 97.95    -0.062 C 
HETATM   32  C30 8UH 61620     -36.578 132.755   9.078  1.00 97.95     0.007 C 
HETATM   33  C31 8UH 61620     -37.402 133.600   9.919  1.00 97.95     0.001 C 
HETATM   34  C32 8UH 61620     -38.043 134.524   9.225  1.00 97.95     0.007 C 
HETATM   35  C33 8UH 61620     -38.947 135.494   9.837  1.00 97.95    -0.062 C 
HETATM   36  C34 8UH 61620     -39.514 136.390   9.029  1.00 97.95     0.007 C 
HETATM   37  C35 8UH 61620     -40.437 137.376   9.558  1.00 97.95     0.001 C 
HETATM   38  C36 8UH 61620     -34.230 126.891   8.043  1.00 25.46     0.020 C 
HETATM   39  C37 8UH 61620     -35.593 128.398   6.628  1.00 25.46     0.020 C 
HETATM   40  C38 8UH 61620     -31.566 130.715   7.940  1.00 25.46     0.044 C 
HETATM   41  C39 8UH 61620     -35.720 131.385  10.958  1.00 97.95     0.048 C 
HETATM   42  C40 8UH 61620     -39.215 135.473  11.308  1.00 97.95     0.048 C 
HETATM   43  O23 8UH 61620     -31.514 127.408   4.425  1.00 25.46    -0.395 OA
ATOM     44  H23 8UH 61620     -32.038 127.061   3.714  1.00  0.00     0.210 HD
ENDROOT
TORSDOF 12
BEGIN_RES PHE A  61
REMARK  2 active torsions:
REMARK  status: ('A' for Active; 'I' for Inactive)
REMARK    1  A    between atoms: CA   and  CB  
REMARK    2  A    between atoms: CB   and  CG  
ROOT
ATOM      1  CA  PHE A  61     -36.237 128.293  12.768  1.00 39.40     0.164 C 
ENDROOT
BRANCH   1   2
ATOM      2  CB  PHE A  61     -36.813 128.951  11.509  1.00 39.41     0.058 C 
BRANCH   2   3
ATOM      3  CG  PHE A  61     -37.047 128.000  10.360  1.00 39.01    -0.020 A 
ATOM      4  CD2 PHE A  61     -36.328 126.820  10.254  1.00 40.32    -0.004 A 
ATOM      5  CE2 PHE A  61     -36.542 125.948   9.194  1.00 40.20    -0.000 A 
ATOM      6  CZ  PHE A  61     -37.480 126.243   8.231  1.00 40.34    -0.000 A 
ATOM      7  CE1 PHE A  61     -38.205 127.411   8.323  1.00 41.51    -0.000 A 
ATOM      8  CD1 PHE A  61     -37.986 128.286   9.379  1.00 39.94    -0.004 A 
ENDBRANCH   2   3
ENDBRANCH   1   2
END_RES PHE A  61
BEGIN_RES VAL A 134
REMARK  1 active torsions:
REMARK  status: ('A' for Active; 'I' for Inactive)
REMARK    3  A    between atoms: CA   and  CB  
ROOT
ATOM      9  CA  VAL A 134     -29.766 132.051   9.815  1.00 40.75     0.159 C 
ENDROOT
BRANCH   9  10
ATOM     10  CB  VAL A 134     -30.864 132.765   9.009  1.00 40.76     0.029 C 
ATOM     11  CG1 VAL A 134     -32.108 132.973   9.861  1.00 41.76     0.002 C 
ATOM     12  CG2 VAL A 134     -30.372 134.086   8.439  1.00 40.56     0.002 C 
ENDBRANCH   9  10
END_RES VAL A 134
BEGIN_RES TYR A 338
REMARK  3 active torsions:
REMARK  status: ('A' for Active; 'I' for Inactive)
REMARK    4  A    between atoms: CA   and  CB  
REMARK    5  A    between atoms: CB   and  CG  
REMARK    6  A    between atoms: CZ   and  OH  
ROOT
ATOM     13  CA  TYR A 338     -41.631 124.950   6.058  1.00 38.23     0.164 C 
ENDROOT
BRANCH  13  14
ATOM     14  CB  TYR A 338     -41.621 126.456   6.339  1.00 39.15     0.058 C 
BRANCH  14  15
ATOM     15  CG  TYR A 338     -40.419 127.212   5.822  1.00 39.03    -0.020 A 
ATOM     16  CD2 TYR A 338     -40.266 128.560   6.099  1.00 40.65    -0.002 A 
ATOM     17  CE2 TYR A 338     -39.184 129.288   5.628  1.00 40.91     0.024 A 
ATOM     18  CZ  TYR A 338     -38.222 128.665   4.855  1.00 42.33     0.089 A 
ATOM     19  CE1 TYR A 338     -38.351 127.317   4.568  1.00 40.63     0.024 A 
ATOM     20  CD1 TYR A 338     -39.447 126.610   5.038  1.00 39.27    -0.002 A 
BRANCH  18  21
ATOM     21  OH  TYR A 338     -37.149 129.372   4.389  1.00 43.36    -0.359 OA
ATOM     22  HH  TYR A 338     -37.267 130.246   4.035  1.00  0.00     0.217 HD
ENDBRANCH  18  21
ENDBRANCH  14  15
ENDBRANCH  13  14
END_RES TYR A 338
ENDMDL
MODEL 2
REMARK VINA RESULT:   -11.780      1.410     16.461
REMARK INTER + INTRA:         -11.889
REMARK INTER:                  -9.127
REMARK INTRA:                  -2.762
REMARK UNBOUND:                -0.110
REMARK  0 active torsions:
REMARK  status: ('A' for Active; 'I' for Inactive)
REMARK       I    between atoms: C3_3  and  O3_21 
REMARK       I    between atoms: C6_6  and  C7_7 
REMARK       I    between atoms: C8_8  and  C9_9 
REMARK       I    between atoms: C10_10  and  C11_11 
REMARK       I    between atoms: C12_12  and  C13_13 
REMARK       I    between atoms: C14_14  and  C15_15 
REMARK       I    between atoms: C23_25  and  O23_43 
REMARK       I    between atoms: C26_28  and  C27_29 
REMARK       I    between atoms: C28_30  and  C29_31 
REMARK       I    between atoms: C30_32  and  C31_33 
REMARK       I    between atoms: C32_34  and  C33_35 
REMARK       I    between atoms: C34_36  and  C35_37 
ROOT
HETATM    1  C1  8UH 61620     -34.480 128.102   6.547  1.00 97.95    -0.018 C 
HETATM    2  C2  8UH 61620     -33.675 127.829   5.282  1.00 97.95     0.045 C 
HETATM    3  C3  8UH 61620     -32.290 128.446   5.188  1.00 97.95     0.123 C 
HETATM    4  C4  8UH 61620     -31.594 128.458   6.529  1.00 97.95     0.066 C 
HETATM    5  C5  8UH 61620     -32.455 129.188   7.516  1.00 97.95    -0.074 C 
HETATM    6  C6  8UH 61620     -33.780 129.000   7.549  1.00 97.95    -0.048 C 
HETATM    7  C7  8UH 61620     -34.610 129.670   8.579  1.00 97.95     0.009 C 
HETATM    8  C8  8UH 61620     -35.128 130.879   8.372  1.00 97.95     0.007 C 
HETATM    9  C9  8UH 61620     -35.965 131.558   9.363  1.00 97.95    -0.062 C 
HETATM   10  C10 8UH 61620     -36.494 132.722   8.998  1.00 97.95     0.007 C 
HETATM   11  C11 8UH 61620     -37.358 133.514   9.855  1.00 97.95     0.001 C 
HETATM   12  C12 8UH 61620     -37.771 134.642   9.304  1.00 97.95     0.007 C 
HETATM   13  C13 8UH 61620     -38.675 135.586   9.971  1.00 97.95    -0.062 C 
HETATM   14  C14 8UH 61620     -39.248 136.486   9.173  1.00 97.95     0.007 C 
HETATM   15  C15 8UH 61620     -40.202 137.472   9.643  1.00 97.95     0.001 C 
HETATM   16  C16 8UH 61620     -34.821 126.745   7.156  1.00 97.95     0.020 C 
HETATM   17  C17 8UH 61620     -35.775 128.795   6.142  1.00 97.95     0.020 C 
HETATM   18  C18 8UH 61620     -31.724 130.021   8.527  1.00 97.95     0.044 C 
HETATM   19  C19 8UH 61620     -36.211 130.961  10.715  1.00 97.95     0.048 C 
HETATM   20  C20 8UH 61620     -38.950 135.532  11.442  1.00 97.95     0.048 C 
HETATM   21  O3  8UH 61620     -31.495 127.670   4.284  1.00 97.95    -0.395 OA
ATOM     22  H3  8UH 61620     -30.629 128.056   4.226  1.00  0.00     0.210 HD
HETATM   23  C21 8UH 61620     -50.040 145.112   9.223  1.00 25.46    -0.018 C 
HETATM   24  C22 8UH 61620     -50.877 145.730  10.340  1.00 25.46     0.045 C 
HETATM   25  C23 8UH 61620     -50.183 146.720  11.258  1.00 25.46     0.123 C 
HETATM   26  C24 8UH 61620     -49.236 147.591  10.464  1.00 25.46     0.066 C 
HETATM   27  C25 8UH 61620     -48.222 146.686   9.827  1.00 25.46    -0.074 C 
HETATM   28  C26 8UH 61620     -48.613 145.619   9.122  1.00 25.46    -0.048 C 
HETATM   29  C27 8UH 61620     -47.670 144.937   8.189  1.00 25.46     0.009 C 
HETATM   30  C28 8UH 61620     -46.826 143.989   8.605  1.00 25.46     0.007 C 
HETATM   31  C29 8UH 61620     -45.886 143.282   7.739  1.00 97.95    -0.062 C 
HETATM   32  C30 8UH 61620     -45.140 142.357   8.335  1.00 97.95     0.007 C 
HETATM   33  C31 8UH 61620     -44.156 141.524   7.673  1.00 97.95     0.001 C 
HETATM   34  C32 8UH 61620     -43.551 140.701   8.511  1.00 97.95     0.007 C 
HETATM   35  C33 8UH 61620     -42.525 139.750   8.092  1.00 97.95    -0.062 C 
HETATM   36  C34 8UH 61620     -41.976 138.991   9.040  1.00 97.95     0.007 C 
HETATM   37  C35 8UH 61620     -40.962 138.011   8.702  1.00 97.95     0.001 C 
HETATM   38  C36 8UH 61620     -50.803 145.313   7.918  1.00 25.46     0.020 C 
HETATM   39  C37 8UH 61620     -49.931 143.627   9.510  1.00 25.46     0.020 C 
HETATM   40  C38 8UH 61620     -46.972 147.441   9.507  1.00 25.46     0.044 C 
HETATM   41  C39 8UH 61620     -45.784 143.575   6.273  1.00 97.95     0.048 C 
HETATM   42  C40 8UH 61620     -42.117 139.643   6.657  1.00 97.95     0.048 C 
HETATM   43  O23 8UH 61620     -51.179 147.545  11.868  1.00 25.46    -0.395 OA
ATOM     44  H23 8UH 61620     -51.774 146.998  12.367  1.00  0.00     0.210 HD
ENDROOT
TORSDOF 12
BEGIN_RES PHE A  61
REMARK  2 active torsions:
REMARK  status: ('A' for Active; 'I' for Inactive)
REMARK    1  A    between atoms: CA   and  CB  
REMARK    2  A    between atoms: CB   and  CG  
ROOT
ATOM      1  CA  PHE A  61     -36.237 128.293  12.768  1.00 39.40     0.164 C 
ENDROOT
BRANCH   1   2
ATOM      2  CB  PHE A  61     -36.813 128.951  11.509  1.00 39.41     0.058 C 
BRANCH   2   3
ATOM      3  CG  PHE A  61     -37.024 128.005  10.351  1.00 39.01    -0.020 A 
ATOM      4  CD2 PHE A  61     -36.273 126.846  10.233  1.00 40.32    -0.004 A 
ATOM      5  CE2 PHE A  61     -36.466 125.978   9.166  1.00 40.20    -0.000 A 
ATOM      6  CZ  PHE A  61     -37.415 126.256   8.208  1.00 40.34    -0.000 A 
ATOM      7  CE1 PHE A  61     -38.171 127.403   8.312  1.00 41.51    -0.000 A 
ATOM      8  CD1 PHE A  61     -37.974 128.274   9.376  1.00 39.94    -0.004 A 
ENDBRANCH   2   3
ENDBRANCH   1   2
END_RES PHE A  61
BEGIN_RES VAL A 134
REMARK  1 active torsions:
REMARK  status: ('A' for Active; 'I' for Inactive)
REMARK    3  A    between atoms: CA   and  CB  
ROOT
ATOM      9  CA  VAL A 134     -29.766 132.051   9.815  1.00 40.75     0.159 C 
ENDROOT
BRANCH   9  10
ATOM     10  CB  VAL A 134     -30.864 132.765   9.009  1.00 40.76     0.029 C 
ATOM     11  CG1 VAL A 134     -30.875 132.280   7.567  1.00 41.76     0.002 C 
ATOM     12  CG2 VAL A 134     -32.233 132.590   9.648  1.00 40.56     0.002 C 
ENDBRANCH   9  10
END_RES VAL A 134
BEGIN_RES TYR A 338
REMARK  3 active torsions:
REMARK  status: ('A' for Active; 'I' for Inactive)
REMARK    4  A    between atoms: CA   and  CB  
REMARK    5  A    between atoms: CB   and  CG  
REMARK    6  A    between atoms: CZ   and  OH  
ROOT
ATOM     13  CA  TYR A 338     -41.631 124.950   6.058  1.00 38.23     0.164 C 
ENDROOT
BRANCH  13  14
ATOM     14  CB  TYR A 338     -41.621 126.456   6.339  1.00 39.15     0.058 C 
BRANCH  14  15
ATOM     15  CG  TYR A 338     -40.436 127.218   5.791  1.00 39.03    -0.020 A 
ATOM     16  CD2 TYR A 338     -40.292 128.570   6.051  1.00 40.65    -0.002 A 
ATOM     17  CE2 TYR A 338     -39.226 129.303   5.552  1.00 40.91     0.024 A 
ATOM     18  CZ  TYR A 338     -38.272 128.681   4.769  1.00 42.33     0.089 A 
ATOM     19  CE1 TYR A 338     -38.391 127.329   4.500  1.00 40.63     0.024 A 
ATOM     20  CD1 TYR A 338     -39.472 126.616   4.998  1.00 39.27    -0.002 A 
BRANCH  18  21
ATOM     21  OH  TYR A 338     -37.214 129.393   4.276  1.00 43.36    -0.359 OA
ATOM     22  HH  TYR A 338     -36.480 128.945   3.872  1.00  0.00     0.217 HD
ENDBRANCH  18  21
ENDBRANCH  14  15
ENDBRANCH  13  14
END_RES TYR A 338
ENDMDL
