MODEL 1
REMARK VINA RESULT:   -11.379      0.000      0.000
REMARK INTER + INTRA:         -12.126
REMARK INTER:                 -11.379
REMARK INTRA:                  -0.747
REMARK UNBOUND:                -0.747
REMARK  0 active torsions:
REMARK  status: ('A' for Active; 'I' for Inactive)
REMARK       I    between atoms: C3_3  and  O3_21 
REMARK       I    between atoms: C6_6  and  C7_7 
REMARK       I    between atoms: C8_8  and  C9_9 
REMARK       I    between atoms: C10_10  and  C11_11 
REMARK       I    between atoms: C12_12  and  C13_13 
REMARK       I    between atoms: C14_14  and  C15_15 
REMARK       I    between atoms: C23_25  and  O23_43 
REMARK       I    between atoms: C26_28  and  C27_29 
REMARK       I    between atoms: C28_30  and  C29_31 
REMARK       I    between atoms: C30_32  and  C31_33 
REMARK       I    between atoms: C32_34  and  C33_35 
REMARK       I    between atoms: C34_36  and  C35_37 
ROOT
HETATM    1  C1  8UH 21620     -50.173 144.269  12.432  1.00 97.95    -0.018 C 
HETATM    2  C2  8UH 21620     -50.651 144.584  13.845  1.00 97.95     0.045 C 
HETATM    3  C3  8UH 21620     -49.970 145.731  14.573  1.00 97.95     0.123 C 
HETATM    4  C4  8UH 21620     -49.622 146.861  13.630  1.00 97.95     0.066 C 
HETATM    5  C5  8UH 21620     -48.763 146.324  12.525  1.00 97.95    -0.074 C 
HETATM    6  C6  8UH 21620     -49.034 145.148  11.949  1.00 97.95    -0.048 C 
HETATM    7  C7  8UH 21620     -48.221 144.663  10.808  1.00 97.95     0.009 C 
HETATM    8  C8  8UH 21620     -47.123 143.933  11.000  1.00 97.95     0.007 C 
HETATM    9  C9  8UH 21620     -46.310 143.427   9.892  1.00 97.95    -0.062 C 
HETATM   10  C10 8UH 21620     -45.292 142.636  10.215  1.00 97.95     0.007 C 
HETATM   11  C11 8UH 21620     -44.399 142.039   9.239  1.00 97.95     0.001 C 
HETATM   12  C12 8UH 21620     -43.446 141.291   9.768  1.00 97.95     0.007 C 
HETATM   13  C13 8UH 21620     -42.449 140.566   8.975  1.00 97.95    -0.062 C 
HETATM   14  C14 8UH 21620     -41.782 139.614   9.627  1.00 97.95     0.007 C 
HETATM   15  C15 8UH 21620     -40.790 138.765   8.997  1.00 97.95     0.001 C 
HETATM   16  C16 8UH 21620     -51.390 144.379  11.519  1.00 97.95     0.020 C 
HETATM   17  C17 8UH 21620     -49.675 142.829  12.412  1.00 97.95     0.020 C 
HETATM   18  C18 8UH 21620     -47.684 147.244  12.033  1.00 97.95     0.044 C 
HETATM   19  C19 8UH 21620     -46.621 143.785   8.471  1.00 97.95     0.048 C 
HETATM   20  C20 8UH 21620     -42.207 140.860   7.525  1.00 97.95     0.048 C 
HETATM   21  O3  8UH 21620     -50.860 146.244  15.570  1.00 97.95    -0.395 OA
ATOM     22  H3  8UH 21620     -51.079 145.535  16.162  1.00  0.00     0.210 HD
HETATM   23  C21 8UH 21620     -34.143 128.410   6.963  1.00 87.69    -0.018 C 
HETATM   24  C22 8UH 21620     -33.446 128.109   5.649  1.00 87.69     0.045 C 
HETATM   25  C23 8UH 21620     -31.928 128.246   5.633  1.00 87.69     0.123 C 
HETATM   26  C24 8UH 21620     -31.359 129.271   6.603  1.00 87.69     0.066 C 
HETATM   27  C25 8UH 21620     -32.409 130.142   7.243  1.00 87.69    -0.074 C 
HETATM   28  C26 8UH 21620     -33.589 129.650   7.613  1.00 87.69    -0.048 C 
HETATM   29  C27 8UH 21620     -34.373 130.283   8.698  1.00 87.69     0.009 C 
HETATM   30  C28 8UH 21620     -35.134 131.346   8.460  1.00 87.69     0.007 C 
HETATM   31  C29 8UH 21620     -35.940 131.989   9.503  1.00 97.95    -0.062 C 
HETATM   32  C30 8UH 21620     -36.660 133.029   9.095  1.00 97.95     0.007 C 
HETATM   33  C31 8UH 21620     -37.543 133.814   9.936  1.00 97.95     0.001 C 
HETATM   34  C32 8UH 21620     -38.124 134.798   9.272  1.00 97.95     0.007 C 
HETATM   35  C33 8UH 21620     -39.067 135.728   9.888  1.00 97.95    -0.062 C 
HETATM   36  C34 8UH 21620     -39.565 136.691   9.113  1.00 97.95     0.007 C 
HETATM   37  C35 8UH 21620     -40.519 137.643   9.648  1.00 97.95     0.001 C 
HETATM   38  C36 8UH 21620     -34.072 127.211   7.903  1.00 87.69     0.020 C 
HETATM   39  C37 8UH 21620     -35.597 128.677   6.645  1.00 87.69     0.020 C 
HETATM   40  C38 8UH 21620     -31.595 130.988   8.171  1.00 87.69     0.044 C 
HETATM   41  C39 8UH 21620     -35.960 131.503  10.920  1.00 97.95     0.048 C 
HETATM   42  C40 8UH 21620     -39.447 135.592  11.329  1.00 97.95     0.048 C 
HETATM   43  O23 8UH 21620     -31.386 126.971   5.968  1.00 87.69    -0.395 OA
ATOM     44  H23 8UH 21620     -30.440 127.056   5.959  1.00  0.00     0.210 HD
ENDROOT
TORSDOF 12
BEGIN_RES PHE A  61
REMARK  2 active torsions:
REMARK  status: ('A' for Active; 'I' for Inactive)
REMARK    1  A    between atoms: CA   and  CB  
REMARK    2  A    between atoms: CB   and  CG  
ROOT
ATOM      1  CA  PHE A  61     -36.237 128.293  12.768  1.00 39.40     0.164 C 
ENDROOT
BRANCH   1   2
ATOM      2  CB  PHE A  61     -36.813 128.951  11.509  1.00 39.41     0.058 C 
BRANCH   2   3
ATOM      3  CG  PHE A  61     -36.999 128.010  10.343  1.00 39.01    -0.020 A 
ATOM      4  CD2 PHE A  61     -36.200 126.887  10.199  1.00 40.32    -0.004 A 
ATOM      5  CE2 PHE A  61     -36.370 126.024   9.124  1.00 40.20    -0.000 A 
ATOM      6  CZ  PHE A  61     -37.344 126.272   8.183  1.00 40.34    -0.000 A 
ATOM      7  CE1 PHE A  61     -38.148 127.382   8.313  1.00 41.51    -0.000 A 
ATOM      8  CD1 PHE A  61     -37.974 128.249   9.384  1.00 39.94    -0.004 A 
ENDBRANCH   2   3
ENDBRANCH   1   2
END_RES PHE A  61
BEGIN_RES VAL A 134
REMARK  1 active torsions:
REMARK  status: ('A' for Active; 'I' for Inactive)
REMARK    3  A    between atoms: CA   and  CB  
ROOT
ATOM      9  CA  VAL A 134     -29.766 132.051   9.815  1.00 40.75     0.159 C 
ENDROOT
BRANCH   9  10
ATOM     10  CB  VAL A 134     -30.864 132.765   9.009  1.00 40.76     0.029 C 
ATOM     11  CG1 VAL A 134     -32.094 133.007   9.872  1.00 41.76     0.002 C 
ATOM     12  CG2 VAL A 134     -30.361 134.068   8.407  1.00 40.56     0.002 C 
ENDBRANCH   9  10
END_RES VAL A 134
BEGIN_RES TYR A 338
REMARK  3 active torsions:
REMARK  status: ('A' for Active; 'I' for Inactive)
REMARK    4  A    between atoms: CA   and  CB  
REMARK    5  A    between atoms: CB   and  CG  
REMARK    6  A    between atoms: CZ   and  OH  
ROOT
ATOM     13  CA  TYR A 338     -41.631 124.950   6.058  1.00 38.23     0.164 C 
ENDROOT
BRANCH  13  14
ATOM     14  CB  TYR A 338     -41.621 126.456   6.339  1.00 39.15     0.058 C 
BRANCH  14  15
ATOM     15  CG  TYR A 338     -40.417 127.211   5.826  1.00 39.03    -0.020 A 
ATOM     16  CD2 TYR A 338     -40.263 128.558   6.105  1.00 40.65    -0.002 A 
ATOM     17  CE2 TYR A 338     -39.179 129.286   5.638  1.00 40.91     0.024 A 
ATOM     18  CZ  TYR A 338     -38.216 128.663   4.867  1.00 42.33     0.089 A 
ATOM     19  CE1 TYR A 338     -38.345 127.316   4.578  1.00 40.63     0.024 A 
ATOM     20  CD1 TYR A 338     -39.443 126.609   5.044  1.00 39.27    -0.002 A 
BRANCH  18  21
ATOM     21  OH  TYR A 338     -37.141 129.369   4.404  1.00 43.36    -0.359 OA
ATOM     22  HH  TYR A 338     -36.952 130.236   4.745  1.00  0.00     0.217 HD
ENDBRANCH  18  21
ENDBRANCH  14  15
ENDBRANCH  13  14
END_RES TYR A 338
ENDMDL
MODEL 2
REMARK VINA RESULT:   -10.994      1.518     16.497
REMARK INTER + INTRA:         -11.741
REMARK INTER:                  -8.960
REMARK INTRA:                  -2.781
REMARK UNBOUND:                -0.747
REMARK  0 active torsions:
REMARK  status: ('A' for Active; 'I' for Inactive)
REMARK       I    between atoms: C3_3  and  O3_21 
REMARK       I    between atoms: C6_6  and  C7_7 
REMARK       I    between atoms: C8_8  and  C9_9 
REMARK       I    between atoms: C10_10  and  C11_11 
REMARK       I    between atoms: C12_12  and  C13_13 
REMARK       I    between atoms: C14_14  and  C15_15 
REMARK       I    between atoms: C23_25  and  O23_43 
REMARK       I    between atoms: C26_28  and  C27_29 
REMARK       I    between atoms: C28_30  and  C29_31 
REMARK       I    between atoms: C30_32  and  C31_33 
REMARK       I    between atoms: C32_34  and  C33_35 
REMARK       I    between atoms: C34_36  and  C35_37 
ROOT
HETATM    1  C1  8UH 21620     -34.450 127.907   6.490  1.00 97.95    -0.018 C 
HETATM    2  C2  8UH 21620     -33.714 127.603   5.190  1.00 97.95     0.045 C 
HETATM    3  C3  8UH 21620     -32.338 128.222   5.006  1.00 97.95     0.123 C 
HETATM    4  C4  8UH 21620     -31.571 128.271   6.307  1.00 97.95     0.066 C 
HETATM    5  C5  8UH 21620     -32.380 129.023   7.321  1.00 97.95    -0.074 C 
HETATM    6  C6  8UH 21620     -33.700 128.833   7.429  1.00 97.95    -0.048 C 
HETATM    7  C7  8UH 21620     -34.477 129.527   8.484  1.00 97.95     0.009 C 
HETATM    8  C8  8UH 21620     -35.009 130.730   8.274  1.00 97.95     0.007 C 
HETATM    9  C9  8UH 21620     -35.794 131.432   9.291  1.00 97.95    -0.062 C 
HETATM   10  C10 8UH 21620     -36.345 132.585   8.925  1.00 97.95     0.007 C 
HETATM   11  C11 8UH 21620     -37.165 133.397   9.806  1.00 97.95     0.001 C 
HETATM   12  C12 8UH 21620     -37.611 134.510   9.249  1.00 97.95     0.007 C 
HETATM   13  C13 8UH 21620     -38.481 135.469   9.938  1.00 97.95    -0.062 C 
HETATM   14  C14 8UH 21620     -39.100 136.347   9.150  1.00 97.95     0.007 C 
HETATM   15  C15 8UH 21620     -40.031 137.343   9.645  1.00 97.95     0.001 C 
HETATM   16  C16 8UH 21620     -34.753 126.566   7.150  1.00 97.95     0.020 C 
HETATM   17  C17 8UH 21620     -35.768 128.587   6.139  1.00 97.95     0.020 C 
HETATM   18  C18 8UH 21620     -31.599 129.882   8.270  1.00 97.95     0.044 C 
HETATM   19  C19 8UH 21620     -35.964 130.870  10.669  1.00 97.95     0.048 C 
HETATM   20  C20 8UH 21620     -38.677 135.453  11.424  1.00 97.95     0.048 C 
HETATM   21  O3  8UH 21620     -31.591 127.426   4.080  1.00 97.95    -0.395 OA
ATOM     22  H3  8UH 21620     -32.072 127.396   3.262  1.00  0.00     0.210 HD
HETATM   23  C21 8UH 21620     -49.902 144.963   9.444  1.00 87.69    -0.018 C 
HETATM   24  C22 8UH 21620     -50.574 145.493  10.696  1.00 87.69     0.045 C 
HETATM   25  C23 8UH 21620     -50.331 146.960  11.034  1.00 87.69     0.123 C 
HETATM   26  C24 8UH 21620     -48.995 147.521  10.566  1.00 87.69     0.066 C 
HETATM   27  C25 8UH 21620     -48.046 146.467  10.057  1.00 87.69    -0.074 C 
HETATM   28  C26 8UH 21620     -48.476 145.433   9.338  1.00 87.69    -0.048 C 
HETATM   29  C27 8UH 21620     -47.577 144.738   8.388  1.00 87.69     0.009 C 
HETATM   30  C28 8UH 21620     -46.721 143.814   8.810  1.00 87.69     0.007 C 
HETATM   31  C29 8UH 21620     -45.829 143.089   7.898  1.00 97.95    -0.062 C 
HETATM   32  C30 8UH 21620     -45.049 142.183   8.477  1.00 97.95     0.007 C 
HETATM   33  C31 8UH 21620     -44.097 141.334   7.785  1.00 97.95     0.001 C 
HETATM   34  C32 8UH 21620     -43.445 140.534   8.610  1.00 97.95     0.007 C 
HETATM   35  C33 8UH 21620     -42.440 139.574   8.162  1.00 97.95    -0.062 C 
HETATM   36  C34 8UH 21620     -41.839 138.842   9.099  1.00 97.95     0.007 C 
HETATM   37  C35 8UH 21620     -40.841 137.856   8.731  1.00 97.95     0.001 C 
HETATM   38  C36 8UH 21620     -50.702 145.333   8.199  1.00 87.69     0.020 C 
HETATM   39  C37 8UH 21620     -49.874 143.455   9.557  1.00 87.69     0.020 C 
HETATM   40  C38 8UH 21620     -46.874 147.286   9.615  1.00 87.69     0.044 C 
HETATM   41  C39 8UH 21620     -45.805 143.344   6.422  1.00 97.95     0.048 C 
HETATM   42  C40 8UH 21620     -42.110 139.432   6.710  1.00 97.95     0.048 C 
HETATM   43  O23 8UH 21620     -51.369 147.714  10.414  1.00 87.69    -0.395 OA
ATOM     44  H23 8UH 21620     -51.218 148.628  10.625  1.00  0.00     0.210 HD
ENDROOT
TORSDOF 12
BEGIN_RES PHE A  61
REMARK  2 active torsions:
REMARK  status: ('A' for Active; 'I' for Inactive)
REMARK    1  A    between atoms: CA   and  CB  
REMARK    2  A    between atoms: CB   and  CG  
ROOT
ATOM      1  CA  PHE A  61     -36.237 128.293  12.768  1.00 39.40     0.164 C 
ENDROOT
BRANCH   1   2
ATOM      2  CB  PHE A  61     -36.813 128.951  11.509  1.00 39.41     0.058 C 
BRANCH   2   3
ATOM      3  CG  PHE A  61     -37.025 128.005  10.352  1.00 39.01    -0.020 A 
ATOM      4  CD2 PHE A  61     -36.277 126.844  10.235  1.00 40.32    -0.004 A 
ATOM      5  CE2 PHE A  61     -36.471 125.976   9.168  1.00 40.20    -0.000 A 
ATOM      6  CZ  PHE A  61     -37.417 126.256   8.209  1.00 40.34    -0.000 A 
ATOM      7  CE1 PHE A  61     -38.171 127.404   8.312  1.00 41.51    -0.000 A 
ATOM      8  CD1 PHE A  61     -37.973 128.276   9.375  1.00 39.94    -0.004 A 
ENDBRANCH   2   3
ENDBRANCH   1   2
END_RES PHE A  61
BEGIN_RES VAL A 134
REMARK  1 active torsions:
REMARK  status: ('A' for Active; 'I' for Inactive)
REMARK    3  A    between atoms: CA   and  CB  
ROOT
ATOM      9  CA  VAL A 134     -29.766 132.051   9.815  1.00 40.75     0.159 C 
ENDROOT
BRANCH   9  10
ATOM     10  CB  VAL A 134     -30.864 132.765   9.009  1.00 40.76     0.029 C 
ATOM     11  CG1 VAL A 134     -30.876 132.279   7.567  1.00 41.76     0.002 C 
ATOM     12  CG2 VAL A 134     -32.233 132.591   9.649  1.00 40.56     0.002 C 
ENDBRANCH   9  10
END_RES VAL A 134
BEGIN_RES TYR A 338
REMARK  3 active torsions:
REMARK  status: ('A' for Active; 'I' for Inactive)
REMARK    4  A    between atoms: CA   and  CB  
REMARK    5  A    between atoms: CB   and  CG  
REMARK    6  A    between atoms: CZ   and  OH  
ROOT
ATOM     13  CA  TYR A 338     -41.631 124.950   6.058  1.00 38.23     0.164 C 
ENDROOT
BRANCH  13  14
ATOM     14  CB  TYR A 338     -41.621 126.456   6.339  1.00 39.15     0.058 C 
BRANCH  14  15
ATOM     15  CG  TYR A 338     -40.434 127.217   5.794  1.00 39.03    -0.020 A 
ATOM     16  CD2 TYR A 338     -40.286 128.568   6.059  1.00 40.65    -0.002 A 
ATOM     17  CE2 TYR A 338     -39.219 129.301   5.563  1.00 40.91     0.024 A 
ATOM     18  CZ  TYR A 338     -38.267 128.680   4.777  1.00 42.33     0.089 A 
ATOM     19  CE1 TYR A 338     -38.391 127.329   4.501  1.00 40.63     0.024 A 
ATOM     20  CD1 TYR A 338     -39.472 126.617   4.997  1.00 39.27    -0.002 A 
BRANCH  18  21
ATOM     21  OH  TYR A 338     -37.208 129.391   4.286  1.00 43.36    -0.359 OA
ATOM     22  HH  TYR A 338     -36.319 129.084   4.420  1.00  0.00     0.217 HD
ENDBRANCH  18  21
ENDBRANCH  14  15
ENDBRANCH  13  14
END_RES TYR A 338
ENDMDL
MODEL 3
REMARK VINA RESULT:   -10.870      1.755     16.504
REMARK INTER + INTRA:         -11.617
REMARK INTER:                  -8.929
REMARK INTRA:                  -2.688
REMARK UNBOUND:                -0.747
REMARK  0 active torsions:
REMARK  status: ('A' for Active; 'I' for Inactive)
REMARK       I    between atoms: C3_3  and  O3_21 
REMARK       I    between atoms: C6_6  and  C7_7 
REMARK       I    between atoms: C8_8  and  C9_9 
REMARK       I    between atoms: C10_10  and  C11_11 
REMARK       I    between atoms: C12_12  and  C13_13 
REMARK       I    between atoms: C14_14  and  C15_15 
REMARK       I    between atoms: C23_25  and  O23_43 
REMARK       I    between atoms: C26_28  and  C27_29 
REMARK       I    between atoms: C28_30  and  C29_31 
REMARK       I    between atoms: C30_32  and  C31_33 
REMARK       I    between atoms: C32_34  and  C33_35 
REMARK       I    between atoms: C34_36  and  C35_37 
ROOT
HETATM    1  C1  8UH 21620     -34.471 128.281   6.775  1.00 97.95    -0.018 C 
HETATM    2  C2  8UH 21620     -33.619 128.018   5.539  1.00 97.95     0.045 C 
HETATM    3  C3  8UH 21620     -32.235 128.646   5.499  1.00 97.95     0.123 C 
HETATM    4  C4  8UH 21620     -31.589 128.659   6.866  1.00 97.95     0.066 C 
HETATM    5  C5  8UH 21620     -32.491 129.378   7.823  1.00 97.95    -0.074 C 
HETATM    6  C6  8UH 21620     -33.814 129.181   7.805  1.00 97.95    -0.048 C 
HETATM    7  C7  8UH 21620     -34.687 129.842   8.805  1.00 97.95     0.009 C 
HETATM    8  C8  8UH 21620     -35.205 131.049   8.582  1.00 97.95     0.007 C 
HETATM    9  C9  8UH 21620     -36.083 131.718   9.544  1.00 97.95    -0.062 C 
HETATM   10  C10 8UH 21620     -36.606 132.880   9.163  1.00 97.95     0.007 C 
HETATM   11  C11 8UH 21620     -37.506 133.663   9.989  1.00 97.95     0.001 C 
HETATM   12  C12 8UH 21620     -37.907 134.790   9.427  1.00 97.95     0.007 C 
HETATM   13  C13 8UH 21620     -38.841 135.726  10.061  1.00 97.95    -0.062 C 
HETATM   14  C14 8UH 21620     -39.391 136.625   9.246  1.00 97.95     0.007 C 
HETATM   15  C15 8UH 21620     -40.369 137.603   9.683  1.00 97.95     0.001 C 
HETATM   16  C16 8UH 21620     -34.825 126.920   7.366  1.00 97.95     0.020 C 
HETATM   17  C17 8UH 21620     -35.755 128.967   6.326  1.00 97.95     0.020 C 
HETATM   18  C18 8UH 21620     -31.804 130.212   8.864  1.00 97.95     0.044 C 
HETATM   19  C19 8UH 21620     -36.375 131.115  10.884  1.00 97.95     0.048 C 
HETATM   20  C20 8UH 21620     -39.172 135.666  11.522  1.00 97.95     0.048 C 
HETATM   21  O3  8UH 21620     -31.402 127.880   4.622  1.00 97.95    -0.395 OA
ATOM     22  H3  8UH 21620     -31.807 127.873   3.763  1.00  0.00     0.210 HD
HETATM   23  C21 8UH 21620     -50.224 145.195   8.807  1.00 87.69    -0.018 C 
HETATM   24  C22 8UH 21620     -51.010 145.686  10.008  1.00 87.69     0.045 C 
HETATM   25  C23 8UH 21620     -50.807 147.144  10.409  1.00 87.69     0.123 C 
HETATM   26  C24 8UH 21620     -49.438 147.721  10.080  1.00 87.69     0.066 C 
HETATM   27  C25 8UH 21620     -48.440 146.686   9.630  1.00 87.69    -0.074 C 
HETATM   28  C26 8UH 21620     -48.797 145.672   8.845  1.00 87.69    -0.048 C 
HETATM   29  C27 8UH 21620     -47.812 145.009   7.961  1.00 87.69     0.009 C 
HETATM   30  C28 8UH 21620     -46.992 144.075   8.431  1.00 87.69     0.007 C 
HETATM   31  C29 8UH 21620     -46.017 143.380   7.584  1.00 97.95    -0.062 C 
HETATM   32  C30 8UH 21620     -45.288 142.459   8.205  1.00 97.95     0.007 C 
HETATM   33  C31 8UH 21620     -44.272 141.635   7.578  1.00 97.95     0.001 C 
HETATM   34  C32 8UH 21620     -43.694 140.813   8.435  1.00 97.95     0.007 C 
HETATM   35  C33 8UH 21620     -42.646 139.870   8.053  1.00 97.95    -0.062 C 
HETATM   36  C34 8UH 21620     -42.129 139.112   9.019  1.00 97.95     0.007 C 
HETATM   37  C35 8UH 21620     -41.095 138.140   8.714  1.00 97.95     0.001 C 
HETATM   38  C36 8UH 21620     -50.910 145.600   7.506  1.00 87.69     0.020 C 
HETATM   39  C37 8UH 21620     -50.198 143.685   8.878  1.00 87.69     0.020 C 
HETATM   40  C38 8UH 21620     -47.238 147.522   9.320  1.00 87.69     0.044 C 
HETATM   41  C39 8UH 21620     -45.861 143.679   6.124  1.00 97.95     0.048 C 
HETATM   42  C40 8UH 21620     -42.185 139.771   6.633  1.00 97.95     0.048 C 
HETATM   43  O23 8UH 21620     -51.790 147.912   9.719  1.00 87.69    -0.395 OA
ATOM     44  H23 8UH 21620     -51.663 148.819   9.969  1.00  0.00     0.210 HD
ENDROOT
TORSDOF 12
BEGIN_RES PHE A  61
REMARK  2 active torsions:
REMARK  status: ('A' for Active; 'I' for Inactive)
REMARK    1  A    between atoms: CA   and  CB  
REMARK    2  A    between atoms: CB   and  CG  
ROOT
ATOM      1  CA  PHE A  61     -36.237 128.293  12.768  1.00 39.40     0.164 C 
ENDROOT
BRANCH   1   2
ATOM      2  CB  PHE A  61     -36.813 128.951  11.509  1.00 39.41     0.058 C 
BRANCH   2   3
ATOM      3  CG  PHE A  61     -37.052 127.999  10.361  1.00 39.01    -0.020 A 
ATOM      4  CD2 PHE A  61     -38.020 128.266   9.406  1.00 40.32    -0.004 A 
ATOM      5  CE2 PHE A  61     -38.240 127.388   8.352  1.00 40.20    -0.000 A 
ATOM      6  CZ  PHE A  61     -37.494 126.237   8.239  1.00 40.34    -0.000 A 
ATOM      7  CE1 PHE A  61     -36.527 125.959   9.180  1.00 41.51    -0.000 A 
ATOM      8  CD1 PHE A  61     -36.310 126.833  10.237  1.00 39.94    -0.004 A 
ENDBRANCH   2   3
ENDBRANCH   1   2
END_RES PHE A  61
BEGIN_RES VAL A 134
REMARK  1 active torsions:
REMARK  status: ('A' for Active; 'I' for Inactive)
REMARK    3  A    between atoms: CA   and  CB  
ROOT
ATOM      9  CA  VAL A 134     -29.766 132.051   9.815  1.00 40.75     0.159 C 
ENDROOT
BRANCH   9  10
ATOM     10  CB  VAL A 134     -30.864 132.765   9.009  1.00 40.76     0.029 C 
ATOM     11  CG1 VAL A 134     -30.967 132.183   7.607  1.00 41.76     0.002 C 
ATOM     12  CG2 VAL A 134     -32.208 132.707   9.718  1.00 40.56     0.002 C 
ENDBRANCH   9  10
END_RES VAL A 134
BEGIN_RES TYR A 338
REMARK  3 active torsions:
REMARK  status: ('A' for Active; 'I' for Inactive)
REMARK    4  A    between atoms: CA   and  CB  
REMARK    5  A    between atoms: CB   and  CG  
REMARK    6  A    between atoms: CZ   and  OH  
ROOT
ATOM     13  CA  TYR A 338     -41.631 124.950   6.058  1.00 38.23     0.164 C 
ENDROOT
BRANCH  13  14
ATOM     14  CB  TYR A 338     -41.621 126.456   6.339  1.00 39.15     0.058 C 
BRANCH  14  15
ATOM     15  CG  TYR A 338     -40.432 127.217   5.797  1.00 39.03    -0.020 A 
ATOM     16  CD2 TYR A 338     -39.455 126.562   5.067  1.00 40.65    -0.002 A 
ATOM     17  CE2 TYR A 338     -38.344 127.225   4.569  1.00 40.91     0.024 A 
ATOM     18  CZ  TYR A 338     -38.192 128.579   4.801  1.00 42.33     0.089 A 
ATOM     19  CE1 TYR A 338     -39.157 129.256   5.524  1.00 40.63     0.024 A 
ATOM     20  CD1 TYR A 338     -40.255 128.572   6.025  1.00 39.27    -0.002 A 
BRANCH  18  21
ATOM     21  OH  TYR A 338     -37.103 129.244   4.310  1.00 43.36    -0.359 OA
ATOM     22  HH  TYR A 338     -36.239 129.086   4.674  1.00  0.00     0.217 HD
ENDBRANCH  18  21
ENDBRANCH  14  15
ENDBRANCH  13  14
END_RES TYR A 338
ENDMDL
