MODEL 1
REMARK VINA RESULT:   -11.847      0.000      0.000
REMARK INTER + INTRA:         -12.199
REMARK INTER:                 -11.847
REMARK INTRA:                  -0.352
REMARK UNBOUND:                -0.352
REMARK  0 active torsions:
REMARK  status: ('A' for Active; 'I' for Inactive)
REMARK       I    between atoms: C3_3  and  O3_21 
REMARK       I    between atoms: C6_6  and  C7_7 
REMARK       I    between atoms: C8_8  and  C9_9 
REMARK       I    between atoms: C10_10  and  C11_11 
REMARK       I    between atoms: C12_12  and  C13_13 
REMARK       I    between atoms: C14_14  and  C15_15 
REMARK       I    between atoms: C23_25  and  O23_43 
REMARK       I    between atoms: C26_28  and  C27_29 
REMARK       I    between atoms: C28_30  and  C29_31 
REMARK       I    between atoms: C30_32  and  C31_33 
REMARK       I    between atoms: C32_34  and  C33_35 
REMARK       I    between atoms: C34_36  and  C35_37 
ROOT
HETATM    1  C1  8UH G1620     -34.141 128.119   6.982  1.00 66.29    -0.018 C 
HETATM    2  C2  8UH G1620     -33.402 127.682   5.723  1.00 66.29     0.045 C 
HETATM    3  C3  8UH G1620     -32.102 128.388   5.370  1.00 66.29     0.123 C 
HETATM    4  C4  8UH G1620     -31.352 128.824   6.610  1.00 66.29     0.066 C 
HETATM    5  C5  8UH G1620     -32.251 129.670   7.461  1.00 66.29    -0.074 C 
HETATM    6  C6  8UH G1620     -33.516 129.304   7.697  1.00 66.29    -0.048 C 
HETATM    7  C7  8UH G1620     -34.342 130.044   8.686  1.00 66.29     0.009 C 
HETATM    8  C8  8UH G1620     -35.043 131.127   8.340  1.00 66.29     0.007 C 
HETATM    9  C9  8UH G1620     -35.877 131.868   9.295  1.00 66.29    -0.062 C 
HETATM   10  C10 8UH G1620     -36.464 132.985   8.857  1.00 66.29     0.007 C 
HETATM   11  C11 8UH G1620     -37.327 133.809   9.687  1.00 66.29     0.001 C 
HETATM   12  C12 8UH G1620     -37.996 134.753   9.044  1.00 66.29     0.007 C 
HETATM   13  C13 8UH G1620     -38.930 135.673   9.706  1.00 66.29    -0.062 C 
HETATM   14  C14 8UH G1620     -39.640 136.497   8.928  1.00 66.29     0.007 C 
HETATM   15  C15 8UH G1620     -40.612 137.432   9.470  1.00 66.29     0.001 C 
HETATM   16  C16 8UH G1620     -34.228 126.911   7.905  1.00 66.29     0.020 C 
HETATM   17  C17 8UH G1620     -35.551 128.512   6.571  1.00 66.29     0.020 C 
HETATM   18  C18 8UH G1620     -31.547 130.715   8.275  1.00 66.29     0.044 C 
HETATM   19  C19 8UH G1620     -36.063 131.377  10.698  1.00 66.29     0.048 C 
HETATM   20  C20 8UH G1620     -39.087 135.679  11.197  1.00 66.29     0.048 C 
HETATM   21  O3  8UH G1620     -31.278 127.479   4.634  1.00 66.29    -0.395 OA
ATOM     22  H3  8UH G1620     -31.748 127.205   3.855  1.00  0.00     0.210 HD
HETATM   23  C21 8UH G1620     -50.633 144.908   9.576  1.00 25.46    -0.018 C 
HETATM   24  C22 8UH G1620     -51.531 145.516  10.650  1.00 25.46     0.045 C 
HETATM   25  C23 8UH G1620     -50.962 146.670  11.457  1.00 25.46     0.123 C 
HETATM   26  C24 8UH G1620     -50.144 147.577  10.565  1.00 25.46     0.066 C 
HETATM   27  C25 8UH G1620     -49.029 146.754   9.991  1.00 25.46    -0.074 C 
HETATM   28  C26 8UH G1620     -49.285 145.585   9.395  1.00 25.46    -0.048 C 
HETATM   29  C27 8UH G1620     -48.272 144.944   8.508  1.00 25.46     0.009 C 
HETATM   30  C28 8UH G1620     -47.306 144.156   8.989  1.00 25.46     0.007 C 
HETATM   31  C29 8UH G1620     -46.295 143.499   8.166  1.00 66.29    -0.062 C 
HETATM   32  C30 8UH G1620     -45.647 142.463   8.705  1.00 66.29     0.007 C 
HETATM   33  C31 8UH G1620     -44.628 141.681   8.019  1.00 66.29     0.001 C 
HETATM   34  C32 8UH G1620     -44.015 140.766   8.758  1.00 66.29     0.007 C 
HETATM   35  C33 8UH G1620     -42.979 139.873   8.226  1.00 66.29    -0.062 C 
HETATM   36  C34 8UH G1620     -42.388 139.025   9.072  1.00 66.29     0.007 C 
HETATM   37  C35 8UH G1620     -41.371 138.093   8.605  1.00 66.29     0.001 C 
HETATM   38  C36 8UH G1620     -51.430 144.887   8.275  1.00 25.46     0.020 C 
HETATM   39  C37 8UH G1620     -50.328 143.484   9.996  1.00 25.46     0.020 C 
HETATM   40  C38 8UH G1620     -47.891 147.630   9.574  1.00 25.46     0.044 C 
HETATM   41  C39 8UH G1620     -46.011 143.975   6.771  1.00 66.29     0.048 C 
HETATM   42  C40 8UH G1620     -42.624 139.912   6.769  1.00 66.29     0.048 C 
HETATM   43  O23 8UH G1620     -52.050 147.413  12.012  1.00 25.46    -0.395 OA
ATOM     44  H23 8UH G1620     -52.563 146.843  12.573  1.00  0.00     0.210 HD
ENDROOT
TORSDOF 12
BEGIN_RES PHE A  61
REMARK  2 active torsions:
REMARK  status: ('A' for Active; 'I' for Inactive)
REMARK    1  A    between atoms: CA   and  CB  
REMARK    2  A    between atoms: CB   and  CG  
ROOT
ATOM      1  CA  PHE A  61     -36.237 128.293  12.768  1.00 39.40     0.164 C 
ENDROOT
BRANCH   1   2
ATOM      2  CB  PHE A  61     -36.813 128.951  11.509  1.00 39.41     0.058 C 
BRANCH   2   3
ATOM      3  CG  PHE A  61     -37.025 128.005  10.352  1.00 39.01    -0.020 A 
ATOM      4  CD2 PHE A  61     -36.279 126.842  10.237  1.00 40.32    -0.004 A 
ATOM      5  CE2 PHE A  61     -36.473 125.974   9.170  1.00 40.20    -0.000 A 
ATOM      6  CZ  PHE A  61     -37.416 126.256   8.209  1.00 40.34    -0.000 A 
ATOM      7  CE1 PHE A  61     -38.167 127.406   8.309  1.00 41.51    -0.000 A 
ATOM      8  CD1 PHE A  61     -37.969 128.278   9.372  1.00 39.94    -0.004 A 
ENDBRANCH   2   3
ENDBRANCH   1   2
END_RES PHE A  61
BEGIN_RES VAL A 134
REMARK  1 active torsions:
REMARK  status: ('A' for Active; 'I' for Inactive)
REMARK    3  A    between atoms: CA   and  CB  
ROOT
ATOM      9  CA  VAL A 134     -29.766 132.051   9.815  1.00 40.75     0.159 C 
ENDROOT
BRANCH   9  10
ATOM     10  CB  VAL A 134     -30.864 132.765   9.009  1.00 40.76     0.029 C 
ATOM     11  CG1 VAL A 134     -32.105 132.979   9.863  1.00 41.76     0.002 C 
ATOM     12  CG2 VAL A 134     -30.370 134.084   8.434  1.00 40.56     0.002 C 
ENDBRANCH   9  10
END_RES VAL A 134
BEGIN_RES TYR A 338
REMARK  3 active torsions:
REMARK  status: ('A' for Active; 'I' for Inactive)
REMARK    4  A    between atoms: CA   and  CB  
REMARK    5  A    between atoms: CB   and  CG  
REMARK    6  A    between atoms: CZ   and  OH  
ROOT
ATOM     13  CA  TYR A 338     -41.631 124.950   6.058  1.00 38.23     0.164 C 
ENDROOT
BRANCH  13  14
ATOM     14  CB  TYR A 338     -41.621 126.456   6.339  1.00 39.15     0.058 C 
BRANCH  14  15
ATOM     15  CG  TYR A 338     -40.422 127.213   5.816  1.00 39.03    -0.020 A 
ATOM     16  CD2 TYR A 338     -40.268 128.561   6.093  1.00 40.65    -0.002 A 
ATOM     17  CE2 TYR A 338     -39.190 129.290   5.617  1.00 40.91     0.024 A 
ATOM     18  CZ  TYR A 338     -38.232 128.668   4.839  1.00 42.33     0.089 A 
ATOM     19  CE1 TYR A 338     -38.361 127.321   4.551  1.00 40.63     0.024 A 
ATOM     20  CD1 TYR A 338     -39.454 126.612   5.027  1.00 39.27    -0.002 A 
BRANCH  18  21
ATOM     21  OH  TYR A 338     -37.162 129.376   4.367  1.00 43.36    -0.359 OA
ATOM     22  HH  TYR A 338     -37.278 130.259   4.037  1.00  0.00     0.217 HD
ENDBRANCH  18  21
ENDBRANCH  14  15
ENDBRANCH  13  14
END_RES TYR A 338
ENDMDL
MODEL 2
REMARK VINA RESULT:   -11.390      0.997      1.175
REMARK INTER + INTRA:         -11.742
REMARK INTER:                  -9.249
REMARK INTRA:                  -2.494
REMARK UNBOUND:                -0.352
REMARK  0 active torsions:
REMARK  status: ('A' for Active; 'I' for Inactive)
REMARK       I    between atoms: C3_3  and  O3_21 
REMARK       I    between atoms: C6_6  and  C7_7 
REMARK       I    between atoms: C8_8  and  C9_9 
REMARK       I    between atoms: C10_10  and  C11_11 
REMARK       I    between atoms: C12_12  and  C13_13 
REMARK       I    between atoms: C14_14  and  C15_15 
REMARK       I    between atoms: C23_25  and  O23_43 
REMARK       I    between atoms: C26_28  and  C27_29 
REMARK       I    between atoms: C28_30  and  C29_31 
REMARK       I    between atoms: C30_32  and  C31_33 
REMARK       I    between atoms: C32_34  and  C33_35 
REMARK       I    between atoms: C34_36  and  C35_37 
ROOT
HETATM    1  C1  8UH G1620     -34.294 127.362   6.636  1.00 66.29    -0.018 C 
HETATM    2  C2  8UH G1620     -33.794 126.849   5.291  1.00 66.29     0.045 C 
HETATM    3  C3  8UH G1620     -32.562 127.503   4.684  1.00 66.29     0.123 C 
HETATM    4  C4  8UH G1620     -31.600 127.975   5.753  1.00 66.29     0.066 C 
HETATM    5  C5  8UH G1620     -32.323 128.882   6.703  1.00 66.29    -0.074 C 
HETATM    6  C6  8UH G1620     -33.533 128.562   7.173  1.00 66.29    -0.048 C 
HETATM    7  C7  8UH G1620     -34.161 129.367   8.251  1.00 66.29     0.009 C 
HETATM    8  C8  8UH G1620     -34.892 130.451   7.979  1.00 66.29     0.007 C 
HETATM    9  C9  8UH G1620     -35.533 131.257   9.026  1.00 66.29    -0.062 C 
HETATM   10  C10 8UH G1620     -36.167 132.368   8.642  1.00 66.29     0.007 C 
HETATM   11  C11 8UH G1620     -36.857 133.251   9.567  1.00 66.29     0.001 C 
HETATM   12  C12 8UH G1620     -37.611 134.183   9.003  1.00 66.29     0.007 C 
HETATM   13  C13 8UH G1620     -38.399 135.157   9.771  1.00 66.29    -0.062 C 
HETATM   14  C14 8UH G1620     -39.218 135.962   9.087  1.00 66.29     0.007 C 
HETATM   15  C15 8UH G1620     -40.064 136.946   9.742  1.00 66.29     0.001 C 
HETATM   16  C16 8UH G1620     -34.242 126.199   7.619  1.00 66.29     0.020 C 
HETATM   17  C17 8UH G1620     -35.747 127.773   6.455  1.00 66.29     0.020 C 
HETATM   18  C18 8UH G1620     -31.468 129.944   7.331  1.00 66.29     0.044 C 
HETATM   19  C19 8UH G1620     -35.481 130.835  10.463  1.00 66.29     0.048 C 
HETATM   20  C20 8UH G1620     -38.293 135.234  11.263  1.00 66.29     0.048 C 
HETATM   21  O3  8UH G1620     -31.896 126.540   3.863  1.00 66.29    -0.395 OA
ATOM     22  H3  8UH G1620     -32.499 126.244   3.191  1.00  0.00     0.210 HD
HETATM   23  C21 8UH G1620     -49.775 144.683  11.209  1.00 25.46    -0.018 C 
HETATM   24  C22 8UH G1620     -50.461 145.363  12.390  1.00 25.46     0.045 C 
HETATM   25  C23 8UH G1620     -49.739 146.536  13.029  1.00 25.46     0.123 C 
HETATM   26  C24 8UH G1620     -49.073 147.380  11.966  1.00 25.46     0.066 C 
HETATM   27  C25 8UH G1620     -48.090 146.503  11.249  1.00 25.46    -0.074 C 
HETATM   28  C26 8UH G1620     -48.467 145.315  10.765  1.00 25.46    -0.048 C 
HETATM   29  C27 8UH G1620     -47.636 144.608   9.748  1.00 25.46     0.009 C 
HETATM   30  C28 8UH G1620     -46.615 143.817  10.094  1.00 25.46     0.007 C 
HETATM   31  C29 8UH G1620     -45.774 143.097   9.142  1.00 66.29    -0.062 C 
HETATM   32  C30 8UH G1620     -45.062 142.070   9.611  1.00 66.29     0.007 C 
HETATM   33  C31 8UH G1620     -44.193 141.230   8.799  1.00 66.29     0.001 C 
HETATM   34  C32 8UH G1620     -43.477 140.334   9.465  1.00 66.29     0.007 C 
HETATM   35  C33 8UH G1620     -42.566 139.391   8.807  1.00 66.29    -0.062 C 
HETATM   36  C34 8UH G1620     -41.852 138.566   9.579  1.00 66.29     0.007 C 
HETATM   37  C35 8UH G1620     -40.949 137.588   8.990  1.00 66.29     0.001 C 
HETATM   38  C36 8UH G1620     -50.786 144.624  10.068  1.00 25.46     0.020 C 
HETATM   39  C37 8UH G1620     -49.427 143.272  11.639  1.00 25.46     0.020 C 
HETATM   40  C38 8UH G1620     -47.026 147.328  10.599  1.00 25.46     0.044 C 
HETATM   41  C39 8UH G1620     -45.729 143.501   7.698  1.00 66.29     0.048 C 
HETATM   42  C40 8UH G1620     -42.468 139.354   7.311  1.00 66.29     0.048 C 
HETATM   43  O23 8UH G1620     -50.701 147.333  13.727  1.00 25.46    -0.395 OA
ATOM     44  H23 8UH G1620     -51.119 146.803  14.395  1.00  0.00     0.210 HD
ENDROOT
TORSDOF 12
BEGIN_RES PHE A  61
REMARK  2 active torsions:
REMARK  status: ('A' for Active; 'I' for Inactive)
REMARK    1  A    between atoms: CA   and  CB  
REMARK    2  A    between atoms: CB   and  CG  
ROOT
ATOM      1  CA  PHE A  61     -36.237 128.293  12.768  1.00 39.40     0.164 C 
ENDROOT
BRANCH   1   2
ATOM      2  CB  PHE A  61     -36.813 128.951  11.509  1.00 39.41     0.058 C 
BRANCH   2   3
ATOM      3  CG  PHE A  61     -37.070 127.996  10.368  1.00 39.01    -0.020 A 
ATOM      4  CD2 PHE A  61     -36.354 126.815  10.253  1.00 40.32    -0.004 A 
ATOM      5  CE2 PHE A  61     -36.589 125.939   9.201  1.00 40.20    -0.000 A 
ATOM      6  CZ  PHE A  61     -37.544 126.232   8.254  1.00 40.34    -0.000 A 
ATOM      7  CE1 PHE A  61     -38.265 127.401   8.355  1.00 41.51    -0.000 A 
ATOM      8  CD1 PHE A  61     -38.026 128.280   9.403  1.00 39.94    -0.004 A 
ENDBRANCH   2   3
ENDBRANCH   1   2
END_RES PHE A  61
BEGIN_RES VAL A 134
REMARK  1 active torsions:
REMARK  status: ('A' for Active; 'I' for Inactive)
REMARK    3  A    between atoms: CA   and  CB  
ROOT
ATOM      9  CA  VAL A 134     -29.766 132.051   9.815  1.00 40.75     0.159 C 
ENDROOT
BRANCH   9  10
ATOM     10  CB  VAL A 134     -30.864 132.765   9.009  1.00 40.76     0.029 C 
ATOM     11  CG1 VAL A 134     -30.869 132.286   7.565  1.00 41.76     0.002 C 
ATOM     12  CG2 VAL A 134     -32.234 132.583   9.644  1.00 40.56     0.002 C 
ENDBRANCH   9  10
END_RES VAL A 134
BEGIN_RES TYR A 338
REMARK  3 active torsions:
REMARK  status: ('A' for Active; 'I' for Inactive)
REMARK    4  A    between atoms: CA   and  CB  
REMARK    5  A    between atoms: CB   and  CG  
REMARK    6  A    between atoms: CZ   and  OH  
ROOT
ATOM     13  CA  TYR A 338     -41.631 124.950   6.058  1.00 38.23     0.164 C 
ENDROOT
BRANCH  13  14
ATOM     14  CB  TYR A 338     -41.621 126.456   6.339  1.00 39.15     0.058 C 
BRANCH  14  15
ATOM     15  CG  TYR A 338     -40.419 127.212   5.821  1.00 39.03    -0.020 A 
ATOM     16  CD2 TYR A 338     -40.250 128.552   6.125  1.00 40.65    -0.002 A 
ATOM     17  CE2 TYR A 338     -39.168 129.280   5.654  1.00 40.91     0.024 A 
ATOM     18  CZ  TYR A 338     -38.222 128.665   4.856  1.00 42.33     0.089 A 
ATOM     19  CE1 TYR A 338     -38.366 127.325   4.543  1.00 40.63     0.024 A 
ATOM     20  CD1 TYR A 338     -39.462 126.618   5.013  1.00 39.27    -0.002 A 
BRANCH  18  21
ATOM     21  OH  TYR A 338     -37.149 129.372   4.390  1.00 43.36    -0.359 OA
ATOM     22  HH  TYR A 338     -37.068 130.301   4.576  1.00  0.00     0.217 HD
ENDBRANCH  18  21
ENDBRANCH  14  15
ENDBRANCH  13  14
END_RES TYR A 338
ENDMDL
MODEL 3
REMARK VINA RESULT:   -10.081      1.655     16.747
REMARK INTER + INTRA:         -10.433
REMARK INTER:                  -7.563
REMARK INTRA:                  -2.870
REMARK UNBOUND:                -0.352
REMARK  0 active torsions:
REMARK  status: ('A' for Active; 'I' for Inactive)
REMARK       I    between atoms: C3_3  and  O3_21 
REMARK       I    between atoms: C6_6  and  C7_7 
REMARK       I    between atoms: C8_8  and  C9_9 
REMARK       I    between atoms: C10_10  and  C11_11 
REMARK       I    between atoms: C12_12  and  C13_13 
REMARK       I    between atoms: C14_14  and  C15_15 
REMARK       I    between atoms: C23_25  and  O23_43 
REMARK       I    between atoms: C26_28  and  C27_29 
REMARK       I    between atoms: C28_30  and  C29_31 
REMARK       I    between atoms: C30_32  and  C31_33 
REMARK       I    between atoms: C32_34  and  C33_35 
REMARK       I    between atoms: C34_36  and  C35_37 
ROOT
HETATM    1  C1  8UH G1620     -49.429 145.030  12.633  1.00 66.29    -0.018 C 
HETATM    2  C2  8UH G1620     -50.041 145.324  13.997  1.00 66.29     0.045 C 
HETATM    3  C3  8UH G1620     -49.287 146.249  14.941  1.00 66.29     0.123 C 
HETATM    4  C4  8UH G1620     -48.513 147.305  14.181  1.00 66.29     0.066 C 
HETATM    5  C5  8UH G1620     -47.610 146.638  13.188  1.00 66.29    -0.074 C 
HETATM    6  C6  8UH G1620     -48.056 145.639  12.417  1.00 66.29    -0.048 C 
HETATM    7  C7  8UH G1620     -47.218 145.110  11.310  1.00 66.29     0.009 C 
HETATM    8  C8  8UH G1620     -46.321 144.142  11.515  1.00 66.29     0.007 C 
HETATM    9  C9  8UH G1620     -45.490 143.593  10.435  1.00 66.29    -0.062 C 
HETATM   10  C10 8UH G1620     -44.567 142.688  10.773  1.00 66.29     0.007 C 
HETATM   11  C11 8UH G1620     -43.686 142.051   9.808  1.00 66.29     0.001 C 
HETATM   12  C12 8UH G1620     -42.984 141.029  10.273  1.00 66.29     0.007 C 
HETATM   13  C13 8UH G1620     -42.053 140.248   9.447  1.00 66.29    -0.062 C 
HETATM   14  C14 8UH G1620     -41.502 139.162   9.999  1.00 66.29     0.007 C 
HETATM   15  C15 8UH G1620     -40.588 138.299   9.269  1.00 66.29     0.001 C 
HETATM   16  C16 8UH G1620     -50.413 145.514  11.575  1.00 66.29     0.020 C 
HETATM   17  C17 8UH G1620     -49.296 143.520  12.510  1.00 66.29     0.020 C 
HETATM   18  C18 8UH G1620     -46.341 147.383  12.891  1.00 66.29     0.044 C 
HETATM   19  C19 8UH G1620     -45.685 144.028   9.015  1.00 66.29     0.048 C 
HETATM   20  C20 8UH G1620     -41.745 140.650   8.037  1.00 66.29     0.048 C 
HETATM   21  O3  8UH G1620     -50.235 146.900  15.791  1.00 66.29    -0.395 OA
ATOM     22  H3  8UH G1620     -50.721 146.238  16.268  1.00  0.00     0.210 HD
HETATM   23  C21 8UH G1620     -34.439 127.805   6.374  1.00 25.46    -0.018 C 
HETATM   24  C22 8UH G1620     -33.719 127.266   5.142  1.00 25.46     0.045 C 
HETATM   25  C23 8UH G1620     -32.362 127.864   4.815  1.00 25.46     0.123 C 
HETATM   26  C24 8UH G1620     -31.583 128.113   6.086  1.00 25.46     0.066 C 
HETATM   27  C25 8UH G1620     -32.379 129.074   6.919  1.00 25.46    -0.074 C 
HETATM   28  C26 8UH G1620     -33.670 128.842   7.176  1.00 25.46    -0.048 C 
HETATM   29  C27 8UH G1620     -34.369 129.560   8.280  1.00 25.46     0.009 C 
HETATM   30  C28 8UH G1620     -34.922 130.764   8.104  1.00 25.46     0.007 C 
HETATM   31  C29 8UH G1620     -35.622 131.508   9.147  1.00 66.29    -0.062 C 
HETATM   32  C30 8UH G1620     -36.438 132.489   8.754  1.00 66.29     0.007 C 
HETATM   33  C31 8UH G1620     -37.230 133.313   9.656  1.00 66.29     0.001 C 
HETATM   34  C32 8UH G1620     -37.889 134.314   9.087  1.00 66.29     0.007 C 
HETATM   35  C33 8UH G1620     -38.754 135.230   9.839  1.00 66.29    -0.062 C 
HETATM   36  C34 8UH G1620     -39.328 136.238   9.175  1.00 66.29     0.007 C 
HETATM   37  C35 8UH G1620     -40.217 137.167   9.855  1.00 66.29     0.001 C 
HETATM   38  C36 8UH G1620     -34.829 126.606   7.234  1.00 25.46     0.020 C 
HETATM   39  C37 8UH G1620     -35.695 128.503   5.894  1.00 25.46     0.020 C 
HETATM   40  C38 8UH G1620     -31.491 129.796   7.882  1.00 25.46     0.044 C 
HETATM   41  C39 8UH G1620     -35.429 131.167  10.595  1.00 66.29     0.048 C 
HETATM   42  C40 8UH G1620     -38.989 135.014  11.305  1.00 66.29     0.048 C 
HETATM   43  O23 8UH G1620     -31.643 126.936   3.998  1.00 25.46    -0.395 OA
ATOM     44  H23 8UH G1620     -32.133 126.780   3.199  1.00  0.00     0.210 HD
ENDROOT
TORSDOF 12
BEGIN_RES PHE A  61
REMARK  2 active torsions:
REMARK  status: ('A' for Active; 'I' for Inactive)
REMARK    1  A    between atoms: CA   and  CB  
REMARK    2  A    between atoms: CB   and  CG  
ROOT
ATOM      1  CA  PHE A  61     -36.237 128.293  12.768  1.00 39.40     0.164 C 
ENDROOT
BRANCH   1   2
ATOM      2  CB  PHE A  61     -36.813 128.951  11.509  1.00 39.41     0.058 C 
BRANCH   2   3
ATOM      3  CG  PHE A  61     -37.023 128.005  10.351  1.00 39.01    -0.020 A 
ATOM      4  CD2 PHE A  61     -36.281 126.840  10.240  1.00 40.32    -0.004 A 
ATOM      5  CE2 PHE A  61     -36.474 125.972   9.173  1.00 40.20    -0.000 A 
ATOM      6  CZ  PHE A  61     -37.412 126.257   8.207  1.00 40.34    -0.000 A 
ATOM      7  CE1 PHE A  61     -38.159 127.410   8.303  1.00 41.51    -0.000 A 
ATOM      8  CD1 PHE A  61     -37.962 128.281   9.367  1.00 39.94    -0.004 A 
ENDBRANCH   2   3
ENDBRANCH   1   2
END_RES PHE A  61
BEGIN_RES VAL A 134
REMARK  1 active torsions:
REMARK  status: ('A' for Active; 'I' for Inactive)
REMARK    3  A    between atoms: CA   and  CB  
ROOT
ATOM      9  CA  VAL A 134     -29.766 132.051   9.815  1.00 40.75     0.159 C 
ENDROOT
BRANCH   9  10
ATOM     10  CB  VAL A 134     -30.864 132.765   9.009  1.00 40.76     0.029 C 
ATOM     11  CG1 VAL A 134     -30.898 132.254   7.576  1.00 41.76     0.002 C 
ATOM     12  CG2 VAL A 134     -32.228 132.619   9.667  1.00 40.56     0.002 C 
ENDBRANCH   9  10
END_RES VAL A 134
BEGIN_RES TYR A 338
REMARK  3 active torsions:
REMARK  status: ('A' for Active; 'I' for Inactive)
REMARK    4  A    between atoms: CA   and  CB  
REMARK    5  A    between atoms: CB   and  CG  
REMARK    6  A    between atoms: CZ   and  OH  
ROOT
ATOM     13  CA  TYR A 338     -41.631 124.950   6.058  1.00 38.23     0.164 C 
ENDROOT
BRANCH  13  14
ATOM     14  CB  TYR A 338     -41.621 126.456   6.339  1.00 39.15     0.058 C 
BRANCH  14  15
ATOM     15  CG  TYR A 338     -40.432 127.217   5.798  1.00 39.03    -0.020 A 
ATOM     16  CD2 TYR A 338     -40.277 128.564   6.075  1.00 40.65    -0.002 A 
ATOM     17  CE2 TYR A 338     -39.208 129.296   5.582  1.00 40.91     0.024 A 
ATOM     18  CZ  TYR A 338     -38.261 128.678   4.788  1.00 42.33     0.089 A 
ATOM     19  CE1 TYR A 338     -38.391 127.330   4.501  1.00 40.63     0.024 A 
ATOM     20  CD1 TYR A 338     -39.475 126.619   4.993  1.00 39.27    -0.002 A 
BRANCH  18  21
ATOM     21  OH  TYR A 338     -37.200 129.389   4.301  1.00 43.36    -0.359 OA
ATOM     22  HH  TYR A 338     -36.411 128.941   4.017  1.00  0.00     0.217 HD
ENDBRANCH  18  21
ENDBRANCH  14  15
ENDBRANCH  13  14
END_RES TYR A 338
ENDMDL
