MODEL 1
REMARK VINA RESULT:   -10.222      0.000      0.000
REMARK INTER + INTRA:         -11.566
REMARK INTER:                 -10.222
REMARK INTRA:                  -1.344
REMARK UNBOUND:                -1.344
REMARK  0 active torsions:
REMARK  status: ('A' for Active; 'I' for Inactive)
REMARK       I    between atoms: C3_3  and  O3_21 
REMARK       I    between atoms: C6_6  and  C7_7 
REMARK       I    between atoms: C8_8  and  C9_9 
REMARK       I    between atoms: C10_10  and  C11_11 
REMARK       I    between atoms: C12_12  and  C13_13 
REMARK       I    between atoms: C14_14  and  C15_15 
REMARK       I    between atoms: C23_25  and  O23_43 
REMARK       I    between atoms: C26_28  and  C27_29 
REMARK       I    between atoms: C28_30  and  C29_31 
REMARK       I    between atoms: C30_32  and  C31_33 
REMARK       I    between atoms: C32_34  and  C33_35 
REMARK       I    between atoms: C34_36  and  C35_37 
ROOT
HETATM    1  C1  8UH 71620     -34.264 128.734   6.660  1.00 70.34    -0.018 C 
HETATM    2  C2  8UH 71620     -33.376 128.546   5.447  1.00 70.34     0.045 C 
HETATM    3  C3  8UH 71620     -31.898 128.324   5.718  1.00 70.34     0.123 C 
HETATM    4  C4  8UH 71620     -31.344 129.265   6.772  1.00 70.34     0.066 C 
HETATM    5  C5  8UH 71620     -32.305 129.751   7.818  1.00 70.34    -0.074 C 
HETATM    6  C6  8UH 71620     -33.628 129.585   7.736  1.00 70.34    -0.048 C 
HETATM    7  C7  8UH 71620     -34.530 130.204   8.735  1.00 70.34     0.009 C 
HETATM    8  C8  8UH 71620     -35.109 131.386   8.546  1.00 70.34     0.007 C 
HETATM    9  C9  8UH 71620     -36.017 131.971   9.531  1.00 70.34    -0.062 C 
HETATM   10  C10 8UH 71620     -36.502 133.170   9.227  1.00 70.34     0.007 C 
HETATM   11  C11 8UH 71620     -37.435 133.922  10.037  1.00 70.34     0.001 C 
HETATM   12  C12 8UH 71620     -38.067 134.848   9.335  1.00 70.34     0.007 C 
HETATM   13  C13 8UH 71620     -39.081 135.749   9.884  1.00 70.34    -0.062 C 
HETATM   14  C14 8UH 71620     -39.653 136.588   9.029  1.00 70.34     0.007 C 
HETATM   15  C15 8UH 71620     -40.684 137.519   9.438  1.00 70.34     0.001 C 
HETATM   16  C16 8UH 71620     -34.657 127.365   7.196  1.00 70.34     0.020 C 
HETATM   17  C17 8UH 71620     -35.511 129.459   6.172  1.00 70.34     0.020 C 
HETATM   18  C18 8UH 71620     -31.681 130.716   8.785  1.00 70.34     0.044 C 
HETATM   19  C19 8UH 71620     -36.374 131.234  10.780  1.00 70.34     0.048 C 
HETATM   20  C20 8UH 71620     -39.457 135.721  11.332  1.00 70.34     0.048 C 
HETATM   21  O3  8UH 71620     -31.631 126.967   6.082  1.00 70.34    -0.395 OA
ATOM     22  H3  8UH 71620     -30.706 126.828   6.252  1.00  0.00     0.210 HD
HETATM   23  C21 8UH 71620     -50.532 144.983   9.703  1.00 19.63    -0.018 C 
HETATM   24  C22 8UH 71620     -51.448 145.547  10.787  1.00 19.63     0.045 C 
HETATM   25  C23 8UH 71620     -50.864 146.598  11.717  1.00 19.63     0.123 C 
HETATM   26  C24 8UH 71620     -49.938 147.519  10.951  1.00 19.63     0.066 C 
HETATM   27  C25 8UH 71620     -48.843 146.658  10.405  1.00 19.63    -0.074 C 
HETATM   28  C26 8UH 71620     -49.144 145.599   9.649  1.00 19.63    -0.048 C 
HETATM   29  C27 8UH 71620     -48.161 145.006   8.706  1.00 19.63     0.009 C 
HETATM   30  C28 8UH 71620     -47.190 144.185   9.107  1.00 19.63     0.007 C 
HETATM   31  C29 8UH 71620     -46.240 143.584   8.167  1.00 70.34    -0.062 C 
HETATM   32  C30 8UH 71620     -45.467 142.623   8.660  1.00 70.34     0.007 C 
HETATM   33  C31 8UH 71620     -44.468 141.900   7.896  1.00 70.34     0.001 C 
HETATM   34  C32 8UH 71620     -43.839 140.983   8.613  1.00 70.34     0.007 C 
HETATM   35  C33 8UH 71620     -42.787 140.115   8.086  1.00 70.34    -0.062 C 
HETATM   36  C34 8UH 71620     -42.293 139.197   8.914  1.00 70.34     0.007 C 
HETATM   37  C35 8UH 71620     -41.251 138.275   8.507  1.00 70.34     0.001 C 
HETATM   38  C36 8UH 71620     -51.253 145.145   8.370  1.00 19.63     0.020 C 
HETATM   39  C37 8UH 71620     -50.349 143.502   9.975  1.00 19.63     0.020 C 
HETATM   40  C38 8UH 71620     -47.728 147.600  10.071  1.00 19.63     0.044 C 
HETATM   41  C39 8UH 71620     -46.153 144.027   6.738  1.00 70.34     0.048 C 
HETATM   42  C40 8UH 71620     -42.293 140.267   6.684  1.00 70.34     0.048 C 
HETATM   43  O23 8UH 71620     -51.933 147.364  12.273  1.00 19.63    -0.395 OA
ATOM     44  H23 8UH 71620     -52.514 146.785  12.754  1.00  0.00     0.210 HD
ENDROOT
TORSDOF 12
BEGIN_RES PHE A  61
REMARK  2 active torsions:
REMARK  status: ('A' for Active; 'I' for Inactive)
REMARK    1  A    between atoms: CA   and  CB  
REMARK    2  A    between atoms: CB   and  CG  
ROOT
ATOM      1  CA  PHE A  61     -36.237 128.293  12.768  1.00 39.40     0.164 C 
ENDROOT
BRANCH   1   2
ATOM      2  CB  PHE A  61     -36.813 128.951  11.509  1.00 39.41     0.058 C 
BRANCH   2   3
ATOM      3  CG  PHE A  61     -36.929 128.028  10.320  1.00 39.01    -0.020 A 
ATOM      4  CD2 PHE A  61     -36.055 126.965  10.156  1.00 40.32    -0.004 A 
ATOM      5  CE2 PHE A  61     -36.162 126.118   9.060  1.00 40.20    -0.000 A 
ATOM      6  CZ  PHE A  61     -37.144 126.322   8.118  1.00 40.34    -0.000 A 
ATOM      7  CE1 PHE A  61     -38.022 127.372   8.268  1.00 41.51    -0.000 A 
ATOM      8  CD1 PHE A  61     -37.912 128.223   9.360  1.00 39.94    -0.004 A 
ENDBRANCH   2   3
ENDBRANCH   1   2
END_RES PHE A  61
BEGIN_RES VAL A 134
REMARK  1 active torsions:
REMARK  status: ('A' for Active; 'I' for Inactive)
REMARK    3  A    between atoms: CA   and  CB  
ROOT
ATOM      9  CA  VAL A 134     -29.766 132.051   9.815  1.00 40.75     0.159 C 
ENDROOT
BRANCH   9  10
ATOM     10  CB  VAL A 134     -30.864 132.765   9.009  1.00 40.76     0.029 C 
ATOM     11  CG1 VAL A 134     -32.069 133.065   9.889  1.00 41.76     0.002 C 
ATOM     12  CG2 VAL A 134     -30.343 134.035   8.354  1.00 40.56     0.002 C 
ENDBRANCH   9  10
END_RES VAL A 134
BEGIN_RES TYR A 338
REMARK  3 active torsions:
REMARK  status: ('A' for Active; 'I' for Inactive)
REMARK    4  A    between atoms: CA   and  CB  
REMARK    5  A    between atoms: CB   and  CG  
REMARK    6  A    between atoms: CZ   and  OH  
ROOT
ATOM     13  CA  TYR A 338     -41.631 124.950   6.058  1.00 38.23     0.164 C 
ENDROOT
BRANCH  13  14
ATOM     14  CB  TYR A 338     -41.621 126.456   6.339  1.00 39.15     0.058 C 
BRANCH  14  15
ATOM     15  CG  TYR A 338     -40.423 127.213   5.814  1.00 39.03    -0.020 A 
ATOM     16  CD2 TYR A 338     -40.282 128.567   6.070  1.00 40.65    -0.002 A 
ATOM     17  CE2 TYR A 338     -39.205 129.296   5.591  1.00 40.91     0.024 A 
ATOM     18  CZ  TYR A 338     -38.234 128.668   4.833  1.00 42.33     0.089 A 
ATOM     19  CE1 TYR A 338     -38.350 127.315   4.568  1.00 40.63     0.024 A 
ATOM     20  CD1 TYR A 338     -39.442 126.607   5.045  1.00 39.27    -0.002 A 
BRANCH  18  21
ATOM     21  OH  TYR A 338     -37.165 129.377   4.360  1.00 43.36    -0.359 OA
ATOM     22  HH  TYR A 338     -36.457 128.933   3.908  1.00  0.00     0.217 HD
ENDBRANCH  18  21
ENDBRANCH  14  15
ENDBRANCH  13  14
END_RES TYR A 338
ENDMDL
MODEL 2
REMARK VINA RESULT:   -10.195      1.416     16.546
REMARK INTER + INTRA:         -11.538
REMARK INTER:                  -8.629
REMARK INTRA:                  -2.910
REMARK UNBOUND:                -1.344
REMARK  0 active torsions:
REMARK  status: ('A' for Active; 'I' for Inactive)
REMARK       I    between atoms: C3_3  and  O3_21 
REMARK       I    between atoms: C6_6  and  C7_7 
REMARK       I    between atoms: C8_8  and  C9_9 
REMARK       I    between atoms: C10_10  and  C11_11 
REMARK       I    between atoms: C12_12  and  C13_13 
REMARK       I    between atoms: C14_14  and  C15_15 
REMARK       I    between atoms: C23_25  and  O23_43 
REMARK       I    between atoms: C26_28  and  C27_29 
REMARK       I    between atoms: C28_30  and  C29_31 
REMARK       I    between atoms: C30_32  and  C31_33 
REMARK       I    between atoms: C32_34  and  C33_35 
REMARK       I    between atoms: C34_36  and  C35_37 
ROOT
HETATM    1  C1  8UH 71620     -49.133 144.265  12.572  1.00 70.34    -0.018 C 
HETATM    2  C2  8UH 71620     -49.417 144.767  13.973  1.00 70.34     0.045 C 
HETATM    3  C3  8UH 71620     -49.445 146.274  14.159  1.00 70.34     0.123 C 
HETATM    4  C4  8UH 71620     -48.300 146.976  13.452  1.00 70.34     0.066 C 
HETATM    5  C5  8UH 71620     -47.756 146.313  12.220  1.00 70.34    -0.074 C 
HETATM    6  C6  8UH 71620     -48.065 145.064  11.860  1.00 70.34    -0.048 C 
HETATM    7  C7  8UH 71620     -47.391 144.422  10.707  1.00 70.34     0.009 C 
HETATM    8  C8  8UH 71620     -46.318 143.649  10.839  1.00 70.34     0.007 C 
HETATM    9  C9  8UH 71620     -45.681 143.003   9.694  1.00 70.34    -0.062 C 
HETATM   10  C10 8UH 71620     -44.599 142.282   9.968  1.00 70.34     0.007 C 
HETATM   11  C11 8UH 71620     -43.827 141.535   8.998  1.00 70.34     0.001 C 
HETATM   12  C12 8UH 71620     -43.090 140.596   9.567  1.00 70.34     0.007 C 
HETATM   13  C13 8UH 71620     -42.222 139.674   8.836  1.00 70.34    -0.062 C 
HETATM   14  C14 8UH 71620     -41.588 138.758   9.558  1.00 70.34     0.007 C 
HETATM   15  C15 8UH 71620     -40.713 137.773   8.956  1.00 70.34     0.001 C 
HETATM   16  C16 8UH 71620     -50.434 144.251  11.783  1.00 70.34     0.020 C 
HETATM   17  C17 8UH 71620     -48.622 142.838  12.722  1.00 70.34     0.020 C 
HETATM   18  C18 8UH 71620     -46.594 147.051  11.621  1.00 70.34     0.044 C 
HETATM   19  C19 8UH 71620     -46.246 143.146   8.318  1.00 70.34     0.048 C 
HETATM   20  C20 8UH 71620     -42.061 139.756   7.350  1.00 70.34     0.048 C 
HETATM   21  O3  8UH 71620     -50.695 146.830  13.742  1.00 70.34    -0.395 OA
ATOM     22  H3  8UH 71620     -50.712 147.773  13.858  1.00  0.00     0.210 HD
HETATM   23  C21 8UH 71620     -34.327 127.488   6.467  1.00 19.63    -0.018 C 
HETATM   24  C22 8UH 71620     -33.697 126.867   5.222  1.00 19.63     0.045 C 
HETATM   25  C23 8UH 71620     -32.460 127.545   4.655  1.00 19.63     0.123 C 
HETATM   26  C24 8UH 71620     -31.581 128.056   5.776  1.00 19.63     0.066 C 
HETATM   27  C25 8UH 71620     -32.402 129.050   6.536  1.00 19.63    -0.074 C 
HETATM   28  C26 8UH 71620     -33.591 128.693   7.029  1.00 19.63    -0.048 C 
HETATM   29  C27 8UH 71620     -34.221 129.423   8.157  1.00 19.63     0.009 C 
HETATM   30  C28 8UH 71620     -34.869 130.577   7.991  1.00 19.63     0.007 C 
HETATM   31  C29 8UH 71620     -35.510 131.279   9.106  1.00 70.34    -0.062 C 
HETATM   32  C30 8UH 71620     -36.299 132.294   8.774  1.00 70.34     0.007 C 
HETATM   33  C31 8UH 71620     -37.029 133.112   9.724  1.00 70.34     0.001 C 
HETATM   34  C32 8UH 71620     -37.755 134.052   9.141  1.00 70.34     0.007 C 
HETATM   35  C33 8UH 71620     -38.584 135.012   9.868  1.00 70.34    -0.062 C 
HETATM   36  C34 8UH 71620     -39.308 135.857   9.137  1.00 70.34     0.007 C 
HETATM   37  C35 8UH 71620     -40.172 136.852   9.741  1.00 70.34     0.001 C 
HETATM   38  C36 8UH 71620     -34.448 126.386   7.513  1.00 19.63     0.020 C 
HETATM   39  C37 8UH 71620     -35.722 127.955   6.095  1.00 19.63     0.020 C 
HETATM   40  C38 8UH 71620     -31.417 129.867   7.314  1.00 19.63     0.044 C 
HETATM   41  C39 8UH 71620     -35.289 130.871  10.530  1.00 70.34     0.048 C 
HETATM   42  C40 8UH 71620     -38.604 135.037  11.361  1.00 70.34     0.048 C 
HETATM   43  O23 8UH 71620     -31.727 126.591   3.883  1.00 19.63    -0.395 OA
ATOM     44  H23 8UH 71620     -32.280 126.270   3.179  1.00  0.00     0.210 HD
ENDROOT
TORSDOF 12
BEGIN_RES PHE A  61
REMARK  2 active torsions:
REMARK  status: ('A' for Active; 'I' for Inactive)
REMARK    1  A    between atoms: CA   and  CB  
REMARK    2  A    between atoms: CB   and  CG  
ROOT
ATOM      1  CA  PHE A  61     -36.237 128.293  12.768  1.00 39.40     0.164 C 
ENDROOT
BRANCH   1   2
ATOM      2  CB  PHE A  61     -36.813 128.951  11.509  1.00 39.41     0.058 C 
BRANCH   2   3
ATOM      3  CG  PHE A  61     -37.027 128.004  10.352  1.00 39.01    -0.020 A 
ATOM      4  CD2 PHE A  61     -36.279 126.843  10.236  1.00 40.32    -0.004 A 
ATOM      5  CE2 PHE A  61     -36.475 125.974   9.169  1.00 40.20    -0.000 A 
ATOM      6  CZ  PHE A  61     -37.421 126.255   8.210  1.00 40.34    -0.000 A 
ATOM      7  CE1 PHE A  61     -38.174 127.404   8.313  1.00 41.51    -0.000 A 
ATOM      8  CD1 PHE A  61     -37.974 128.276   9.375  1.00 39.94    -0.004 A 
ENDBRANCH   2   3
ENDBRANCH   1   2
END_RES PHE A  61
BEGIN_RES VAL A 134
REMARK  1 active torsions:
REMARK  status: ('A' for Active; 'I' for Inactive)
REMARK    3  A    between atoms: CA   and  CB  
ROOT
ATOM      9  CA  VAL A 134     -29.766 132.051   9.815  1.00 40.75     0.159 C 
ENDROOT
BRANCH   9  10
ATOM     10  CB  VAL A 134     -30.864 132.765   9.009  1.00 40.76     0.029 C 
ATOM     11  CG1 VAL A 134     -30.873 132.282   7.566  1.00 41.76     0.002 C 
ATOM     12  CG2 VAL A 134     -32.233 132.588   9.647  1.00 40.56     0.002 C 
ENDBRANCH   9  10
END_RES VAL A 134
BEGIN_RES TYR A 338
REMARK  3 active torsions:
REMARK  status: ('A' for Active; 'I' for Inactive)
REMARK    4  A    between atoms: CA   and  CB  
REMARK    5  A    between atoms: CB   and  CG  
REMARK    6  A    between atoms: CZ   and  OH  
ROOT
ATOM     13  CA  TYR A 338     -41.631 124.950   6.058  1.00 38.23     0.164 C 
ENDROOT
BRANCH  13  14
ATOM     14  CB  TYR A 338     -41.621 126.456   6.339  1.00 39.15     0.058 C 
BRANCH  14  15
ATOM     15  CG  TYR A 338     -40.426 127.215   5.808  1.00 39.03    -0.020 A 
ATOM     16  CD2 TYR A 338     -40.254 128.554   6.114  1.00 40.65    -0.002 A 
ATOM     17  CE2 TYR A 338     -39.179 129.284   5.632  1.00 40.91     0.024 A 
ATOM     18  CZ  TYR A 338     -38.243 128.673   4.819  1.00 42.33     0.089 A 
ATOM     19  CE1 TYR A 338     -38.391 127.334   4.503  1.00 40.63     0.024 A 
ATOM     20  CD1 TYR A 338     -39.481 126.624   4.984  1.00 39.27    -0.002 A 
BRANCH  18  21
ATOM     21  OH  TYR A 338     -37.177 129.382   4.341  1.00 43.36    -0.359 OA
ATOM     22  HH  TYR A 338     -36.843 129.217   3.467  1.00  0.00     0.217 HD
ENDBRANCH  18  21
ENDBRANCH  14  15
ENDBRANCH  13  14
END_RES TYR A 338
ENDMDL
