MODEL 1
REMARK VINA RESULT:    -9.959      0.000      0.000
REMARK INTER + INTRA:         -14.320
REMARK INTER:                  -9.959
REMARK INTRA:                  -4.360
REMARK UNBOUND:                -4.360
REMARK  0 active torsions:
REMARK  status: ('A' for Active; 'I' for Inactive)
REMARK       I    between atoms: C3_3  and  O3_21 
REMARK       I    between atoms: C6_6  and  C7_7 
REMARK       I    between atoms: C8_8  and  C9_9 
REMARK       I    between atoms: C10_10  and  C11_11 
REMARK       I    between atoms: C12_12  and  C13_13 
REMARK       I    between atoms: C14_14  and  C15_15 
REMARK       I    between atoms: C23_25  and  O23_43 
REMARK       I    between atoms: C26_28  and  C27_29 
REMARK       I    between atoms: C28_30  and  C29_31 
REMARK       I    between atoms: C30_32  and  C31_33 
REMARK       I    between atoms: C32_34  and  C33_35 
REMARK       I    between atoms: C34_36  and  C35_37 
ROOT
HETATM    1  C1  8UH J9621     -48.115 144.998  12.206  1.00 21.11    -0.018 C 
HETATM    2  C2  8UH J9621     -48.947 145.379  13.443  1.00 20.11     0.045 C 
HETATM    3  C3  8UH J9621     -48.459 146.484  14.379  1.00 19.41     0.123 C 
HETATM    4  C4  8UH J9621     -47.079 147.078  14.059  1.00 18.39     0.066 C 
HETATM    5  C5  8UH J9621     -46.194 146.498  13.006  1.00 18.34    -0.074 C 
HETATM    6  C6  8UH J9621     -46.640 145.544  12.120  1.00 19.81    -0.048 C 
HETATM    7  C7  8UH J9621     -45.838 144.960  11.021  1.00 19.02     0.009 C 
HETATM    8  C8  8UH J9621     -44.941 143.966  11.165  1.00 17.97     0.007 C 
HETATM    9  C9  8UH J9621     -44.116 143.340  10.126  1.00 18.85    -0.062 C 
HETATM   10  C10 8UH J9621     -43.374 142.266  10.482  1.00 18.38     0.007 C 
HETATM   11  C11 8UH J9621     -42.559 141.440   9.623  1.00 18.57     0.001 C 
HETATM   12  C12 8UH J9621     -41.926 140.338  10.080  1.00 17.11     0.007 C 
HETATM   13  C13 8UH J9621     -41.138 139.367   9.305  1.00 20.42    -0.062 C 
HETATM   14  C14 8UH J9621     -40.616 138.305   9.960  1.00 20.50     0.007 C 
HETATM   15  C15 8UH J9621     -39.858 137.221   9.383  1.00 20.22     0.001 C 
HETATM   16  C16 8UH J9621     -48.964 145.519  11.020  1.00 19.56     0.020 C 
HETATM   17  C17 8UH J9621     -48.128 143.456  12.159  1.00 18.49     0.020 C 
HETATM   18  C18 8UH J9621     -44.878 147.181  13.060  1.00 16.89     0.044 C 
HETATM   19  C19 8UH J9621     -44.215 143.890   8.731  1.00 14.61     0.048 C 
HETATM   20  C20 8UH J9621     -40.990 139.596   7.818  1.00 17.59     0.048 C 
HETATM   21  O3  8UH J9621     -49.427 147.514  14.466  1.00 18.27    -0.395 OA
ATOM     22  H3  8UH J9621     -49.124 148.201  15.047  1.00  0.00     0.210 HD
HETATM   23  C21 8UH J9621     -33.275 126.588   6.711  1.00 15.23    -0.018 C 
HETATM   24  C22 8UH J9621     -33.875 126.112   5.403  1.00 15.23     0.045 C 
HETATM   25  C23 8UH J9621     -34.102 127.197   4.383  1.00 15.23     0.123 C 
HETATM   26  C24 8UH J9621     -32.856 128.027   4.314  1.00 15.23     0.066 C 
HETATM   27  C25 8UH J9621     -32.596 128.689   5.633  1.00 15.23    -0.074 C 
HETATM   28  C26 8UH J9621     -32.902 128.047   6.762  1.00 15.23    -0.048 C 
HETATM   29  C27 8UH J9621     -33.183 128.766   8.008  1.00 15.23     0.009 C 
HETATM   30  C28 8UH J9621     -34.143 129.682   7.848  1.00 15.23     0.007 C 
HETATM   31  C29 8UH J9621     -34.766 130.414   8.999  1.00 19.55    -0.062 C 
HETATM   32  C30 8UH J9621     -35.696 131.353   8.713  1.00 17.66     0.007 C 
HETATM   33  C31 8UH J9621     -36.408 132.172   9.663  1.00 19.12     0.001 C 
HETATM   34  C32 8UH J9621     -37.198 133.203   9.285  1.00 19.40     0.007 C 
HETATM   35  C33 8UH J9621     -37.961 134.152  10.116  1.00 19.31    -0.062 C 
HETATM   36  C34 8UH J9621     -38.598 135.165   9.490  1.00 17.72     0.007 C 
HETATM   37  C35 8UH J9621     -39.348 136.224  10.106  1.00 19.92     0.001 C 
HETATM   38  C36 8UH J9621     -31.959 125.850   6.869  1.00 15.23     0.020 C 
HETATM   39  C37 8UH J9621     -34.237 126.232   7.829  1.00 15.23     0.020 C 
HETATM   40  C38 8UH J9621     -32.320 130.161   5.542  1.00 15.23     0.044 C 
HETATM   41  C39 8UH J9621     -34.279 130.117  10.392  1.00 18.53     0.048 C 
HETATM   42  C40 8UH J9621     -37.922 133.970  11.609  1.00 15.86     0.048 C 
HETATM   43  O23 8UH J9621     -34.278 126.607   3.100  1.00 15.23    -0.395 OA
ATOM     44  H23 8UH J9621     -34.422 127.291   2.456  1.00  0.00     0.210 HD
ENDROOT
TORSDOF 12
BEGIN_RES PHE A  61
REMARK  2 active torsions:
REMARK  status: ('A' for Active; 'I' for Inactive)
REMARK    1  A    between atoms: CA   and  CB  
REMARK    2  A    between atoms: CB   and  CG  
ROOT
ATOM      1  CA  PHE A  61     -36.237 128.293  12.768  1.00 39.40     0.164 C 
ENDROOT
BRANCH   1   2
ATOM      2  CB  PHE A  61     -36.813 128.951  11.509  1.00 39.41     0.058 C 
BRANCH   2   3
ATOM      3  CG  PHE A  61     -36.935 128.026  10.322  1.00 39.01    -0.020 A 
ATOM      4  CD2 PHE A  61     -36.134 126.900  10.211  1.00 40.32    -0.004 A 
ATOM      5  CE2 PHE A  61     -36.245 126.052   9.117  1.00 40.20    -0.000 A 
ATOM      6  CZ  PHE A  61     -37.159 126.318   8.123  1.00 40.34    -0.000 A 
ATOM      7  CE1 PHE A  61     -37.964 127.431   8.219  1.00 41.51    -0.000 A 
ATOM      8  CD1 PHE A  61     -37.849 128.283   9.310  1.00 39.94    -0.004 A 
ENDBRANCH   2   3
ENDBRANCH   1   2
END_RES PHE A  61
BEGIN_RES VAL A 134
REMARK  1 active torsions:
REMARK  status: ('A' for Active; 'I' for Inactive)
REMARK    3  A    between atoms: CA   and  CB  
ROOT
ATOM      9  CA  VAL A 134     -29.766 132.051   9.815  1.00 40.75     0.159 C 
ENDROOT
BRANCH   9  10
ATOM     10  CB  VAL A 134     -30.864 132.765   9.009  1.00 40.76     0.029 C 
ATOM     11  CG1 VAL A 134     -31.191 131.990   7.741  1.00 41.76     0.002 C 
ATOM     12  CG2 VAL A 134     -32.116 132.990   9.843  1.00 40.56     0.002 C 
ENDBRANCH   9  10
END_RES VAL A 134
BEGIN_RES TYR A 338
REMARK  3 active torsions:
REMARK  status: ('A' for Active; 'I' for Inactive)
REMARK    4  A    between atoms: CA   and  CB  
REMARK    5  A    between atoms: CB   and  CG  
REMARK    6  A    between atoms: CZ   and  OH  
ROOT
ATOM     13  CA  TYR A 338     -41.631 124.950   6.058  1.00 38.23     0.164 C 
ENDROOT
BRANCH  13  14
ATOM     14  CB  TYR A 338     -41.621 126.456   6.339  1.00 39.15     0.058 C 
BRANCH  14  15
ATOM     15  CG  TYR A 338     -40.392 127.202   5.872  1.00 39.03    -0.020 A 
ATOM     16  CD2 TYR A 338     -40.223 128.540   6.188  1.00 40.65    -0.002 A 
ATOM     17  CE2 TYR A 338     -39.117 129.259   5.763  1.00 40.91     0.024 A 
ATOM     18  CZ  TYR A 338     -38.146 128.638   5.000  1.00 42.33     0.089 A 
ATOM     19  CE1 TYR A 338     -38.290 127.301   4.676  1.00 40.63     0.024 A 
ATOM     20  CD1 TYR A 338     -39.411 126.602   5.099  1.00 39.27    -0.002 A 
BRANCH  18  21
ATOM     21  OH  TYR A 338     -37.048 129.337   4.580  1.00 43.36    -0.359 OA
ATOM     22  HH  TYR A 338     -36.287 128.879   4.243  1.00  0.00     0.217 HD
ENDBRANCH  18  21
ENDBRANCH  14  15
ENDBRANCH  13  14
END_RES TYR A 338
ENDMDL
