MODEL 1
REMARK VINA RESULT:   -11.547      0.000      0.000
REMARK INTER + INTRA:         -13.751
REMARK INTER:                 -11.547
REMARK INTRA:                  -2.204
REMARK UNBOUND:                -2.204
REMARK  0 active torsions:
REMARK  status: ('A' for Active; 'I' for Inactive)
REMARK       I    between atoms: C3_3  and  O3_21 
REMARK       I    between atoms: C6_6  and  C7_7 
REMARK       I    between atoms: C8_8  and  C9_9 
REMARK       I    between atoms: C10_10  and  C11_11 
REMARK       I    between atoms: C12_12  and  C13_13 
REMARK       I    between atoms: C14_14  and  C15_15 
REMARK       I    between atoms: C23_25  and  O23_43 
REMARK       I    between atoms: C26_28  and  C27_29 
REMARK       I    between atoms: C28_30  and  C29_31 
REMARK       I    between atoms: C30_32  and  C31_33 
REMARK       I    between atoms: C32_34  and  C33_35 
REMARK       I    between atoms: C34_36  and  C35_37 
ROOT
HETATM    1  C1  8UH 61620     -50.191 144.156   9.255  1.00 97.95    -0.018 C 
HETATM    2  C2  8UH 61620     -51.168 144.300  10.417  1.00 97.95     0.045 C 
HETATM    3  C3  8UH 61620     -50.808 145.286  11.514  1.00 97.95     0.123 C 
HETATM    4  C4  8UH 61620     -50.122 146.513  10.958  1.00 97.95     0.066 C 
HETATM    5  C5  8UH 61620     -48.911 146.084  10.186  1.00 97.95    -0.074 C 
HETATM    6  C6  8UH 61620     -48.949 145.020   9.376  1.00 97.95    -0.048 C 
HETATM    7  C7  8UH 61620     -47.767 144.651   8.560  1.00 97.95     0.009 C 
HETATM    8  C8  8UH 61620     -46.828 143.833   9.032  1.00 97.95     0.007 C 
HETATM    9  C9  8UH 61620     -45.659 143.439   8.244  1.00 97.95    -0.062 C 
HETATM   10  C10 8UH 61620     -44.842 142.547   8.797  1.00 97.95     0.007 C 
HETATM   11  C11 8UH 61620     -43.649 142.039   8.145  1.00 97.95     0.001 C 
HETATM   12  C12 8UH 61620     -42.972 141.164   8.869  1.00 97.95     0.007 C 
HETATM   13  C13 8UH 61620     -41.752 140.497   8.403  1.00 97.95    -0.062 C 
HETATM   14  C14 8UH 61620     -41.388 139.422   9.101  1.00 97.95     0.007 C 
HETATM   15  C15 8UH 61620     -40.236 138.608   8.765  1.00 97.95     0.001 C 
HETATM   16  C16 8UH 61620     -50.969 144.472   7.982  1.00 97.95     0.020 C 
HETATM   17  C17 8UH 61620     -49.732 142.705   9.200  1.00 97.95     0.020 C 
HETATM   18  C18 8UH 61620     -47.722 146.994  10.283  1.00 97.95     0.044 C 
HETATM   19  C19 8UH 61620     -45.405 144.013   6.884  1.00 97.95     0.048 C 
HETATM   20  C20 8UH 61620     -40.978 140.978   7.214  1.00 97.95     0.048 C 
HETATM   21  O3  8UH 61620     -52.007 145.710  12.172  1.00 97.95    -0.395 OA
ATOM     22  H3  8UH 61620     -51.782 146.327  12.858  1.00  0.00     0.210 HD
HETATM   23  C21 8UH 61620     -33.541 129.074   7.248  1.00 22.99    -0.018 C 
HETATM   24  C22 8UH 61620     -32.875 129.798   6.097  1.00 22.99     0.045 C 
HETATM   25  C23 8UH 61620     -32.267 131.123   6.477  1.00 22.99     0.123 C 
HETATM   26  C24 8UH 61620     -31.274 130.820   7.563  1.00 22.99     0.066 C 
HETATM   27  C25 8UH 61620     -31.983 130.259   8.753  1.00 22.99    -0.074 C 
HETATM   28  C26 8UH 61620     -33.151 129.649   8.593  1.00 22.99    -0.048 C 
HETATM   29  C27 8UH 61620     -34.217 129.856   9.565  1.00 22.99     0.009 C 
HETATM   30  C28 8UH 61620     -34.840 130.993   9.238  1.00 22.99     0.007 C 
HETATM   31  C29 8UH 61620     -35.975 131.535   9.985  1.00 97.95    -0.062 C 
HETATM   32  C30 8UH 61620     -36.482 132.666   9.505  1.00 97.95     0.007 C 
HETATM   33  C31 8UH 61620     -37.613 133.378  10.066  1.00 97.95     0.001 C 
HETATM   34  C32 8UH 61620     -37.893 134.482   9.395  1.00 97.95     0.007 C 
HETATM   35  C33 8UH 61620     -38.994 135.372   9.750  1.00 97.95    -0.062 C 
HETATM   36  C34 8UH 61620     -39.156 136.466   9.005  1.00 97.95     0.007 C 
HETATM   37  C35 8UH 61620     -40.238 137.391   9.285  1.00 97.95     0.001 C 
HETATM   38  C36 8UH 61620     -33.171 127.616   7.072  1.00 22.99     0.020 C 
HETATM   39  C37 8UH 61620     -35.045 129.222   7.102  1.00 22.99     0.020 C 
HETATM   40  C38 8UH 61620     -31.692 131.227   9.854  1.00 22.99     0.044 C 
HETATM   41  C39 8UH 61620     -36.533 130.855  11.198  1.00 97.95     0.048 C 
HETATM   42  C40 8UH 61620     -39.893 135.058  10.904  1.00 97.95     0.048 C 
HETATM   43  O23 8UH 61620     -31.557 131.643   5.363  1.00 22.99    -0.395 OA
ATOM     44  H23 8UH 61620     -31.173 132.479   5.603  1.00  0.00     0.210 HD
ENDROOT
TORSDOF 12
BEGIN_RES PHE A  61
REMARK  2 active torsions:
REMARK  status: ('A' for Active; 'I' for Inactive)
REMARK    1  A    between atoms: CA   and  CB  
REMARK    2  A    between atoms: CB   and  CG  
ROOT
ATOM      1  CA  PHE A  61     -36.237 128.293  12.768  1.00 39.40     0.164 C 
ENDROOT
BRANCH   1   2
ATOM      2  CB  PHE A  61     -36.813 128.951  11.509  1.00 39.41     0.058 C 
BRANCH   2   3
ATOM      3  CG  PHE A  61     -36.818 128.063  10.288  1.00 39.01    -0.020 A 
ATOM      4  CD2 PHE A  61     -37.845 128.134   9.360  1.00 40.32    -0.004 A 
ATOM      5  CE2 PHE A  61     -37.850 127.315   8.238  1.00 40.20    -0.000 A 
ATOM      6  CZ  PHE A  61     -36.826 126.419   8.029  1.00 40.34    -0.000 A 
ATOM      7  CE1 PHE A  61     -35.797 126.337   8.941  1.00 41.51    -0.000 A 
ATOM      8  CD1 PHE A  61     -35.795 127.152  10.066  1.00 39.94    -0.004 A 
ENDBRANCH   2   3
ENDBRANCH   1   2
END_RES PHE A  61
BEGIN_RES VAL A 134
REMARK  1 active torsions:
REMARK  status: ('A' for Active; 'I' for Inactive)
REMARK    3  A    between atoms: CA   and  CB  
ROOT
ATOM      9  CA  VAL A 134     -29.766 132.051   9.815  1.00 40.75     0.159 C 
ENDROOT
BRANCH   9  10
ATOM     10  CB  VAL A 134     -30.864 132.765   9.009  1.00 40.76     0.029 C 
ATOM     11  CG1 VAL A 134     -31.918 133.351   9.937  1.00 41.76     0.002 C 
ATOM     12  CG2 VAL A 134     -30.285 133.840   8.102  1.00 40.56     0.002 C 
ENDBRANCH   9  10
END_RES VAL A 134
BEGIN_RES TYR A 338
REMARK  3 active torsions:
REMARK  status: ('A' for Active; 'I' for Inactive)
REMARK    4  A    between atoms: CA   and  CB  
REMARK    5  A    between atoms: CB   and  CG  
REMARK    6  A    between atoms: CZ   and  OH  
ROOT
ATOM     13  CA  TYR A 338     -41.631 124.950   6.058  1.00 38.23     0.164 C 
ENDROOT
BRANCH  13  14
ATOM     14  CB  TYR A 338     -41.621 126.456   6.339  1.00 39.15     0.058 C 
BRANCH  14  15
ATOM     15  CG  TYR A 338     -40.398 127.204   5.862  1.00 39.03    -0.020 A 
ATOM     16  CD2 TYR A 338     -40.229 128.543   6.173  1.00 40.65    -0.002 A 
ATOM     17  CE2 TYR A 338     -39.128 129.264   5.739  1.00 40.91     0.024 A 
ATOM     18  CZ  TYR A 338     -38.161 128.644   4.970  1.00 42.33     0.089 A 
ATOM     19  CE1 TYR A 338     -38.305 127.305   4.650  1.00 40.63     0.024 A 
ATOM     20  CD1 TYR A 338     -39.420 126.605   5.083  1.00 39.27    -0.002 A 
BRANCH  18  21
ATOM     21  OH  TYR A 338     -37.068 129.344   4.540  1.00 43.36    -0.359 OA
ATOM     22  HH  TYR A 338     -36.264 129.338   5.046  1.00  0.00     0.217 HD
ENDBRANCH  18  21
ENDBRANCH  14  15
ENDBRANCH  13  14
END_RES TYR A 338
ENDMDL
MODEL 2
REMARK VINA RESULT:    -9.701      1.200     15.836
REMARK INTER + INTRA:         -11.905
REMARK INTER:                  -9.129
REMARK INTRA:                  -2.776
REMARK UNBOUND:                -2.204
REMARK  0 active torsions:
REMARK  status: ('A' for Active; 'I' for Inactive)
REMARK       I    between atoms: C3_3  and  O3_21 
REMARK       I    between atoms: C6_6  and  C7_7 
REMARK       I    between atoms: C8_8  and  C9_9 
REMARK       I    between atoms: C10_10  and  C11_11 
REMARK       I    between atoms: C12_12  and  C13_13 
REMARK       I    between atoms: C14_14  and  C15_15 
REMARK       I    between atoms: C23_25  and  O23_43 
REMARK       I    between atoms: C26_28  and  C27_29 
REMARK       I    between atoms: C28_30  and  C29_31 
REMARK       I    between atoms: C30_32  and  C31_33 
REMARK       I    between atoms: C32_34  and  C33_35 
REMARK       I    between atoms: C34_36  and  C35_37 
ROOT
HETATM    1  C1  8UH 61620     -34.487 128.140   6.575  1.00 97.95    -0.018 C 
HETATM    2  C2  8UH 61620     -33.670 127.864   5.317  1.00 97.95     0.045 C 
HETATM    3  C3  8UH 61620     -32.286 128.484   5.234  1.00 97.95     0.123 C 
HETATM    4  C4  8UH 61620     -31.601 128.501   6.582  1.00 97.95     0.066 C 
HETATM    5  C5  8UH 61620     -32.472 129.232   7.559  1.00 97.95    -0.074 C 
HETATM    6  C6  8UH 61620     -33.796 129.042   7.580  1.00 97.95    -0.048 C 
HETATM    7  C7  8UH 61620     -34.637 129.713   8.601  1.00 97.95     0.009 C 
HETATM    8  C8  8UH 61620     -35.155 130.921   8.386  1.00 97.95     0.007 C 
HETATM    9  C9  8UH 61620     -36.001 131.600   9.369  1.00 97.95    -0.062 C 
HETATM   10  C10 8UH 61620     -36.529 132.763   8.996  1.00 97.95     0.007 C 
HETATM   11  C11 8UH 61620     -37.402 133.556   9.842  1.00 97.95     0.001 C 
HETATM   12  C12 8UH 61620     -37.812 134.682   9.285  1.00 97.95     0.007 C 
HETATM   13  C13 8UH 61620     -38.723 135.627   9.941  1.00 97.95    -0.062 C 
HETATM   14  C14 8UH 61620     -39.291 136.523   9.136  1.00 97.95     0.007 C 
HETATM   15  C15 8UH 61620     -40.251 137.509   9.595  1.00 97.95     0.001 C 
HETATM   16  C16 8UH 61620     -34.831 126.784   7.184  1.00 97.95     0.020 C 
HETATM   17  C17 8UH 61620     -35.779 128.830   6.157  1.00 97.95     0.020 C 
HETATM   18  C18 8UH 61620     -31.751 130.068   8.574  1.00 97.95     0.044 C 
HETATM   19  C19 8UH 61620     -36.259 131.007  10.720  1.00 97.95     0.048 C 
HETATM   20  C20 8UH 61620     -39.011 135.576  11.410  1.00 97.95     0.048 C 
HETATM   21  O3  8UH 61620     -31.481 127.707   4.339  1.00 97.95    -0.395 OA
ATOM     22  H3  8UH 61620     -30.615 128.095   4.287  1.00  0.00     0.210 HD
HETATM   23  C21 8UH 61620     -49.654 144.551   9.630  1.00 22.99    -0.018 C 
HETATM   24  C22 8UH 61620     -49.708 144.373  11.133  1.00 22.99     0.045 C 
HETATM   25  C23 8UH 61620     -48.438 144.768  11.841  1.00 22.99     0.123 C 
HETATM   26  C24 8UH 61620     -48.200 146.207  11.483  1.00 22.99     0.066 C 
HETATM   27  C25 8UH 61620     -47.985 146.331  10.009  1.00 22.99    -0.074 C 
HETATM   28  C26 8UH 61620     -48.489 145.412   9.193  1.00 22.99    -0.048 C 
HETATM   29  C27 8UH 61620     -47.712 144.953   8.049  1.00 22.99     0.009 C 
HETATM   30  C28 8UH 61620     -46.873 144.009   8.490  1.00 22.99     0.007 C 
HETATM   31  C29 8UH 61620     -45.926 143.304   7.626  1.00 97.95    -0.062 C 
HETATM   32  C30 8UH 61620     -45.185 142.382   8.230  1.00 97.95     0.007 C 
HETATM   33  C31 8UH 61620     -44.192 141.550   7.579  1.00 97.95     0.001 C 
HETATM   34  C32 8UH 61620     -43.593 140.730   8.425  1.00 97.95     0.007 C 
HETATM   35  C33 8UH 61620     -42.563 139.779   8.018  1.00 97.95    -0.062 C 
HETATM   36  C34 8UH 61620     -42.021 139.024   8.973  1.00 97.95     0.007 C 
HETATM   37  C35 8UH 61620     -41.003 138.044   8.645  1.00 97.95     0.001 C 
HETATM   38  C36 8UH 61620     -51.009 145.108   9.244  1.00 22.99     0.020 C 
HETATM   39  C37 8UH 61620     -49.483 143.184   8.991  1.00 22.99     0.020 C 
HETATM   40  C38 8UH 61620     -46.609 146.898   9.878  1.00 22.99     0.044 C 
HETATM   41  C39 8UH 61620     -45.812 143.594   6.160  1.00 97.95     0.048 C 
HETATM   42  C40 8UH 61620     -42.143 139.669   6.586  1.00 97.95     0.048 C 
HETATM   43  O23 8UH 61620     -48.648 144.691  13.244  1.00 22.99    -0.395 OA
ATOM     44  H23 8UH 61620     -47.847 144.940  13.691  1.00  0.00     0.210 HD
ENDROOT
TORSDOF 12
BEGIN_RES PHE A  61
REMARK  2 active torsions:
REMARK  status: ('A' for Active; 'I' for Inactive)
REMARK    1  A    between atoms: CA   and  CB  
REMARK    2  A    between atoms: CB   and  CG  
ROOT
ATOM      1  CA  PHE A  61     -36.237 128.293  12.768  1.00 39.40     0.164 C 
ENDROOT
BRANCH   1   2
ATOM      2  CB  PHE A  61     -36.813 128.951  11.509  1.00 39.41     0.058 C 
BRANCH   2   3
ATOM      3  CG  PHE A  61     -37.028 128.004  10.353  1.00 39.01    -0.020 A 
ATOM      4  CD2 PHE A  61     -36.278 126.845  10.233  1.00 40.32    -0.004 A 
ATOM      5  CE2 PHE A  61     -36.475 125.976   9.167  1.00 40.20    -0.000 A 
ATOM      6  CZ  PHE A  61     -37.426 126.254   8.212  1.00 40.34    -0.000 A 
ATOM      7  CE1 PHE A  61     -38.181 127.401   8.318  1.00 41.51    -0.000 A 
ATOM      8  CD1 PHE A  61     -37.980 128.273   9.380  1.00 39.94    -0.004 A 
ENDBRANCH   2   3
ENDBRANCH   1   2
END_RES PHE A  61
BEGIN_RES VAL A 134
REMARK  1 active torsions:
REMARK  status: ('A' for Active; 'I' for Inactive)
REMARK    3  A    between atoms: CA   and  CB  
ROOT
ATOM      9  CA  VAL A 134     -29.766 132.051   9.815  1.00 40.75     0.159 C 
ENDROOT
BRANCH   9  10
ATOM     10  CB  VAL A 134     -30.864 132.765   9.009  1.00 40.76     0.029 C 
ATOM     11  CG1 VAL A 134     -30.888 132.265   7.572  1.00 41.76     0.002 C 
ATOM     12  CG2 VAL A 134     -32.230 132.606   9.659  1.00 40.56     0.002 C 
ENDBRANCH   9  10
END_RES VAL A 134
BEGIN_RES TYR A 338
REMARK  3 active torsions:
REMARK  status: ('A' for Active; 'I' for Inactive)
REMARK    4  A    between atoms: CA   and  CB  
REMARK    5  A    between atoms: CB   and  CG  
REMARK    6  A    between atoms: CZ   and  OH  
ROOT
ATOM     13  CA  TYR A 338     -41.631 124.950   6.058  1.00 38.23     0.164 C 
ENDROOT
BRANCH  13  14
ATOM     14  CB  TYR A 338     -41.621 126.456   6.339  1.00 39.15     0.058 C 
BRANCH  14  15
ATOM     15  CG  TYR A 338     -40.434 127.217   5.795  1.00 39.03    -0.020 A 
ATOM     16  CD2 TYR A 338     -40.289 128.569   6.055  1.00 40.65    -0.002 A 
ATOM     17  CE2 TYR A 338     -39.222 129.302   5.559  1.00 40.91     0.024 A 
ATOM     18  CZ  TYR A 338     -38.266 128.679   4.779  1.00 42.33     0.089 A 
ATOM     19  CE1 TYR A 338     -38.386 127.327   4.510  1.00 40.63     0.024 A 
ATOM     20  CD1 TYR A 338     -39.468 126.615   5.004  1.00 39.27    -0.002 A 
BRANCH  18  21
ATOM     21  OH  TYR A 338     -37.206 129.390   4.289  1.00 43.36    -0.359 OA
ATOM     22  HH  TYR A 338     -36.876 130.146   4.760  1.00  0.00     0.217 HD
ENDBRANCH  18  21
ENDBRANCH  14  15
ENDBRANCH  13  14
END_RES TYR A 338
ENDMDL
