MODEL 1
REMARK VINA RESULT:   -12.127      0.000      0.000
REMARK INTER + INTRA:         -14.637
REMARK INTER:                 -12.127
REMARK INTRA:                  -2.509
REMARK UNBOUND:                -2.509
REMARK  0 active torsions:
REMARK  status: ('A' for Active; 'I' for Inactive)
REMARK       I    between atoms: C3_3  and  O3_21 
REMARK       I    between atoms: C6_6  and  C7_7 
REMARK       I    between atoms: C8_8  and  C9_9 
REMARK       I    between atoms: C10_10  and  C11_11 
REMARK       I    between atoms: C12_12  and  C13_13 
REMARK       I    between atoms: C14_14  and  C15_15 
REMARK       I    between atoms: C23_25  and  O23_43 
REMARK       I    between atoms: C26_28  and  C27_29 
REMARK       I    between atoms: C28_30  and  C29_31 
REMARK       I    between atoms: C30_32  and  C31_33 
REMARK       I    between atoms: C32_34  and  C33_35 
REMARK       I    between atoms: C34_36  and  C35_37 
ROOT
HETATM    1  C1  8UH y1621     -47.666 145.601  12.795  1.00 26.19    -0.018 C 
HETATM    2  C2  8UH y1621     -48.488 146.136  13.962  1.00 26.65     0.045 C 
HETATM    3  C3  8UH y1621     -47.734 146.836  15.077  1.00 28.07     0.123 C 
HETATM    4  C4  8UH y1621     -46.612 147.686  14.541  1.00 30.07     0.066 C 
HETATM    5  C5  8UH y1621     -45.704 146.832  13.719  1.00 28.83    -0.074 C 
HETATM    6  C6  8UH y1621     -46.205 146.026  12.778  1.00 27.49    -0.048 C 
HETATM    7  C7  8UH y1621     -45.369 145.508  11.667  1.00 29.45     0.009 C 
HETATM    8  C8  8UH y1621     -44.455 144.550  11.842  1.00 27.83     0.007 C 
HETATM    9  C9  8UH y1621     -43.656 144.008  10.739  1.00 26.06    -0.062 C 
HETATM   10  C10 8UH y1621     -43.036 142.858  10.991  1.00 25.01     0.007 C 
HETATM   11  C11 8UH y1621     -42.243 142.122  10.031  1.00 25.09     0.001 C 
HETATM   12  C12 8UH y1621     -41.751 140.987  10.489  1.00 26.01     0.007 C 
HETATM   13  C13 8UH y1621     -40.983 140.057   9.660  1.00 26.36    -0.062 C 
HETATM   14  C14 8UH y1621     -40.618 138.896  10.211  1.00 27.67     0.007 C 
HETATM   15  C15 8UH y1621     -39.889 137.898   9.446  1.00 28.38     0.001 C 
HETATM   16  C16 8UH y1621     -48.383 146.093  11.551  1.00 26.46     0.020 C 
HETATM   17  C17 8UH y1621     -47.693 144.080  12.831  1.00 26.61     0.020 C 
HETATM   18  C18 8UH y1621     -44.449 147.621  13.536  1.00 29.43     0.044 C 
HETATM   19  C19 8UH y1621     -43.563 144.697   9.414  1.00 26.07     0.048 C 
HETATM   20  C20 8UH y1621     -40.680 140.382   8.230  1.00 25.83     0.048 C 
HETATM   21  O3  8UH y1621     -48.643 147.668  15.793  1.00 27.44    -0.395 OA
ATOM     22  H3  8UH y1621     -48.171 148.106  16.492  1.00  0.00     0.210 HD
HETATM   23  C21 8UH y1621     -34.410 126.933   6.448  1.00 66.29    -0.018 C 
HETATM   24  C22 8UH y1621     -34.112 126.381   5.059  1.00 66.29     0.045 C 
HETATM   25  C23 8UH y1621     -33.093 127.111   4.198  1.00 66.29     0.123 C 
HETATM   26  C24 8UH y1621     -32.008 127.747   5.042  1.00 66.29     0.066 C 
HETATM   27  C25 8UH y1621     -32.639 128.641   6.067  1.00 66.29    -0.074 C 
HETATM   28  C26 8UH y1621     -33.700 128.235   6.773  1.00 66.29    -0.048 C 
HETATM   29  C27 8UH y1621     -34.203 129.047   7.910  1.00 66.29     0.009 C 
HETATM   30  C28 8UH y1621     -35.086 130.031   7.730  1.00 66.29     0.007 C 
HETATM   31  C29 8UH y1621     -35.603 130.833   8.835  1.00 29.73    -0.062 C 
HETATM   32  C30 8UH y1621     -36.640 131.614   8.552  1.00 28.64     0.007 C 
HETATM   33  C31 8UH y1621     -37.282 132.486   9.511  1.00 27.79     0.001 C 
HETATM   34  C32 8UH y1621     -37.766 133.606   9.002  1.00 27.11     0.007 C 
HETATM   35  C33 8UH y1621     -38.455 134.605   9.816  1.00 25.78    -0.062 C 
HETATM   36  C34 8UH y1621     -38.872 135.738   9.251  1.00 26.10     0.007 C 
HETATM   37  C35 8UH y1621     -39.579 136.748  10.022  1.00 27.22     0.001 C 
HETATM   38  C36 8UH y1621     -34.051 125.850   7.458  1.00 66.29     0.020 C 
HETATM   39  C37 8UH y1621     -35.908 127.185   6.527  1.00 66.29     0.020 C 
HETATM   40  C38 8UH y1621     -31.804 129.822   6.468  1.00 66.29     0.044 C 
HETATM   41  C39 8UH y1621     -34.991 130.755  10.193  1.00 32.37     0.048 C 
HETATM   42  C40 8UH y1621     -38.684 134.325  11.258  1.00 25.14     0.048 C 
HETATM   43  O23 8UH y1621     -32.487 126.165   3.313  1.00 66.29    -0.395 OA
ATOM     44  H23 8UH y1621     -31.850 126.621   2.775  1.00  0.00     0.210 HD
ENDROOT
TORSDOF 12
BEGIN_RES PHE A  61
REMARK  2 active torsions:
REMARK  status: ('A' for Active; 'I' for Inactive)
REMARK    1  A    between atoms: CA   and  CB  
REMARK    2  A    between atoms: CB   and  CG  
ROOT
ATOM      1  CA  PHE A  61     -36.237 128.293  12.768  1.00 39.40     0.164 C 
ENDROOT
BRANCH   1   2
ATOM      2  CB  PHE A  61     -36.813 128.951  11.509  1.00 39.41     0.058 C 
BRANCH   2   3
ATOM      3  CG  PHE A  61     -37.085 127.994  10.373  1.00 39.01    -0.020 A 
ATOM      4  CD2 PHE A  61     -36.359 126.820  10.242  1.00 40.32    -0.004 A 
ATOM      5  CE2 PHE A  61     -36.608 125.942   9.195  1.00 40.20    -0.000 A 
ATOM      6  CZ  PHE A  61     -37.587 126.225   8.270  1.00 40.34    -0.000 A 
ATOM      7  CE1 PHE A  61     -38.319 127.386   8.387  1.00 41.51    -0.000 A 
ATOM      8  CD1 PHE A  61     -38.066 128.267   9.430  1.00 39.94    -0.004 A 
ENDBRANCH   2   3
ENDBRANCH   1   2
END_RES PHE A  61
BEGIN_RES VAL A 134
REMARK  1 active torsions:
REMARK  status: ('A' for Active; 'I' for Inactive)
REMARK    3  A    between atoms: CA   and  CB  
ROOT
ATOM      9  CA  VAL A 134     -29.766 132.051   9.815  1.00 40.75     0.159 C 
ENDROOT
BRANCH   9  10
ATOM     10  CB  VAL A 134     -30.864 132.765   9.009  1.00 40.76     0.029 C 
ATOM     11  CG1 VAL A 134     -30.883 132.270   7.570  1.00 41.76     0.002 C 
ATOM     12  CG2 VAL A 134     -32.231 132.601   9.655  1.00 40.56     0.002 C 
ENDBRANCH   9  10
END_RES VAL A 134
BEGIN_RES TYR A 338
REMARK  3 active torsions:
REMARK  status: ('A' for Active; 'I' for Inactive)
REMARK    4  A    between atoms: CA   and  CB  
REMARK    5  A    between atoms: CB   and  CG  
REMARK    6  A    between atoms: CZ   and  OH  
ROOT
ATOM     13  CA  TYR A 338     -41.631 124.950   6.058  1.00 38.23     0.164 C 
ENDROOT
BRANCH  13  14
ATOM     14  CB  TYR A 338     -41.621 126.456   6.339  1.00 39.15     0.058 C 
BRANCH  14  15
ATOM     15  CG  TYR A 338     -40.404 127.207   5.849  1.00 39.03    -0.020 A 
ATOM     16  CD2 TYR A 338     -40.231 128.544   6.165  1.00 40.65    -0.002 A 
ATOM     17  CE2 TYR A 338     -39.136 129.267   5.719  1.00 40.91     0.024 A 
ATOM     18  CZ  TYR A 338     -38.180 128.651   4.934  1.00 42.33     0.089 A 
ATOM     19  CE1 TYR A 338     -38.328 127.314   4.608  1.00 40.63     0.024 A 
ATOM     20  CD1 TYR A 338     -39.438 126.612   5.053  1.00 39.27    -0.002 A 
BRANCH  18  21
ATOM     21  OH  TYR A 338     -37.094 129.353   4.492  1.00 43.36    -0.359 OA
ATOM     22  HH  TYR A 338     -36.413 128.920   3.991  1.00  0.00     0.217 HD
ENDBRANCH  18  21
ENDBRANCH  14  15
ENDBRANCH  13  14
END_RES TYR A 338
ENDMDL
