MODEL 1
REMARK VINA RESULT:   -11.659      0.000      0.000
REMARK INTER + INTRA:         -14.209
REMARK INTER:                 -11.659
REMARK INTRA:                  -2.550
REMARK UNBOUND:                -2.550
REMARK  0 active torsions:
REMARK  status: ('A' for Active; 'I' for Inactive)
REMARK       I    between atoms: C3_3  and  O3_21 
REMARK       I    between atoms: C6_6  and  C7_7 
REMARK       I    between atoms: C8_8  and  C9_9 
REMARK       I    between atoms: C10_10  and  C11_11 
REMARK       I    between atoms: C12_12  and  C13_13 
REMARK       I    between atoms: C14_14  and  C15_15 
REMARK       I    between atoms: C23_25  and  O23_43 
REMARK       I    between atoms: C26_28  and  C27_29 
REMARK       I    between atoms: C28_30  and  C29_31 
REMARK       I    between atoms: C30_32  and  C31_33 
REMARK       I    between atoms: C32_34  and  C33_35 
REMARK       I    between atoms: C34_36  and  C35_37 
ROOT
HETATM    1  C1  8UH H7620     -49.064 145.150  12.253  1.00 19.07    -0.018 C 
HETATM    2  C2  8UH H7620     -49.713 146.029  13.339  1.00 18.69     0.045 C 
HETATM    3  C3  8UH H7620     -48.818 147.044  14.045  1.00 19.88     0.123 C 
HETATM    4  C4  8UH H7620     -47.760 147.682  13.128  1.00 19.59     0.066 C 
HETATM    5  C5  8UH H7620     -47.170 146.834  12.045  1.00 18.61    -0.074 C 
HETATM    6  C6  8UH H7620     -47.742 145.656  11.611  1.00 18.29    -0.048 C 
HETATM    7  C7  8UH H7620     -47.127 144.850  10.536  1.00 19.20     0.009 C 
HETATM    8  C8  8UH H7620     -46.059 144.017  10.620  1.00 18.47     0.007 C 
HETATM    9  C9  8UH H7620     -45.346 143.348   9.525  1.00 18.73    -0.062 C 
HETATM   10  C10 8UH H7620     -44.365 142.477   9.851  1.00 19.74     0.007 C 
HETATM   11  C11 8UH H7620     -43.541 141.701   8.940  1.00 21.97     0.001 C 
HETATM   12  C12 8UH H7620     -42.715 140.736   9.412  1.00 21.62     0.007 C 
HETATM   13  C13 8UH H7620     -41.833 139.817   8.669  1.00 22.34    -0.062 C 
HETATM   14  C14 8UH H7620     -41.184 138.867   9.379  1.00 21.69     0.007 C 
HETATM   15  C15 8UH H7620     -40.340 137.814   8.889  1.00 22.95     0.001 C 
HETATM   16  C16 8UH H7620     -50.178 145.086  11.192  1.00 17.04     0.020 C 
HETATM   17  C17 8UH H7620     -48.861 143.740  12.839  1.00 20.18     0.020 C 
HETATM   18  C18 8UH H7620     -45.933 147.511  11.581  1.00 19.93     0.044 C 
HETATM   19  C19 8UH H7620     -45.788 143.646   8.116  1.00 16.18     0.048 C 
HETATM   20  C20 8UH H7620     -41.769 139.956   7.177  1.00 18.83     0.048 C 
HETATM   21  O3  8UH H7620     -49.603 148.047  14.673  1.00 19.51    -0.395 OA
ATOM     22  H3  8UH H7620     -49.046 148.678  15.112  1.00  0.00     0.210 HD
HETATM   23  C21 8UH H7620     -34.228 126.999   6.552  1.00 76.22    -0.018 C 
HETATM   24  C22 8UH H7620     -33.933 126.575   5.113  1.00 77.20     0.045 C 
HETATM   25  C23 8UH H7620     -32.926 127.422   4.340  1.00 77.70     0.123 C 
HETATM   26  C24 8UH H7620     -31.795 127.874   5.243  1.00 77.16     0.066 C 
HETATM   27  C25 8UH H7620     -32.384 128.666   6.376  1.00 77.00    -0.074 C 
HETATM   28  C26 8UH H7620     -33.478 128.234   7.004  1.00 75.82    -0.048 C 
HETATM   29  C27 8UH H7620     -34.002 128.983   8.166  1.00 74.01     0.009 C 
HETATM   30  C28 8UH H7620     -34.798 130.029   7.958  1.00 71.77     0.007 C 
HETATM   31  C29 8UH H7620     -35.394 130.862   9.054  1.00 34.32    -0.062 C 
HETATM   32  C30 8UH H7620     -36.180 131.898   8.686  1.00 32.68     0.007 C 
HETATM   33  C31 8UH H7620     -36.879 132.800   9.565  1.00 31.36     0.001 C 
HETATM   34  C32 8UH H7620     -37.609 133.844   9.117  1.00 27.71     0.007 C 
HETATM   35  C33 8UH H7620     -38.363 134.841   9.895  1.00 25.49    -0.062 C 
HETATM   36  C34 8UH H7620     -38.991 135.823   9.211  1.00 25.45     0.007 C 
HETATM   37  C35 8UH H7620     -39.791 136.914   9.723  1.00 24.93     0.001 C 
HETATM   38  C36 8UH H7620     -33.868 125.850   7.484  1.00 75.57     0.020 C 
HETATM   39  C37 8UH H7620     -35.716 127.299   6.676  1.00 77.01     0.020 C 
HETATM   40  C38 8UH H7620     -31.597 129.828   6.908  1.00 76.92     0.044 C 
HETATM   41  C39 8UH H7620     -35.083 130.512  10.481  1.00 34.07     0.048 C 
HETATM   42  C40 8UH H7620     -38.365 134.701  11.388  1.00 21.83     0.048 C 
HETATM   43  O23 8UH H7620     -32.373 126.646   3.271  1.00 79.46    -0.395 OA
ATOM     44  H23 8UH H7620     -33.082 126.363   2.705  1.00  0.00     0.210 HD
ENDROOT
TORSDOF 12
BEGIN_RES PHE A  61
REMARK  2 active torsions:
REMARK  status: ('A' for Active; 'I' for Inactive)
REMARK    1  A    between atoms: CA   and  CB  
REMARK    2  A    between atoms: CB   and  CG  
ROOT
ATOM      1  CA  PHE A  61     -36.237 128.293  12.768  1.00 39.40     0.164 C 
ENDROOT
BRANCH   1   2
ATOM      2  CB  PHE A  61     -36.813 128.951  11.509  1.00 39.41     0.058 C 
BRANCH   2   3
ATOM      3  CG  PHE A  61     -37.071 127.996  10.368  1.00 39.01    -0.020 A 
ATOM      4  CD2 PHE A  61     -36.348 126.819  10.248  1.00 40.32    -0.004 A 
ATOM      5  CE2 PHE A  61     -36.584 125.943   9.196  1.00 40.20    -0.000 A 
ATOM      6  CZ  PHE A  61     -37.547 126.231   8.255  1.00 40.34    -0.000 A 
ATOM      7  CE1 PHE A  61     -38.275 127.396   8.362  1.00 41.51    -0.000 A 
ATOM      8  CD1 PHE A  61     -38.035 128.275   9.410  1.00 39.94    -0.004 A 
ENDBRANCH   2   3
ENDBRANCH   1   2
END_RES PHE A  61
BEGIN_RES VAL A 134
REMARK  1 active torsions:
REMARK  status: ('A' for Active; 'I' for Inactive)
REMARK    3  A    between atoms: CA   and  CB  
ROOT
ATOM      9  CA  VAL A 134     -29.766 132.051   9.815  1.00 40.75     0.159 C 
ENDROOT
BRANCH   9  10
ATOM     10  CB  VAL A 134     -30.864 132.765   9.009  1.00 40.76     0.029 C 
ATOM     11  CG1 VAL A 134     -30.851 132.307   7.558  1.00 41.76     0.002 C 
ATOM     12  CG2 VAL A 134     -32.238 132.560   9.628  1.00 40.56     0.002 C 
ENDBRANCH   9  10
END_RES VAL A 134
BEGIN_RES TYR A 338
REMARK  3 active torsions:
REMARK  status: ('A' for Active; 'I' for Inactive)
REMARK    4  A    between atoms: CA   and  CB  
REMARK    5  A    between atoms: CB   and  CG  
REMARK    6  A    between atoms: CZ   and  OH  
ROOT
ATOM     13  CA  TYR A 338     -41.631 124.950   6.058  1.00 38.23     0.164 C 
ENDROOT
BRANCH  13  14
ATOM     14  CB  TYR A 338     -41.621 126.456   6.339  1.00 39.15     0.058 C 
BRANCH  14  15
ATOM     15  CG  TYR A 338     -40.410 127.209   5.838  1.00 39.03    -0.020 A 
ATOM     16  CD2 TYR A 338     -40.236 128.546   6.153  1.00 40.65    -0.002 A 
ATOM     17  CE2 TYR A 338     -39.146 129.271   5.698  1.00 40.91     0.024 A 
ATOM     18  CZ  TYR A 338     -38.196 128.657   4.904  1.00 42.33     0.089 A 
ATOM     19  CE1 TYR A 338     -38.345 127.320   4.579  1.00 40.63     0.024 A 
ATOM     20  CD1 TYR A 338     -39.450 126.615   5.034  1.00 39.27    -0.002 A 
BRANCH  18  21
ATOM     21  OH  TYR A 338     -37.115 129.361   4.453  1.00 43.36    -0.359 OA
ATOM     22  HH  TYR A 338     -37.179 130.297   4.305  1.00  0.00     0.217 HD
ENDBRANCH  18  21
ENDBRANCH  14  15
ENDBRANCH  13  14
END_RES TYR A 338
ENDMDL
