MODEL 1
REMARK VINA RESULT:   -10.448      0.000      0.000
REMARK INTER + INTRA:         -13.063
REMARK INTER:                 -10.448
REMARK INTRA:                  -2.615
REMARK UNBOUND:                -2.615
REMARK  0 active torsions:
REMARK  status: ('A' for Active; 'I' for Inactive)
REMARK       I    between atoms: C3_3  and  O3_21 
REMARK       I    between atoms: C6_6  and  C7_7 
REMARK       I    between atoms: C8_8  and  C9_9 
REMARK       I    between atoms: C10_10  and  C11_11 
REMARK       I    between atoms: C12_12  and  C13_13 
REMARK       I    between atoms: C14_14  and  C15_15 
REMARK       I    between atoms: C23_25  and  O23_43 
REMARK       I    between atoms: C26_28  and  C27_29 
REMARK       I    between atoms: C28_30  and  C29_31 
REMARK       I    between atoms: C30_32  and  C31_33 
REMARK       I    between atoms: C32_34  and  C33_35 
REMARK       I    between atoms: C34_36  and  C35_37 
ROOT
HETATM    1  C1  8UH 21621     -48.141 145.226  12.562  1.00 90.34    -0.018 C 
HETATM    2  C2  8UH 21621     -48.740 145.598  13.915  1.00 90.34     0.045 C 
HETATM    3  C3  8UH 21621     -47.938 146.523  14.816  1.00 90.34     0.123 C 
HETATM    4  C4  8UH 21621     -47.122 147.514  14.010  1.00 90.34     0.066 C 
HETATM    5  C5  8UH 21621     -46.248 146.730  13.075  1.00 90.34    -0.074 C 
HETATM    6  C6  8UH 21621     -46.768 145.798  12.280  1.00 90.34    -0.048 C 
HETATM    7  C7  8UH 21621     -46.041 145.300  11.086  1.00 90.34     0.009 C 
HETATM    8  C8  8UH 21621     -45.077 144.382  11.201  1.00 90.34     0.007 C 
HETATM    9  C9  8UH 21621     -44.329 143.816  10.070  1.00 90.34    -0.062 C 
HETATM   10  C10 8UH 21621     -43.644 142.704  10.337  1.00 90.34     0.007 C 
HETATM   11  C11 8UH 21621     -42.845 141.920   9.411  1.00 90.34     0.001 C 
HETATM   12  C12 8UH 21621     -42.265 140.857   9.960  1.00 90.34     0.007 C 
HETATM   13  C13 8UH 21621     -41.446 139.918   9.186  1.00 90.34    -0.062 C 
HETATM   14  C14 8UH 21621     -40.933 138.856   9.813  1.00 90.34     0.007 C 
HETATM   15  C15 8UH 21621     -40.143 137.860   9.100  1.00 90.34     0.001 C 
HETATM   16  C16 8UH 21621     -49.148 145.664  11.506  1.00 90.34     0.020 C 
HETATM   17  C17 8UH 21621     -47.994 143.717  12.513  1.00 90.34     0.020 C 
HETATM   18  C18 8UH 21621     -45.122 147.610  12.632  1.00 90.34     0.044 C 
HETATM   19  C19 8UH 21621     -44.346 144.437   8.708  1.00 90.34     0.048 C 
HETATM   20  C20 8UH 21621     -41.213 140.141   7.724  1.00 90.34     0.048 C 
HETATM   21  O3  8UH 21621     -48.855 147.254  15.628  1.00 90.34    -0.395 OA
ATOM     22  H3  8UH 21621     -48.354 147.832  16.191  1.00  0.00     0.210 HD
HETATM   23  C21 8UH 21621     -34.338 126.800   6.538  1.00 71.46    -0.018 C 
HETATM   24  C22 8UH 21621     -33.791 126.002   5.368  1.00 75.98     0.045 C 
HETATM   25  C23 8UH 21621     -33.117 126.769   4.252  1.00 84.37     0.123 C 
HETATM   26  C24 8UH 21621     -32.169 127.798   4.800  1.00 79.68     0.066 C 
HETATM   27  C25 8UH 21621     -32.900 128.697   5.751  1.00 81.86    -0.074 C 
HETATM   28  C26 8UH 21621     -33.795 128.220   6.630  1.00 72.92    -0.048 C 
HETATM   29  C27 8UH 21621     -34.249 129.078   7.752  1.00 76.42     0.009 C 
HETATM   30  C28 8UH 21621     -35.231 129.961   7.592  1.00 69.46     0.007 C 
HETATM   31  C29 8UH 21621     -35.700 130.822   8.685  1.00 90.34    -0.062 C 
HETATM   32  C30 8UH 21621     -36.767 131.568   8.408  1.00 90.34     0.007 C 
HETATM   33  C31 8UH 21621     -37.422 132.476   9.338  1.00 90.34     0.001 C 
HETATM   34  C32 8UH 21621     -37.913 133.593   8.814  1.00 90.34     0.007 C 
HETATM   35  C33 8UH 21621     -38.628 134.594   9.614  1.00 90.34    -0.062 C 
HETATM   36  C34 8UH 21621     -38.981 135.751   9.036  1.00 90.34     0.007 C 
HETATM   37  C35 8UH 21621     -39.731 136.777   9.751  1.00 90.34     0.001 C 
HETATM   38  C36 8UH 21621     -34.045 125.964   7.775  1.00 75.59     0.020 C 
HETATM   39  C37 8UH 21621     -35.851 126.877   6.406  1.00 74.59     0.020 C 
HETATM   40  C38 8UH 21621     -32.128 129.961   5.983  1.00 90.73     0.044 C 
HETATM   41  C39 8UH 21621     -35.040 130.846  10.029  1.00 90.34     0.048 C 
HETATM   42  C40 8UH 21621     -38.968 134.290  11.037  1.00 90.34     0.048 C 
HETATM   43  O23 8UH 21621     -32.357 125.850   3.469  1.00 94.57    -0.395 OA
ATOM     44  H23 8UH 21621     -32.956 125.200   3.123  1.00  0.00     0.210 HD
ENDROOT
TORSDOF 12
BEGIN_RES PHE A  61
REMARK  2 active torsions:
REMARK  status: ('A' for Active; 'I' for Inactive)
REMARK    1  A    between atoms: CA   and  CB  
REMARK    2  A    between atoms: CB   and  CG  
ROOT
ATOM      1  CA  PHE A  61     -36.237 128.293  12.768  1.00 39.40     0.164 C 
ENDROOT
BRANCH   1   2
ATOM      2  CB  PHE A  61     -36.813 128.951  11.509  1.00 39.41     0.058 C 
BRANCH   2   3
ATOM      3  CG  PHE A  61     -37.092 127.993  10.376  1.00 39.01    -0.020 A 
ATOM      4  CD2 PHE A  61     -36.379 126.810  10.252  1.00 40.32    -0.004 A 
ATOM      5  CE2 PHE A  61     -36.634 125.931   9.207  1.00 40.20    -0.000 A 
ATOM      6  CZ  PHE A  61     -37.606 126.222   8.277  1.00 40.34    -0.000 A 
ATOM      7  CE1 PHE A  61     -38.325 127.392   8.387  1.00 41.51    -0.000 A 
ATOM      8  CD1 PHE A  61     -38.065 128.274   9.428  1.00 39.94    -0.004 A 
ENDBRANCH   2   3
ENDBRANCH   1   2
END_RES PHE A  61
BEGIN_RES VAL A 134
REMARK  1 active torsions:
REMARK  status: ('A' for Active; 'I' for Inactive)
REMARK    3  A    between atoms: CA   and  CB  
ROOT
ATOM      9  CA  VAL A 134     -29.766 132.051   9.815  1.00 40.75     0.159 C 
ENDROOT
BRANCH   9  10
ATOM     10  CB  VAL A 134     -30.864 132.765   9.009  1.00 40.76     0.029 C 
ATOM     11  CG1 VAL A 134     -31.190 131.991   7.740  1.00 41.76     0.002 C 
ATOM     12  CG2 VAL A 134     -32.117 132.988   9.842  1.00 40.56     0.002 C 
ENDBRANCH   9  10
END_RES VAL A 134
BEGIN_RES TYR A 338
REMARK  3 active torsions:
REMARK  status: ('A' for Active; 'I' for Inactive)
REMARK    4  A    between atoms: CA   and  CB  
REMARK    5  A    between atoms: CB   and  CG  
REMARK    6  A    between atoms: CZ   and  OH  
ROOT
ATOM     13  CA  TYR A 338     -41.631 124.950   6.058  1.00 38.23     0.164 C 
ENDROOT
BRANCH  13  14
ATOM     14  CB  TYR A 338     -41.621 126.456   6.339  1.00 39.15     0.058 C 
BRANCH  14  15
ATOM     15  CG  TYR A 338     -40.407 127.208   5.843  1.00 39.03    -0.020 A 
ATOM     16  CD2 TYR A 338     -40.226 128.541   6.171  1.00 40.65    -0.002 A 
ATOM     17  CE2 TYR A 338     -39.134 129.265   5.721  1.00 40.91     0.024 A 
ATOM     18  CZ  TYR A 338     -38.188 128.654   4.919  1.00 42.33     0.089 A 
ATOM     19  CE1 TYR A 338     -38.344 127.321   4.582  1.00 40.63     0.024 A 
ATOM     20  CD1 TYR A 338     -39.451 126.618   5.031  1.00 39.27    -0.002 A 
BRANCH  18  21
ATOM     21  OH  TYR A 338     -37.104 129.357   4.473  1.00 43.36    -0.359 OA
ATOM     22  HH  TYR A 338     -37.190 129.963   3.747  1.00  0.00     0.217 HD
ENDBRANCH  18  21
ENDBRANCH  14  15
ENDBRANCH  13  14
END_RES TYR A 338
ENDMDL
MODEL 2
REMARK VINA RESULT:   -10.068      1.410     16.700
REMARK INTER + INTRA:         -12.683
REMARK INTER:                  -9.490
REMARK INTRA:                  -3.193
REMARK UNBOUND:                -2.615
REMARK  0 active torsions:
REMARK  status: ('A' for Active; 'I' for Inactive)
REMARK       I    between atoms: C3_3  and  O3_21 
REMARK       I    between atoms: C6_6  and  C7_7 
REMARK       I    between atoms: C8_8  and  C9_9 
REMARK       I    between atoms: C10_10  and  C11_11 
REMARK       I    between atoms: C12_12  and  C13_13 
REMARK       I    between atoms: C14_14  and  C15_15 
REMARK       I    between atoms: C23_25  and  O23_43 
REMARK       I    between atoms: C26_28  and  C27_29 
REMARK       I    between atoms: C28_30  and  C29_31 
REMARK       I    between atoms: C30_32  and  C31_33 
REMARK       I    between atoms: C32_34  and  C33_35 
REMARK       I    between atoms: C34_36  and  C35_37 
ROOT
HETATM    1  C1  8UH 21621     -34.448 126.953   6.211  1.00 90.34    -0.018 C 
HETATM    2  C2  8UH 21621     -34.076 126.327   4.871  1.00 90.34     0.045 C 
HETATM    3  C3  8UH 21621     -32.926 126.945   4.094  1.00 90.34     0.123 C 
HETATM    4  C4  8UH 21621     -31.872 127.518   5.021  1.00 90.34     0.066 C 
HETATM    5  C5  8UH 21621     -32.549 128.509   5.921  1.00 90.34    -0.074 C 
HETATM    6  C6  8UH 21621     -33.640 128.171   6.606  1.00 90.34    -0.048 C 
HETATM    7  C7  8UH 21621     -34.092 128.953   7.784  1.00 90.34     0.009 C 
HETATM    8  C8  8UH 21621     -34.780 130.088   7.632  1.00 90.34     0.007 C 
HETATM    9  C9  8UH 21621     -35.289 130.905   8.741  1.00 90.34    -0.062 C 
HETATM   10  C10 8UH 21621     -36.208 131.812   8.409  1.00 90.34     0.007 C 
HETATM   11  C11 8UH 21621     -36.900 132.730   9.298  1.00 90.34     0.001 C 
HETATM   12  C12 8UH 21621     -37.765 133.531   8.683  1.00 90.34     0.007 C 
HETATM   13  C13 8UH 21621     -38.588 134.505   9.408  1.00 90.34    -0.062 C 
HETATM   14  C14 8UH 21621     -39.460 135.243   8.714  1.00 90.34     0.007 C 
HETATM   15  C15 8UH 21621     -40.338 136.201   9.372  1.00 90.34     0.001 C 
HETATM   16  C16 8UH 21621     -34.326 125.850   7.255  1.00 90.34     0.020 C 
HETATM   17  C17 8UH 21621     -35.893 127.407   6.134  1.00 90.34     0.020 C 
HETATM   18  C18 8UH 21621     -31.506 129.418   6.492  1.00 90.34     0.044 C 
HETATM   19  C19 8UH 21621     -34.818 130.725  10.151  1.00 90.34     0.048 C 
HETATM   20  C20 8UH 21621     -38.465 134.648  10.894  1.00 90.34     0.048 C 
HETATM   21  O3  8UH 21621     -32.321 125.919   3.308  1.00 90.34    -0.395 OA
ATOM     22  H3  8UH 21621     -31.602 126.305   2.822  1.00  0.00     0.210 HD
HETATM   23  C21 8UH 21621     -50.187 144.089  11.208  1.00 71.46    -0.018 C 
HETATM   24  C22 8UH 21621     -50.966 144.757  12.326  1.00 75.98     0.045 C 
HETATM   25  C23 8UH 21621     -50.189 145.228  13.536  1.00 84.37     0.123 C 
HETATM   26  C24 8UH 21621     -48.942 145.958  13.125  1.00 79.68     0.066 C 
HETATM   27  C25 8UH 21621     -48.123 145.084  12.225  1.00 81.86    -0.074 C 
HETATM   28  C26 8UH 21621     -48.684 144.331  11.266  1.00 72.92    -0.048 C 
HETATM   29  C27 8UH 21621     -47.833 143.740  10.206  1.00 76.42     0.009 C 
HETATM   30  C28 8UH 21621     -47.186 142.593  10.398  1.00 69.46     0.007 C 
HETATM   31  C29 8UH 21621     -46.338 141.986   9.365  1.00 90.34    -0.062 C 
HETATM   32  C30 8UH 21621     -45.853 140.781   9.657  1.00 90.34     0.007 C 
HETATM   33  C31 8UH 21621     -45.011 139.978   8.783  1.00 90.34     0.001 C 
HETATM   34  C32 8UH 21621     -44.072 139.254   9.380  1.00 90.34     0.007 C 
HETATM   35  C33 8UH 21621     -43.165 138.370   8.640  1.00 90.34    -0.062 C 
HETATM   36  C34 8UH 21621     -42.165 137.770   9.302  1.00 90.34     0.007 C 
HETATM   37  C35 8UH 21621     -41.248 136.845   8.646  1.00 90.34     0.001 C 
HETATM   38  C36 8UH 21621     -50.823 144.581   9.917  1.00 75.59     0.020 C 
HETATM   39  C37 8UH 21621     -50.432 142.590  11.277  1.00 74.59     0.020 C 
HETATM   40  C38 8UH 21621     -46.712 145.584  12.142  1.00 90.73     0.044 C 
HETATM   41  C39 8UH 21621     -46.051 142.662   8.060  1.00 90.34     0.048 C 
HETATM   42  C40 8UH 21621     -43.394 138.138   7.182  1.00 90.34     0.048 C 
HETATM   43  O23 8UH 21621     -51.006 146.141  14.268  1.00 94.57    -0.395 OA
ATOM     44  H23 8UH 21621     -51.795 145.679  14.528  1.00  0.00     0.210 HD
ENDROOT
TORSDOF 12
BEGIN_RES PHE A  61
REMARK  2 active torsions:
REMARK  status: ('A' for Active; 'I' for Inactive)
REMARK    1  A    between atoms: CA   and  CB  
REMARK    2  A    between atoms: CB   and  CG  
ROOT
ATOM      1  CA  PHE A  61     -36.237 128.293  12.768  1.00 39.40     0.164 C 
ENDROOT
BRANCH   1   2
ATOM      2  CB  PHE A  61     -36.813 128.951  11.509  1.00 39.41     0.058 C 
BRANCH   2   3
ATOM      3  CG  PHE A  61     -37.031 128.003  10.354  1.00 39.01    -0.020 A 
ATOM      4  CD2 PHE A  61     -36.275 126.849  10.228  1.00 40.32    -0.004 A 
ATOM      5  CE2 PHE A  61     -36.475 125.979   9.163  1.00 40.20    -0.000 A 
ATOM      6  CZ  PHE A  61     -37.435 126.252   8.215  1.00 40.34    -0.000 A 
ATOM      7  CE1 PHE A  61     -38.196 127.394   8.327  1.00 41.51    -0.000 A 
ATOM      8  CD1 PHE A  61     -37.992 128.267   9.388  1.00 39.94    -0.004 A 
ENDBRANCH   2   3
ENDBRANCH   1   2
END_RES PHE A  61
BEGIN_RES VAL A 134
REMARK  1 active torsions:
REMARK  status: ('A' for Active; 'I' for Inactive)
REMARK    3  A    between atoms: CA   and  CB  
ROOT
ATOM      9  CA  VAL A 134     -29.766 132.051   9.815  1.00 40.75     0.159 C 
ENDROOT
BRANCH   9  10
ATOM     10  CB  VAL A 134     -30.864 132.765   9.009  1.00 40.76     0.029 C 
ATOM     11  CG1 VAL A 134     -31.211 131.975   7.755  1.00 41.76     0.002 C 
ATOM     12  CG2 VAL A 134     -32.106 133.015   9.851  1.00 40.56     0.002 C 
ENDBRANCH   9  10
END_RES VAL A 134
BEGIN_RES TYR A 338
REMARK  3 active torsions:
REMARK  status: ('A' for Active; 'I' for Inactive)
REMARK    4  A    between atoms: CA   and  CB  
REMARK    5  A    between atoms: CB   and  CG  
REMARK    6  A    between atoms: CZ   and  OH  
ROOT
ATOM     13  CA  TYR A 338     -41.631 124.950   6.058  1.00 38.23     0.164 C 
ENDROOT
BRANCH  13  14
ATOM     14  CB  TYR A 338     -41.621 126.456   6.339  1.00 39.15     0.058 C 
BRANCH  14  15
ATOM     15  CG  TYR A 338     -40.423 127.213   5.814  1.00 39.03    -0.020 A 
ATOM     16  CD2 TYR A 338     -40.248 128.551   6.126  1.00 40.65    -0.002 A 
ATOM     17  CE2 TYR A 338     -39.170 129.280   5.649  1.00 40.91     0.024 A 
ATOM     18  CZ  TYR A 338     -38.234 128.670   4.836  1.00 42.33     0.089 A 
ATOM     19  CE1 TYR A 338     -38.385 127.332   4.513  1.00 40.63     0.024 A 
ATOM     20  CD1 TYR A 338     -39.477 126.624   4.990  1.00 39.27    -0.002 A 
BRANCH  18  21
ATOM     21  OH  TYR A 338     -37.165 129.378   4.363  1.00 43.36    -0.359 OA
ATOM     22  HH  TYR A 338     -36.279 129.066   4.509  1.00  0.00     0.217 HD
ENDBRANCH  18  21
ENDBRANCH  14  15
ENDBRANCH  13  14
END_RES TYR A 338
ENDMDL
