MODEL 1
REMARK VINA RESULT:   -10.534      0.000      0.000
REMARK INTER + INTRA:         -13.480
REMARK INTER:                 -10.534
REMARK INTRA:                  -2.945
REMARK UNBOUND:                -2.945
REMARK  0 active torsions:
REMARK  status: ('A' for Active; 'I' for Inactive)
REMARK       I    between atoms: C3_3  and  O3_21 
REMARK       I    between atoms: C6_6  and  C7_7 
REMARK       I    between atoms: C8_8  and  C9_9 
REMARK       I    between atoms: C10_10  and  C11_11 
REMARK       I    between atoms: C12_12  and  C13_13 
REMARK       I    between atoms: C14_14  and  C15_15 
REMARK       I    between atoms: C23_25  and  O23_43 
REMARK       I    between atoms: C26_28  and  C27_29 
REMARK       I    between atoms: C28_30  and  C29_31 
REMARK       I    between atoms: C30_32  and  C31_33 
REMARK       I    between atoms: C32_34  and  C33_35 
REMARK       I    between atoms: C34_36  and  C35_37 
ROOT
HETATM    1  C1  8UH G1621     -49.058 144.581  11.887  1.00 57.09    -0.018 C 
HETATM    2  C2  8UH G1621     -49.654 145.000  13.224  1.00 57.09     0.045 C 
HETATM    3  C3  8UH G1621     -48.891 146.033  14.034  1.00 57.09     0.123 C 
HETATM    4  C4  8UH G1621     -48.259 147.062  13.124  1.00 57.09     0.066 C 
HETATM    5  C5  8UH G1621     -47.351 146.356  12.160  1.00 57.09    -0.074 C 
HETATM    6  C6  8UH G1621     -47.778 145.283  11.486  1.00 57.09    -0.048 C 
HETATM    7  C7  8UH G1621     -47.031 144.753  10.313  1.00 57.09     0.009 C 
HETATM    8  C8  8UH G1621     -45.962 143.962  10.454  1.00 57.09     0.007 C 
HETATM    9  C9  8UH G1621     -45.202 143.397   9.328  1.00 57.09    -0.062 C 
HETATM   10  C10 8UH G1621     -44.489 142.303   9.604  1.00 57.09     0.007 C 
HETATM   11  C11 8UH G1621     -43.675 141.532   8.673  1.00 57.09     0.001 C 
HETATM   12  C12 8UH G1621     -43.108 140.452   9.199  1.00 57.09     0.007 C 
HETATM   13  C13 8UH G1621     -42.281 139.499   8.447  1.00 57.09    -0.062 C 
HETATM   14  C14 8UH G1621     -41.689 138.497   9.112  1.00 57.09     0.007 C 
HETATM   15  C15 8UH G1621     -40.895 137.488   8.422  1.00 57.09     0.001 C 
HETATM   16  C16 8UH G1621     -50.139 144.783  10.836  1.00 57.09     0.020 C 
HETATM   17  C17 8UH G1621     -48.731 143.107  11.984  1.00 57.09     0.020 C 
HETATM   18  C18 8UH G1621     -46.285 147.269  11.630  1.00 57.09     0.044 C 
HETATM   19  C19 8UH G1621     -45.228 144.014   7.962  1.00 57.09     0.048 C 
HETATM   20  C20 8UH G1621     -42.152 139.627   6.962  1.00 57.09     0.048 C 
HETATM   21  O3  8UH G1621     -49.827 146.689  14.892  1.00 57.09    -0.395 OA
ATOM     22  H3  8UH G1621     -49.350 147.335  15.398  1.00  0.00     0.210 HD
HETATM   23  C21 8UH G1621     -34.389 126.784   6.379  1.00 62.55    -0.018 C 
HETATM   24  C22 8UH G1621     -34.027 126.107   5.059  1.00 62.55     0.045 C 
HETATM   25  C23 8UH G1621     -33.050 126.820   4.129  1.00 62.55     0.123 C 
HETATM   26  C24 8UH G1621     -32.019 127.608   4.913  1.00 62.55     0.066 C 
HETATM   27  C25 8UH G1621     -32.775 128.587   5.769  1.00 62.55    -0.074 C 
HETATM   28  C26 8UH G1621     -33.790 128.173   6.535  1.00 62.55    -0.048 C 
HETATM   29  C27 8UH G1621     -34.330 129.076   7.576  1.00 62.55     0.009 C 
HETATM   30  C28 8UH G1621     -35.327 129.920   7.315  1.00 62.55     0.007 C 
HETATM   31  C29 8UH G1621     -35.868 130.829   8.339  1.00 57.09    -0.062 C 
HETATM   32  C30 8UH G1621     -36.984 131.483   8.012  1.00 57.09     0.007 C 
HETATM   33  C31 8UH G1621     -37.657 132.423   8.894  1.00 57.09     0.001 C 
HETATM   34  C32 8UH G1621     -38.244 133.456   8.304  1.00 57.09     0.007 C 
HETATM   35  C33 8UH G1621     -38.962 134.482   9.059  1.00 57.09    -0.062 C 
HETATM   36  C34 8UH G1621     -39.650 135.428   8.414  1.00 57.09     0.007 C 
HETATM   37  C35 8UH G1621     -40.404 136.464   9.108  1.00 57.09     0.001 C 
HETATM   38  C36 8UH G1621     -33.952 125.850   7.509  1.00 62.55     0.020 C 
HETATM   39  C37 8UH G1621     -35.903 126.931   6.438  1.00 62.55     0.020 C 
HETATM   40  C38 8UH G1621     -31.983 129.818   6.105  1.00 62.55     0.044 C 
HETATM   41  C39 8UH G1621     -35.197 131.020   9.663  1.00 57.09     0.048 C 
HETATM   42  C40 8UH G1621     -38.882 134.443  10.541  1.00 57.09     0.048 C 
HETATM   43  O23 8UH G1621     -32.383 125.850   3.314  1.00 62.55    -0.395 OA
ATOM     44  H23 8UH G1621     -31.774 126.294   2.735  1.00  0.00     0.210 HD
ENDROOT
TORSDOF 12
BEGIN_RES PHE A  61
REMARK  2 active torsions:
REMARK  status: ('A' for Active; 'I' for Inactive)
REMARK    1  A    between atoms: CA   and  CB  
REMARK    2  A    between atoms: CB   and  CG  
ROOT
ATOM      1  CA  PHE A  61     -36.237 128.293  12.768  1.00 39.40     0.164 C 
ENDROOT
BRANCH   1   2
ATOM      2  CB  PHE A  61     -36.813 128.951  11.509  1.00 39.41     0.058 C 
BRANCH   2   3
ATOM      3  CG  PHE A  61     -37.068 127.996  10.367  1.00 39.01    -0.020 A 
ATOM      4  CD2 PHE A  61     -36.326 126.834  10.232  1.00 40.32    -0.004 A 
ATOM      5  CE2 PHE A  61     -36.560 125.958   9.179  1.00 40.20    -0.000 A 
ATOM      6  CZ  PHE A  61     -37.540 126.233   8.253  1.00 40.34    -0.000 A 
ATOM      7  CE1 PHE A  61     -38.288 127.383   8.375  1.00 41.51    -0.000 A 
ATOM      8  CD1 PHE A  61     -38.050 128.262   9.423  1.00 39.94    -0.004 A 
ENDBRANCH   2   3
ENDBRANCH   1   2
END_RES PHE A  61
BEGIN_RES VAL A 134
REMARK  1 active torsions:
REMARK  status: ('A' for Active; 'I' for Inactive)
REMARK    3  A    between atoms: CA   and  CB  
ROOT
ATOM      9  CA  VAL A 134     -29.766 132.051   9.815  1.00 40.75     0.159 C 
ENDROOT
BRANCH   9  10
ATOM     10  CB  VAL A 134     -30.864 132.765   9.009  1.00 40.76     0.029 C 
ATOM     11  CG1 VAL A 134     -31.218 131.970   7.761  1.00 41.76     0.002 C 
ATOM     12  CG2 VAL A 134     -32.102 133.024   9.854  1.00 40.56     0.002 C 
ENDBRANCH   9  10
END_RES VAL A 134
BEGIN_RES TYR A 338
REMARK  3 active torsions:
REMARK  status: ('A' for Active; 'I' for Inactive)
REMARK    4  A    between atoms: CA   and  CB  
REMARK    5  A    between atoms: CB   and  CG  
REMARK    6  A    between atoms: CZ   and  OH  
ROOT
ATOM     13  CA  TYR A 338     -41.631 124.950   6.058  1.00 38.23     0.164 C 
ENDROOT
BRANCH  13  14
ATOM     14  CB  TYR A 338     -41.621 126.456   6.339  1.00 39.15     0.058 C 
BRANCH  14  15
ATOM     15  CG  TYR A 338     -40.411 127.209   5.836  1.00 39.03    -0.020 A 
ATOM     16  CD2 TYR A 338     -40.235 128.545   6.154  1.00 40.65    -0.002 A 
ATOM     17  CE2 TYR A 338     -39.146 129.271   5.697  1.00 40.91     0.024 A 
ATOM     18  CZ  TYR A 338     -38.199 128.658   4.899  1.00 42.33     0.089 A 
ATOM     19  CE1 TYR A 338     -38.350 127.322   4.572  1.00 40.63     0.024 A 
ATOM     20  CD1 TYR A 338     -39.453 126.617   5.028  1.00 39.27    -0.002 A 
BRANCH  18  21
ATOM     21  OH  TYR A 338     -37.118 129.362   4.447  1.00 43.36    -0.359 OA
ATOM     22  HH  TYR A 338     -36.954 130.244   4.760  1.00  0.00     0.217 HD
ENDBRANCH  18  21
ENDBRANCH  14  15
ENDBRANCH  13  14
END_RES TYR A 338
ENDMDL
MODEL 2
REMARK VINA RESULT:    -9.163      0.871     16.714
REMARK INTER + INTRA:         -12.108
REMARK INTER:                  -9.018
REMARK INTRA:                  -3.090
REMARK UNBOUND:                -2.945
REMARK  0 active torsions:
REMARK  status: ('A' for Active; 'I' for Inactive)
REMARK       I    between atoms: C3_3  and  O3_21 
REMARK       I    between atoms: C6_6  and  C7_7 
REMARK       I    between atoms: C8_8  and  C9_9 
REMARK       I    between atoms: C10_10  and  C11_11 
REMARK       I    between atoms: C12_12  and  C13_13 
REMARK       I    between atoms: C14_14  and  C15_15 
REMARK       I    between atoms: C23_25  and  O23_43 
REMARK       I    between atoms: C26_28  and  C27_29 
REMARK       I    between atoms: C28_30  and  C29_31 
REMARK       I    between atoms: C30_32  and  C31_33 
REMARK       I    between atoms: C32_34  and  C33_35 
REMARK       I    between atoms: C34_36  and  C35_37 
ROOT
HETATM    1  C1  8UH G1621     -34.535 126.962   6.136  1.00 57.09    -0.018 C 
HETATM    2  C2  8UH G1621     -34.115 126.320   4.820  1.00 57.09     0.045 C 
HETATM    3  C3  8UH G1621     -32.907 126.907   4.113  1.00 57.09     0.123 C 
HETATM    4  C4  8UH G1621     -31.863 127.345   5.116  1.00 57.09     0.066 C 
HETATM    5  C5  8UH G1621     -32.482 128.347   6.045  1.00 57.09    -0.074 C 
HETATM    6  C6  8UH G1621     -33.663 128.100   6.623  1.00 57.09    -0.048 C 
HETATM    7  C7  8UH G1621     -34.152 128.911   7.770  1.00 57.09     0.009 C 
HETATM    8  C8  8UH G1621     -34.739 130.100   7.596  1.00 57.09     0.007 C 
HETATM    9  C9  8UH G1621     -35.257 130.931   8.694  1.00 57.09    -0.062 C 
HETATM   10  C10 8UH G1621     -36.190 131.823   8.353  1.00 57.09     0.007 C 
HETATM   11  C11 8UH G1621     -36.886 132.744   9.241  1.00 57.09     0.001 C 
HETATM   12  C12 8UH G1621     -37.809 133.491   8.648  1.00 57.09     0.007 C 
HETATM   13  C13 8UH G1621     -38.668 134.459   9.345  1.00 57.09    -0.062 C 
HETATM   14  C14 8UH G1621     -39.500 135.220   8.620  1.00 57.09     0.007 C 
HETATM   15  C15 8UH G1621     -40.413 136.165   9.250  1.00 57.09     0.001 C 
HETATM   16  C16 8UH G1621     -34.602 125.850   7.171  1.00 57.09     0.020 C 
HETATM   17  C17 8UH G1621     -35.920 127.535   5.934  1.00 57.09     0.020 C 
HETATM   18  C18 8UH G1621     -31.449 129.237   6.672  1.00 57.09     0.044 C 
HETATM   19  C19 8UH G1621     -34.765 130.784  10.102  1.00 57.09     0.048 C 
HETATM   20  C20 8UH G1621     -38.641 134.546  10.839  1.00 57.09     0.048 C 
HETATM   21  O3  8UH G1621     -32.350 125.884   3.285  1.00 57.09    -0.395 OA
ATOM     22  H3  8UH G1621     -31.594 126.251   2.842  1.00  0.00     0.210 HD
HETATM   23  C21 8UH G1621     -50.004 144.363  10.625  1.00 62.55    -0.018 C 
HETATM   24  C22 8UH G1621     -50.714 144.819  11.897  1.00 62.55     0.045 C 
HETATM   25  C23 8UH G1621     -49.924 145.649  12.904  1.00 62.55     0.123 C 
HETATM   26  C24 8UH G1621     -48.914 146.542  12.210  1.00 62.55     0.066 C 
HETATM   27  C25 8UH G1621     -48.010 145.641  11.414  1.00 62.55    -0.074 C 
HETATM   28  C26 8UH G1621     -48.525 144.720  10.592  1.00 62.55    -0.048 C 
HETATM   29  C27 8UH G1621     -47.644 144.049   9.611  1.00 62.55     0.009 C 
HETATM   30  C28 8UH G1621     -47.004 142.920   9.910  1.00 62.55     0.007 C 
HETATM   31  C29 8UH G1621     -46.119 142.246   8.946  1.00 57.09    -0.062 C 
HETATM   32  C30 8UH G1621     -45.690 141.031   9.294  1.00 57.09     0.007 C 
HETATM   33  C31 8UH G1621     -44.808 140.219   8.471  1.00 57.09     0.001 C 
HETATM   34  C32 8UH G1621     -43.939 139.459   9.124  1.00 57.09     0.007 C 
HETATM   35  C33 8UH G1621     -42.991 138.586   8.432  1.00 57.09    -0.062 C 
HETATM   36  C34 8UH G1621     -42.229 137.741   9.131  1.00 57.09     0.007 C 
HETATM   37  C35 8UH G1621     -41.282 136.831   8.500  1.00 57.09     0.001 C 
HETATM   38  C36 8UH G1621     -50.756 144.966   9.437  1.00 62.55     0.020 C 
HETATM   39  C37 8UH G1621     -50.108 142.847  10.539  1.00 62.55     0.020 C 
HETATM   40  C38 8UH G1621     -46.640 146.218  11.195  1.00 62.55     0.044 C 
HETATM   41  C39 8UH G1621     -45.711 142.891   7.659  1.00 57.09     0.048 C 
HETATM   42  C40 8UH G1621     -42.896 138.690   6.954  1.00 57.09     0.048 C 
HETATM   43  O23 8UH G1621     -50.831 146.461  13.659  1.00 62.55    -0.395 OA
ATOM     44  H23 8UH G1621     -50.339 146.979  14.286  1.00  0.00     0.210 HD
ENDROOT
TORSDOF 12
BEGIN_RES PHE A  61
REMARK  2 active torsions:
REMARK  status: ('A' for Active; 'I' for Inactive)
REMARK    1  A    between atoms: CA   and  CB  
REMARK    2  A    between atoms: CB   and  CG  
ROOT
ATOM      1  CA  PHE A  61     -36.237 128.293  12.768  1.00 39.40     0.164 C 
ENDROOT
BRANCH   1   2
ATOM      2  CB  PHE A  61     -36.813 128.951  11.509  1.00 39.41     0.058 C 
BRANCH   2   3
ATOM      3  CG  PHE A  61     -37.029 128.004  10.353  1.00 39.01    -0.020 A 
ATOM      4  CD2 PHE A  61     -36.277 126.846  10.232  1.00 40.32    -0.004 A 
ATOM      5  CE2 PHE A  61     -36.474 125.977   9.166  1.00 40.20    -0.000 A 
ATOM      6  CZ  PHE A  61     -37.427 126.254   8.212  1.00 40.34    -0.000 A 
ATOM      7  CE1 PHE A  61     -38.184 127.399   8.319  1.00 41.51    -0.000 A 
ATOM      8  CD1 PHE A  61     -37.983 128.272   9.381  1.00 39.94    -0.004 A 
ENDBRANCH   2   3
ENDBRANCH   1   2
END_RES PHE A  61
BEGIN_RES VAL A 134
REMARK  1 active torsions:
REMARK  status: ('A' for Active; 'I' for Inactive)
REMARK    3  A    between atoms: CA   and  CB  
ROOT
ATOM      9  CA  VAL A 134     -29.766 132.051   9.815  1.00 40.75     0.159 C 
ENDROOT
BRANCH   9  10
ATOM     10  CB  VAL A 134     -30.864 132.765   9.009  1.00 40.76     0.029 C 
ATOM     11  CG1 VAL A 134     -31.181 131.997   7.734  1.00 41.76     0.002 C 
ATOM     12  CG2 VAL A 134     -32.121 132.977   9.839  1.00 40.56     0.002 C 
ENDBRANCH   9  10
END_RES VAL A 134
BEGIN_RES TYR A 338
REMARK  3 active torsions:
REMARK  status: ('A' for Active; 'I' for Inactive)
REMARK    4  A    between atoms: CA   and  CB  
REMARK    5  A    between atoms: CB   and  CG  
REMARK    6  A    between atoms: CZ   and  OH  
ROOT
ATOM     13  CA  TYR A 338     -41.631 124.950   6.058  1.00 38.23     0.164 C 
ENDROOT
BRANCH  13  14
ATOM     14  CB  TYR A 338     -41.621 126.456   6.339  1.00 39.15     0.058 C 
BRANCH  14  15
ATOM     15  CG  TYR A 338     -40.429 127.215   5.803  1.00 39.03    -0.020 A 
ATOM     16  CD2 TYR A 338     -40.246 128.549   6.126  1.00 40.65    -0.002 A 
ATOM     17  CE2 TYR A 338     -39.173 129.281   5.640  1.00 40.91     0.024 A 
ATOM     18  CZ  TYR A 338     -38.251 128.675   4.807  1.00 42.33     0.089 A 
ATOM     19  CE1 TYR A 338     -38.410 127.342   4.475  1.00 40.63     0.024 A 
ATOM     20  CD1 TYR A 338     -39.497 126.631   4.960  1.00 39.27    -0.002 A 
BRANCH  18  21
ATOM     21  OH  TYR A 338     -37.186 129.385   4.326  1.00 43.36    -0.359 OA
ATOM     22  HH  TYR A 338     -36.412 129.513   4.861  1.00  0.00     0.217 HD
ENDBRANCH  18  21
ENDBRANCH  14  15
ENDBRANCH  13  14
END_RES TYR A 338
ENDMDL
MODEL 3
REMARK VINA RESULT:    -8.368      0.706     16.736
REMARK INTER + INTRA:         -11.313
REMARK INTER:                  -8.950
REMARK INTRA:                  -2.363
REMARK UNBOUND:                -2.945
REMARK  0 active torsions:
REMARK  status: ('A' for Active; 'I' for Inactive)
REMARK       I    between atoms: C3_3  and  O3_21 
REMARK       I    between atoms: C6_6  and  C7_7 
REMARK       I    between atoms: C8_8  and  C9_9 
REMARK       I    between atoms: C10_10  and  C11_11 
REMARK       I    between atoms: C12_12  and  C13_13 
REMARK       I    between atoms: C14_14  and  C15_15 
REMARK       I    between atoms: C23_25  and  O23_43 
REMARK       I    between atoms: C26_28  and  C27_29 
REMARK       I    between atoms: C28_30  and  C29_31 
REMARK       I    between atoms: C30_32  and  C31_33 
REMARK       I    between atoms: C32_34  and  C33_35 
REMARK       I    between atoms: C34_36  and  C35_37 
ROOT
HETATM    1  C1  8UH G1621     -34.630 127.021   6.069  1.00 57.09    -0.018 C 
HETATM    2  C2  8UH G1621     -34.236 126.437   4.719  1.00 57.09     0.045 C 
HETATM    3  C3  8UH G1621     -32.972 126.971   4.071  1.00 57.09     0.123 C 
HETATM    4  C4  8UH G1621     -31.917 127.257   5.115  1.00 57.09     0.066 C 
HETATM    5  C5  8UH G1621     -32.473 128.242   6.101  1.00 57.09    -0.074 C 
HETATM    6  C6  8UH G1621     -33.681 128.052   6.644  1.00 57.09    -0.048 C 
HETATM    7  C7  8UH G1621     -34.128 128.822   7.836  1.00 57.09     0.009 C 
HETATM    8  C8  8UH G1621     -34.615 130.063   7.734  1.00 57.09     0.007 C 
HETATM    9  C9  8UH G1621     -35.088 130.858   8.878  1.00 57.09    -0.062 C 
HETATM   10  C10 8UH G1621     -35.941 131.842   8.584  1.00 57.09     0.007 C 
HETATM   11  C11 8UH G1621     -36.580 132.755   9.523  1.00 57.09     0.001 C 
HETATM   12  C12 8UH G1621     -37.431 133.611   8.968  1.00 57.09     0.007 C 
HETATM   13  C13 8UH G1621     -38.224 134.595   9.716  1.00 57.09    -0.062 C 
HETATM   14  C14 8UH G1621     -38.979 135.467   9.032  1.00 57.09     0.007 C 
HETATM   15  C15 8UH G1621     -39.828 136.437   9.712  1.00 57.09     0.001 C 
HETATM   16  C16 8UH G1621     -34.804 125.853   7.026  1.00 57.09     0.020 C 
HETATM   17  C17 8UH G1621     -35.961 127.715   5.886  1.00 57.09     0.020 C 
HETATM   18  C18 8UH G1621     -31.386 129.004   6.801  1.00 57.09     0.044 C 
HETATM   19  C19 8UH G1621     -34.637 130.580  10.280  1.00 57.09     0.048 C 
HETATM   20  C20 8UH G1621     -38.219 134.582  11.213  1.00 57.09     0.048 C 
HETATM   21  O3  8UH G1621     -32.481 125.964   3.183  1.00 57.09    -0.395 OA
ATOM     22  H3  8UH G1621     -31.690 126.298   2.777  1.00  0.00     0.210 HD
HETATM   23  C21 8UH G1621     -48.771 145.264  11.499  1.00 62.55    -0.018 C 
HETATM   24  C22 8UH G1621     -49.469 145.689  12.789  1.00 62.55     0.045 C 
HETATM   25  C23 8UH G1621     -48.636 146.386  13.861  1.00 62.55     0.123 C 
HETATM   26  C24 8UH G1621     -47.546 147.239  13.243  1.00 62.55     0.066 C 
HETATM   27  C25 8UH G1621     -46.699 146.324  12.401  1.00 62.55    -0.074 C 
HETATM   28  C26 8UH G1621     -47.270 145.503  11.512  1.00 62.55    -0.048 C 
HETATM   29  C27 8UH G1621     -46.425 144.830  10.500  1.00 62.55     0.009 C 
HETATM   30  C28 8UH G1621     -45.881 143.637  10.732  1.00 62.55     0.007 C 
HETATM   31  C29 8UH G1621     -45.033 142.959   9.737  1.00 57.09    -0.062 C 
HETATM   32  C30 8UH G1621     -44.708 141.693  10.009  1.00 57.09     0.007 C 
HETATM   33  C31 8UH G1621     -43.876 140.871   9.145  1.00 57.09     0.001 C 
HETATM   34  C32 8UH G1621     -43.082 140.002   9.757  1.00 57.09     0.007 C 
HETATM   35  C33 8UH G1621     -42.192 139.104   9.022  1.00 57.09    -0.062 C 
HETATM   36  C34 8UH G1621     -41.513 138.157   9.673  1.00 57.09     0.007 C 
HETATM   37  C35 8UH G1621     -40.627 137.218   8.996  1.00 57.09     0.001 C 
HETATM   38  C36 8UH G1621     -49.451 146.002  10.344  1.00 62.55     0.020 C 
HETATM   39  C37 8UH G1621     -48.993 143.770  11.310  1.00 62.55     0.020 C 
HETATM   40  C38 8UH G1621     -45.285 146.803  12.240  1.00 62.55     0.044 C 
HETATM   41  C39 8UH G1621     -44.551 143.653   8.503  1.00 57.09     0.048 C 
HETATM   42  C40 8UH G1621     -42.060 139.298   7.556  1.00 57.09     0.048 C 
HETATM   43  O23 8UH G1621     -49.491 147.216  14.655  1.00 62.55    -0.395 OA
ATOM     44  H23 8UH G1621     -48.972 147.650  15.323  1.00  0.00     0.210 HD
ENDROOT
TORSDOF 12
BEGIN_RES PHE A  61
REMARK  2 active torsions:
REMARK  status: ('A' for Active; 'I' for Inactive)
REMARK    1  A    between atoms: CA   and  CB  
REMARK    2  A    between atoms: CB   and  CG  
ROOT
ATOM      1  CA  PHE A  61     -36.237 128.293  12.768  1.00 39.40     0.164 C 
ENDROOT
BRANCH   1   2
ATOM      2  CB  PHE A  61     -36.813 128.951  11.509  1.00 39.41     0.058 C 
BRANCH   2   3
ATOM      3  CG  PHE A  61     -37.056 127.999  10.363  1.00 39.01    -0.020 A 
ATOM      4  CD2 PHE A  61     -38.025 128.266   9.409  1.00 40.32    -0.004 A 
ATOM      5  CE2 PHE A  61     -38.250 127.387   8.356  1.00 40.20    -0.000 A 
ATOM      6  CZ  PHE A  61     -37.506 126.235   8.244  1.00 40.34    -0.000 A 
ATOM      7  CE1 PHE A  61     -36.538 125.956   9.182  1.00 41.51    -0.000 A 
ATOM      8  CD1 PHE A  61     -36.317 126.831  10.238  1.00 39.94    -0.004 A 
ENDBRANCH   2   3
ENDBRANCH   1   2
END_RES PHE A  61
BEGIN_RES VAL A 134
REMARK  1 active torsions:
REMARK  status: ('A' for Active; 'I' for Inactive)
REMARK    3  A    between atoms: CA   and  CB  
ROOT
ATOM      9  CA  VAL A 134     -29.766 132.051   9.815  1.00 40.75     0.159 C 
ENDROOT
BRANCH   9  10
ATOM     10  CB  VAL A 134     -30.864 132.765   9.009  1.00 40.76     0.029 C 
ATOM     11  CG1 VAL A 134     -31.035 132.118   7.642  1.00 41.76     0.002 C 
ATOM     12  CG2 VAL A 134     -32.185 132.793   9.763  1.00 40.56     0.002 C 
ENDBRANCH   9  10
END_RES VAL A 134
BEGIN_RES TYR A 338
REMARK  3 active torsions:
REMARK  status: ('A' for Active; 'I' for Inactive)
REMARK    4  A    between atoms: CA   and  CB  
REMARK    5  A    between atoms: CB   and  CG  
REMARK    6  A    between atoms: CZ   and  OH  
ROOT
ATOM     13  CA  TYR A 338     -41.631 124.950   6.058  1.00 38.23     0.164 C 
ENDROOT
BRANCH  13  14
ATOM     14  CB  TYR A 338     -41.621 126.456   6.339  1.00 39.15     0.058 C 
BRANCH  14  15
ATOM     15  CG  TYR A 338     -40.441 127.219   5.782  1.00 39.03    -0.020 A 
ATOM     16  CD2 TYR A 338     -40.250 128.551   6.111  1.00 40.65    -0.002 A 
ATOM     17  CE2 TYR A 338     -39.188 129.286   5.607  1.00 40.91     0.024 A 
ATOM     18  CZ  TYR A 338     -38.286 128.687   4.748  1.00 42.33     0.089 A 
ATOM     19  CE1 TYR A 338     -38.453 127.356   4.409  1.00 40.63     0.024 A 
ATOM     20  CD1 TYR A 338     -39.529 126.642   4.913  1.00 39.27    -0.002 A 
BRANCH  18  21
ATOM     21  OH  TYR A 338     -37.232 129.401   4.248  1.00 43.36    -0.359 OA
ATOM     22  HH  TYR A 338     -36.368 129.316   4.634  1.00  0.00     0.217 HD
ENDBRANCH  18  21
ENDBRANCH  14  15
ENDBRANCH  13  14
END_RES TYR A 338
ENDMDL
