MODEL 1
REMARK VINA RESULT:   -11.571      0.000      0.000
REMARK INTER + INTRA:         -13.674
REMARK INTER:                 -11.571
REMARK INTRA:                  -2.103
REMARK UNBOUND:                -2.103
REMARK  0 active torsions:
REMARK  status: ('A' for Active; 'I' for Inactive)
REMARK       I    between atoms: C3_3  and  O3_21 
REMARK       I    between atoms: C6_6  and  C7_7 
REMARK       I    between atoms: C8_8  and  C9_9 
REMARK       I    between atoms: C10_10  and  C11_11 
REMARK       I    between atoms: C12_12  and  C13_13 
REMARK       I    between atoms: C14_14  and  C15_15 
REMARK       I    between atoms: C23_25  and  O23_43 
REMARK       I    between atoms: C26_28  and  C27_29 
REMARK       I    between atoms: C28_30  and  C29_31 
REMARK       I    between atoms: C30_32  and  C31_33 
REMARK       I    between atoms: C32_34  and  C33_35 
REMARK       I    between atoms: C34_36  and  C35_37 
ROOT
HETATM    1  C1  8UH Z1621     -47.798 145.981  12.390  1.00 27.99    -0.018 C 
HETATM    2  C2  8UH Z1621     -48.319 146.099  13.828  1.00 27.99     0.045 C 
HETATM    3  C3  8UH Z1621     -47.298 146.570  14.855  1.00 27.99     0.123 C 
HETATM    4  C4  8UH Z1621     -46.474 147.685  14.242  1.00 27.99     0.066 C 
HETATM    5  C5  8UH Z1621     -45.686 147.041  13.139  1.00 27.99    -0.074 C 
HETATM    6  C6  8UH Z1621     -46.335 146.357  12.190  1.00 27.99    -0.048 C 
HETATM    7  C7  8UH Z1621     -45.632 145.745  11.040  1.00 27.99     0.009 C 
HETATM    8  C8  8UH Z1621     -44.423 145.213  11.259  1.00 27.99     0.007 C 
HETATM    9  C9  8UH Z1621     -43.805 144.376  10.201  1.00 27.99    -0.062 C 
HETATM   10  C10 8UH Z1621     -42.929 143.428  10.599  1.00 27.99     0.007 C 
HETATM   11  C11 8UH Z1621     -42.366 142.424   9.693  1.00 27.99     0.001 C 
HETATM   12  C12 8UH Z1621     -41.709 141.375  10.189  1.00 27.99     0.007 C 
HETATM   13  C13 8UH Z1621     -41.204 140.294   9.308  1.00 27.99    -0.062 C 
HETATM   14  C14 8UH Z1621     -40.688 139.196   9.900  1.00 27.99     0.007 C 
HETATM   15  C15 8UH Z1621     -40.168 138.033   9.175  1.00 27.99     0.001 C 
HETATM   16  C16 8UH Z1621     -48.547 147.010  11.541  1.00 27.99     0.020 C 
HETATM   17  C17 8UH Z1621     -48.097 144.572  11.883  1.00 27.99     0.020 C 
HETATM   18  C18 8UH Z1621     -44.421 147.809  12.870  1.00 27.99     0.044 C 
HETATM   19  C19 8UH Z1621     -44.246 144.544   8.766  1.00 27.99     0.048 C 
HETATM   20  C20 8UH Z1621     -41.321 140.461   7.814  1.00 27.99     0.048 C 
HETATM   21  O3  8UH Z1621     -47.962 147.033  16.038  1.00 27.99    -0.395 OA
ATOM     22  H3  8UH Z1621     -48.478 146.334  16.422  1.00  0.00     0.210 HD
HETATM   23  C21 8UH Z1621     -34.386 126.886   6.534  1.00 71.39    -0.018 C 
HETATM   24  C22 8UH Z1621     -34.183 126.280   5.151  1.00 71.39     0.045 C 
HETATM   25  C23 8UH Z1621     -33.248 126.997   4.185  1.00 71.39     0.123 C 
HETATM   26  C24 8UH Z1621     -32.163 127.753   4.920  1.00 71.39     0.066 C 
HETATM   27  C25 8UH Z1621     -32.849 128.692   5.867  1.00 71.39    -0.074 C 
HETATM   28  C26 8UH Z1621     -33.788 128.264   6.709  1.00 71.39    -0.048 C 
HETATM   29  C27 8UH Z1621     -34.279 129.101   7.837  1.00 71.39     0.009 C 
HETATM   30  C28 8UH Z1621     -35.221 130.030   7.658  1.00 71.39     0.007 C 
HETATM   31  C29 8UH Z1621     -35.767 130.864   8.729  1.00 27.99    -0.062 C 
HETATM   32  C30 8UH Z1621     -36.675 131.797   8.382  1.00 27.99     0.007 C 
HETATM   33  C31 8UH Z1621     -37.273 132.744   9.321  1.00 27.99     0.001 C 
HETATM   34  C32 8UH Z1621     -38.029 133.734   8.848  1.00 27.99     0.007 C 
HETATM   35  C33 8UH Z1621     -38.581 134.776   9.737  1.00 27.99    -0.062 C 
HETATM   36  C34 8UH Z1621     -39.152 135.845   9.141  1.00 27.99     0.007 C 
HETATM   37  C35 8UH Z1621     -39.690 137.000   9.863  1.00 27.99     0.001 C 
HETATM   38  C36 8UH Z1621     -33.830 125.913   7.567  1.00 71.39     0.020 C 
HETATM   39  C37 8UH Z1621     -35.875 127.013   6.774  1.00 71.39     0.020 C 
HETATM   40  C38 8UH Z1621     -32.009 129.889   6.147  1.00 71.39     0.044 C 
HETATM   41  C39 8UH Z1621     -35.290 130.616  10.137  1.00 27.99     0.048 C 
HETATM   42  C40 8UH Z1621     -38.426 134.627  11.227  1.00 27.99     0.048 C 
HETATM   43  O23 8UH Z1621     -32.614 126.028   3.344  1.00 71.39    -0.395 OA
ATOM     44  H23 8UH Z1621     -32.032 126.475   2.741  1.00  0.00     0.210 HD
ENDROOT
TORSDOF 12
BEGIN_RES PHE A  61
REMARK  2 active torsions:
REMARK  status: ('A' for Active; 'I' for Inactive)
REMARK    1  A    between atoms: CA   and  CB  
REMARK    2  A    between atoms: CB   and  CG  
ROOT
ATOM      1  CA  PHE A  61     -36.237 128.293  12.768  1.00 39.40     0.164 C 
ENDROOT
BRANCH   1   2
ATOM      2  CB  PHE A  61     -36.813 128.951  11.509  1.00 39.41     0.058 C 
BRANCH   2   3
ATOM      3  CG  PHE A  61     -37.109 127.990  10.382  1.00 39.01    -0.020 A 
ATOM      4  CD2 PHE A  61     -36.398 126.808  10.250  1.00 40.32    -0.004 A 
ATOM      5  CE2 PHE A  61     -36.669 125.926   9.211  1.00 40.20    -0.000 A 
ATOM      6  CZ  PHE A  61     -37.656 126.214   8.296  1.00 40.34    -0.000 A 
ATOM      7  CE1 PHE A  61     -38.373 127.384   8.415  1.00 41.51    -0.000 A 
ATOM      8  CD1 PHE A  61     -38.098 128.269   9.450  1.00 39.94    -0.004 A 
ENDBRANCH   2   3
ENDBRANCH   1   2
END_RES PHE A  61
BEGIN_RES VAL A 134
REMARK  1 active torsions:
REMARK  status: ('A' for Active; 'I' for Inactive)
REMARK    3  A    between atoms: CA   and  CB  
ROOT
ATOM      9  CA  VAL A 134     -29.766 132.051   9.815  1.00 40.75     0.159 C 
ENDROOT
BRANCH   9  10
ATOM     10  CB  VAL A 134     -30.864 132.765   9.009  1.00 40.76     0.029 C 
ATOM     11  CG1 VAL A 134     -30.857 132.300   7.560  1.00 41.76     0.002 C 
ATOM     12  CG2 VAL A 134     -32.237 132.567   9.633  1.00 40.56     0.002 C 
ENDBRANCH   9  10
END_RES VAL A 134
BEGIN_RES TYR A 338
REMARK  3 active torsions:
REMARK  status: ('A' for Active; 'I' for Inactive)
REMARK    4  A    between atoms: CA   and  CB  
REMARK    5  A    between atoms: CB   and  CG  
REMARK    6  A    between atoms: CZ   and  OH  
ROOT
ATOM     13  CA  TYR A 338     -41.631 124.950   6.058  1.00 38.23     0.164 C 
ENDROOT
BRANCH  13  14
ATOM     14  CB  TYR A 338     -41.621 126.456   6.339  1.00 39.15     0.058 C 
BRANCH  14  15
ATOM     15  CG  TYR A 338     -40.402 127.206   5.852  1.00 39.03    -0.020 A 
ATOM     16  CD2 TYR A 338     -40.221 128.538   6.183  1.00 40.65    -0.002 A 
ATOM     17  CE2 TYR A 338     -39.124 129.261   5.742  1.00 40.91     0.024 A 
ATOM     18  CZ  TYR A 338     -38.174 128.649   4.946  1.00 42.33     0.089 A 
ATOM     19  CE1 TYR A 338     -38.331 127.317   4.605  1.00 40.63     0.024 A 
ATOM     20  CD1 TYR A 338     -39.442 126.615   5.046  1.00 39.27    -0.002 A 
BRANCH  18  21
ATOM     21  OH  TYR A 338     -37.086 129.351   4.508  1.00 43.36    -0.359 OA
ATOM     22  HH  TYR A 338     -37.108 129.800   3.671  1.00  0.00     0.217 HD
ENDBRANCH  18  21
ENDBRANCH  14  15
ENDBRANCH  13  14
END_RES TYR A 338
ENDMDL
MODEL 2
REMARK VINA RESULT:    -9.895      1.617     16.690
REMARK INTER + INTRA:         -11.998
REMARK INTER:                  -9.568
REMARK INTRA:                  -2.429
REMARK UNBOUND:                -2.103
REMARK  0 active torsions:
REMARK  status: ('A' for Active; 'I' for Inactive)
REMARK       I    between atoms: C3_3  and  O3_21 
REMARK       I    between atoms: C6_6  and  C7_7 
REMARK       I    between atoms: C8_8  and  C9_9 
REMARK       I    between atoms: C10_10  and  C11_11 
REMARK       I    between atoms: C12_12  and  C13_13 
REMARK       I    between atoms: C14_14  and  C15_15 
REMARK       I    between atoms: C23_25  and  O23_43 
REMARK       I    between atoms: C26_28  and  C27_29 
REMARK       I    between atoms: C28_30  and  C29_31 
REMARK       I    between atoms: C30_32  and  C31_33 
REMARK       I    between atoms: C32_34  and  C33_35 
REMARK       I    between atoms: C34_36  and  C35_37 
ROOT
HETATM    1  C1  8UH Z1621     -34.224 127.143   6.736  1.00 27.99    -0.018 C 
HETATM    2  C2  8UH Z1621     -33.770 126.801   5.310  1.00 27.99     0.045 C 
HETATM    3  C3  8UH Z1621     -32.724 127.736   4.717  1.00 27.99     0.123 C 
HETATM    4  C4  8UH Z1621     -31.705 128.067   5.791  1.00 27.99     0.066 C 
HETATM    5  C5  8UH Z1621     -32.451 128.873   6.815  1.00 27.99    -0.074 C 
HETATM    6  C6  8UH Z1621     -33.563 128.365   7.358  1.00 27.99    -0.048 C 
HETATM    7  C7  8UH Z1621     -34.317 129.076   8.415  1.00 27.99     0.009 C 
HETATM    8  C8  8UH Z1621     -34.400 130.410   8.334  1.00 27.99     0.007 C 
HETATM    9  C9  8UH Z1621     -35.349 131.125   9.223  1.00 27.99    -0.062 C 
HETATM   10  C10 8UH Z1621     -35.836 132.306   8.781  1.00 27.99     0.007 C 
HETATM   11  C11 8UH Z1621     -36.899 133.043   9.467  1.00 27.99     0.001 C 
HETATM   12  C12 8UH Z1621     -37.501 134.064   8.856  1.00 27.99     0.007 C 
HETATM   13  C13 8UH Z1621     -38.640 134.776   9.485  1.00 27.99    -0.062 C 
HETATM   14  C14 8UH Z1621     -39.292 135.693   8.738  1.00 27.99     0.007 C 
HETATM   15  C15 8UH Z1621     -40.449 136.465   9.202  1.00 27.99     0.001 C 
HETATM   16  C16 8UH Z1621     -33.783 125.998   7.649  1.00 27.99     0.020 C 
HETATM   17  C17 8UH Z1621     -35.748 127.256   6.740  1.00 27.99     0.020 C 
HETATM   18  C18 8UH Z1621     -31.511 129.773   7.569  1.00 27.99     0.044 C 
HETATM   19  C19 8UH Z1621     -35.801 130.474  10.508  1.00 27.99     0.048 C 
HETATM   20  C20 8UH Z1621     -39.028 134.420  10.898  1.00 27.99     0.048 C 
HETATM   21  O3  8UH Z1621     -32.082 127.115   3.596  1.00 27.99    -0.395 OA
ATOM     22  H3  8UH Z1621     -32.720 126.908   2.923  1.00  0.00     0.210 HD
HETATM   23  C21 8UH Z1621     -49.857 145.170   9.809  1.00 71.39    -0.018 C 
HETATM   24  C22 8UH Z1621     -50.819 145.380  10.973  1.00 71.39     0.045 C 
HETATM   25  C23 8UH Z1621     -50.250 145.898  12.288  1.00 71.39     0.123 C 
HETATM   26  C24 8UH Z1621     -49.029 146.763  12.062  1.00 71.39     0.066 C 
HETATM   27  C25 8UH Z1621     -48.044 145.937  11.290  1.00 71.39    -0.074 C 
HETATM   28  C26 8UH Z1621     -48.395 145.304  10.173  1.00 71.39    -0.048 C 
HETATM   29  C27 8UH Z1621     -47.389 144.716   9.247  1.00 71.39     0.009 C 
HETATM   30  C28 8UH Z1621     -46.863 143.509   9.465  1.00 71.39     0.007 C 
HETATM   31  C29 8UH Z1621     -45.893 142.863   8.579  1.00 27.99    -0.062 C 
HETATM   32  C30 8UH Z1621     -45.411 141.664   8.962  1.00 27.99     0.007 C 
HETATM   33  C31 8UH Z1621     -44.398 140.916   8.220  1.00 27.99     0.001 C 
HETATM   34  C32 8UH Z1621     -43.867 139.825   8.771  1.00 27.99     0.007 C 
HETATM   35  C33 8UH Z1621     -42.772 139.083   8.114  1.00 27.99    -0.062 C 
HETATM   36  C34 8UH Z1621     -42.162 138.125   8.843  1.00 27.99     0.007 C 
HETATM   37  C35 8UH Z1621     -41.019 137.337   8.376  1.00 27.99     0.001 C 
HETATM   38  C36 8UH Z1621     -50.236 146.140   8.697  1.00 71.39     0.020 C 
HETATM   39  C37 8UH Z1621     -50.058 143.764   9.286  1.00 71.39     0.020 C 
HETATM   40  C38 8UH Z1621     -46.645 146.370  11.559  1.00 71.39     0.044 C 
HETATM   41  C39 8UH Z1621     -45.512 143.571   7.305  1.00 27.99     0.048 C 
HETATM   42  C40 8UH Z1621     -42.360 139.468   6.717  1.00 27.99     0.048 C 
HETATM   43  O23 8UH Z1621     -51.240 146.700  12.940  1.00 71.39    -0.395 OA
ATOM     44  H23 8UH Z1621     -50.885 147.023  13.760  1.00  0.00     0.210 HD
ENDROOT
TORSDOF 12
BEGIN_RES PHE A  61
REMARK  2 active torsions:
REMARK  status: ('A' for Active; 'I' for Inactive)
REMARK    1  A    between atoms: CA   and  CB  
REMARK    2  A    between atoms: CB   and  CG  
ROOT
ATOM      1  CA  PHE A  61     -36.237 128.293  12.768  1.00 39.40     0.164 C 
ENDROOT
BRANCH   1   2
ATOM      2  CB  PHE A  61     -36.813 128.951  11.509  1.00 39.41     0.058 C 
BRANCH   2   3
ATOM      3  CG  PHE A  61     -37.093 127.992  10.376  1.00 39.01    -0.020 A 
ATOM      4  CD2 PHE A  61     -36.378 126.812  10.250  1.00 40.32    -0.004 A 
ATOM      5  CE2 PHE A  61     -36.634 125.933   9.205  1.00 40.20    -0.000 A 
ATOM      6  CZ  PHE A  61     -37.610 126.221   8.279  1.00 40.34    -0.000 A 
ATOM      7  CE1 PHE A  61     -38.331 127.389   8.392  1.00 41.51    -0.000 A 
ATOM      8  CD1 PHE A  61     -38.070 128.272   9.432  1.00 39.94    -0.004 A 
ENDBRANCH   2   3
ENDBRANCH   1   2
END_RES PHE A  61
BEGIN_RES VAL A 134
REMARK  1 active torsions:
REMARK  status: ('A' for Active; 'I' for Inactive)
REMARK    3  A    between atoms: CA   and  CB  
ROOT
ATOM      9  CA  VAL A 134     -29.766 132.051   9.815  1.00 40.75     0.159 C 
ENDROOT
BRANCH   9  10
ATOM     10  CB  VAL A 134     -30.864 132.765   9.009  1.00 40.76     0.029 C 
ATOM     11  CG1 VAL A 134     -30.943 132.207   7.596  1.00 41.76     0.002 C 
ATOM     12  CG2 VAL A 134     -32.216 132.677   9.701  1.00 40.56     0.002 C 
ENDBRANCH   9  10
END_RES VAL A 134
BEGIN_RES TYR A 338
REMARK  3 active torsions:
REMARK  status: ('A' for Active; 'I' for Inactive)
REMARK    4  A    between atoms: CA   and  CB  
REMARK    5  A    between atoms: CB   and  CG  
REMARK    6  A    between atoms: CZ   and  OH  
ROOT
ATOM     13  CA  TYR A 338     -41.631 124.950   6.058  1.00 38.23     0.164 C 
ENDROOT
BRANCH  13  14
ATOM     14  CB  TYR A 338     -41.621 126.456   6.339  1.00 39.15     0.058 C 
BRANCH  14  15
ATOM     15  CG  TYR A 338     -40.410 127.209   5.838  1.00 39.03    -0.020 A 
ATOM     16  CD2 TYR A 338     -40.236 128.546   6.153  1.00 40.65    -0.002 A 
ATOM     17  CE2 TYR A 338     -39.146 129.271   5.699  1.00 40.91     0.024 A 
ATOM     18  CZ  TYR A 338     -38.196 128.656   4.905  1.00 42.33     0.089 A 
ATOM     19  CE1 TYR A 338     -38.345 127.320   4.580  1.00 40.63     0.024 A 
ATOM     20  CD1 TYR A 338     -39.449 126.615   5.034  1.00 39.27    -0.002 A 
BRANCH  18  21
ATOM     21  OH  TYR A 338     -37.114 129.361   4.454  1.00 43.36    -0.359 OA
ATOM     22  HH  TYR A 338     -36.720 130.034   4.996  1.00  0.00     0.217 HD
ENDBRANCH  18  21
ENDBRANCH  14  15
ENDBRANCH  13  14
END_RES TYR A 338
ENDMDL
