MODEL 1
REMARK VINA RESULT:   -10.584      0.000      0.000
REMARK INTER + INTRA:         -13.387
REMARK INTER:                 -10.584
REMARK INTRA:                  -2.803
REMARK UNBOUND:                -2.803
REMARK  0 active torsions:
REMARK  status: ('A' for Active; 'I' for Inactive)
REMARK       I    between atoms: C3_3  and  O3_21 
REMARK       I    between atoms: C6_6  and  C7_7 
REMARK       I    between atoms: C8_8  and  C9_9 
REMARK       I    between atoms: C10_10  and  C11_11 
REMARK       I    between atoms: C12_12  and  C13_13 
REMARK       I    between atoms: C14_14  and  C15_15 
REMARK       I    between atoms: C23_25  and  O23_43 
REMARK       I    between atoms: C26_28  and  C27_29 
REMARK       I    between atoms: C28_30  and  C29_31 
REMARK       I    between atoms: C30_32  and  C31_33 
REMARK       I    between atoms: C32_34  and  C33_35 
REMARK       I    between atoms: C34_36  and  C35_37 
ROOT
HETATM    1  C1  8UH X1620     -33.752 129.190   7.106  1.00 33.88    -0.022 C 
HETATM    2  C2  8UH X1620     -32.980 129.915   6.014  1.00 33.88     0.045 C 
HETATM    3  C3  8UH X1620     -32.133 131.071   6.503  1.00 33.88     0.119 C 
HETATM    4  C4  8UH X1620     -31.208 130.526   7.569  1.00 33.88     0.040 C 
HETATM    5  C5  8UH X1620     -32.025 129.979   8.711  1.00 33.88     0.013 C 
HETATM    6  C6  8UH X1620     -33.297 129.624   8.500  1.00 33.88    -0.068 C 
HETATM    7  C7  8UH X1620     -34.336 129.946   9.487  1.00 33.88     0.004 C 
HETATM    8  C8  8UH X1620     -34.891 131.112   9.129  1.00 33.88     0.007 C 
HETATM    9  C9  8UH X1620     -35.942 131.797   9.926  1.00 33.88    -0.062 C 
HETATM   10  C10 8UH X1620     -36.398 132.973   9.431  1.00 33.88     0.007 C 
HETATM   11  C11 8UH X1620     -37.450 133.764  10.057  1.00 33.88     0.001 C 
HETATM   12  C12 8UH X1620     -37.883 134.878   9.486  1.00 33.88     0.007 C 
HETATM   13  C13 8UH X1620     -38.997 135.645  10.071  1.00 33.88    -0.062 C 
HETATM   14  C14 8UH X1620     -39.457 136.665   9.328  1.00 33.88     0.007 C 
HETATM   15  C15 8UH X1620     -40.595 137.515   9.678  1.00 33.88     0.001 C 
HETATM   16  C16 8UH X1620     -33.607 127.706   6.777  1.00 33.88     0.019 C 
HETATM   17  C17 8UH X1620     -35.216 129.592   6.945  1.00 33.88     0.019 C 
HETATM   18  C18 8UH X1620     -31.607 130.948   9.786  1.00 33.88     0.015 C 
HETATM   19  C19 8UH X1620     -36.467 131.180  11.204  1.00 33.88     0.048 C 
HETATM   20  C20 8UH X1620     -39.603 135.207  11.378  1.00 33.88     0.048 C 
HETATM   21  O3  8UH X1620     -31.379 131.541   5.382  1.00 33.88    -0.396 OA
ATOM     22  H3  8UH X1620     -30.848 132.267   5.689  1.00  0.00     0.210 HD
HETATM   23  C21 8UH X1620     -50.510 145.320   8.692  1.00 23.68    -0.018 C 
HETATM   24  C22 8UH X1620     -51.665 145.618   9.643  1.00 23.68     0.045 C 
HETATM   25  C23 8UH X1620     -51.407 146.519  10.845  1.00 23.68     0.123 C 
HETATM   26  C24 8UH X1620     -50.274 147.494  10.588  1.00 23.68     0.066 C 
HETATM   27  C25 8UH X1620     -49.066 146.717  10.146  1.00 23.68    -0.074 C 
HETATM   28  C26 8UH X1620     -49.155 145.839   9.144  1.00 23.68    -0.048 C 
HETATM   29  C27 8UH X1620     -47.935 145.381   8.425  1.00 23.68     0.009 C 
HETATM   30  C28 8UH X1620     -47.164 144.380   8.860  1.00 23.68     0.007 C 
HETATM   31  C29 8UH X1620     -45.952 143.916   8.138  1.00 33.88    -0.062 C 
HETATM   32  C30 8UH X1620     -45.356 142.827   8.669  1.00 33.88     0.007 C 
HETATM   33  C31 8UH X1620     -44.173 142.151   8.129  1.00 33.88     0.001 C 
HETATM   34  C32 8UH X1620     -43.705 141.081   8.779  1.00 33.88     0.007 C 
HETATM   35  C33 8UH X1620     -42.521 140.322   8.316  1.00 33.88    -0.062 C 
HETATM   36  C34 8UH X1620     -42.097 139.312   9.103  1.00 33.88     0.007 C 
HETATM   37  C35 8UH X1620     -40.950 138.455   8.805  1.00 33.88     0.001 C 
HETATM   38  C36 8UH X1620     -50.903 145.907   7.348  1.00 23.68     0.020 C 
HETATM   39  C37 8UH X1620     -50.391 143.811   8.549  1.00 23.68     0.020 C 
HETATM   40  C38 8UH X1620     -47.841 147.554  10.346  1.00 23.68     0.044 C 
HETATM   41  C39 8UH X1620     -45.489 144.600   6.873  1.00 33.88     0.048 C 
HETATM   42  C40 8UH X1620     -41.891 140.680   6.996  1.00 33.88     0.048 C 
HETATM   43  O23 8UH X1620     -52.600 147.253  11.122  1.00 23.68    -0.395 OA
ATOM     44  H23 8UH X1620     -52.439 147.814  11.872  1.00  0.00     0.210 HD
ENDROOT
TORSDOF 12
BEGIN_RES PHE A  61
REMARK  2 active torsions:
REMARK  status: ('A' for Active; 'I' for Inactive)
REMARK    1  A    between atoms: CA   and  CB  
REMARK    2  A    between atoms: CB   and  CG  
ROOT
ATOM      1  CA  PHE A  61     -36.237 128.293  12.768  1.00 39.40     0.164 C 
ENDROOT
BRANCH   1   2
ATOM      2  CB  PHE A  61     -36.813 128.951  11.509  1.00 39.41     0.058 C 
BRANCH   2   3
ATOM      3  CG  PHE A  61     -36.767 128.083  10.274  1.00 39.01    -0.020 A 
ATOM      4  CD2 PHE A  61     -35.707 127.219  10.051  1.00 40.32    -0.004 A 
ATOM      5  CE2 PHE A  61     -35.664 126.423   8.913  1.00 40.20    -0.000 A 
ATOM      6  CZ  PHE A  61     -36.682 126.479   7.989  1.00 40.34    -0.000 A 
ATOM      7  CE1 PHE A  61     -37.744 127.331   8.197  1.00 41.51    -0.000 A 
ATOM      8  CD1 PHE A  61     -37.783 128.132   9.331  1.00 39.94    -0.004 A 
ENDBRANCH   2   3
ENDBRANCH   1   2
END_RES PHE A  61
BEGIN_RES VAL A 134
REMARK  1 active torsions:
REMARK  status: ('A' for Active; 'I' for Inactive)
REMARK    3  A    between atoms: CA   and  CB  
ROOT
ATOM      9  CA  VAL A 134     -29.766 132.051   9.815  1.00 40.75     0.159 C 
ENDROOT
BRANCH   9  10
ATOM     10  CB  VAL A 134     -30.864 132.765   9.009  1.00 40.76     0.029 C 
ATOM     11  CG1 VAL A 134     -31.974 133.254   9.928  1.00 41.76     0.002 C 
ATOM     12  CG2 VAL A 134     -30.299 133.912   8.185  1.00 40.56     0.002 C 
ENDBRANCH   9  10
END_RES VAL A 134
BEGIN_RES TYR A 338
REMARK  3 active torsions:
REMARK  status: ('A' for Active; 'I' for Inactive)
REMARK    4  A    between atoms: CA   and  CB  
REMARK    5  A    between atoms: CB   and  CG  
REMARK    6  A    between atoms: CZ   and  OH  
ROOT
ATOM     13  CA  TYR A 338     -41.631 124.950   6.058  1.00 38.23     0.164 C 
ENDROOT
BRANCH  13  14
ATOM     14  CB  TYR A 338     -41.621 126.456   6.339  1.00 39.15     0.058 C 
BRANCH  14  15
ATOM     15  CG  TYR A 338     -40.398 127.204   5.862  1.00 39.03    -0.020 A 
ATOM     16  CD2 TYR A 338     -40.223 128.539   6.184  1.00 40.65    -0.002 A 
ATOM     17  CE2 TYR A 338     -39.121 129.261   5.751  1.00 40.91     0.024 A 
ATOM     18  CZ  TYR A 338     -38.160 128.644   4.972  1.00 42.33     0.089 A 
ATOM     19  CE1 TYR A 338     -38.310 127.309   4.641  1.00 40.63     0.024 A 
ATOM     20  CD1 TYR A 338     -39.426 126.608   5.073  1.00 39.27    -0.002 A 
BRANCH  18  21
ATOM     21  OH  TYR A 338     -37.067 129.344   4.543  1.00 43.36    -0.359 OA
ATOM     22  HH  TYR A 338     -36.658 129.133   3.712  1.00  0.00     0.217 HD
ENDBRANCH  18  21
ENDBRANCH  14  15
ENDBRANCH  13  14
END_RES TYR A 338
ENDMDL
MODEL 2
REMARK VINA RESULT:    -8.581      1.260     16.371
REMARK INTER + INTRA:         -11.384
REMARK INTER:                 -10.833
REMARK INTRA:                  -0.551
REMARK UNBOUND:                -2.803
REMARK  0 active torsions:
REMARK  status: ('A' for Active; 'I' for Inactive)
REMARK       I    between atoms: C3_3  and  O3_21 
REMARK       I    between atoms: C6_6  and  C7_7 
REMARK       I    between atoms: C8_8  and  C9_9 
REMARK       I    between atoms: C10_10  and  C11_11 
REMARK       I    between atoms: C12_12  and  C13_13 
REMARK       I    between atoms: C14_14  and  C15_15 
REMARK       I    between atoms: C23_25  and  O23_43 
REMARK       I    between atoms: C26_28  and  C27_29 
REMARK       I    between atoms: C28_30  and  C29_31 
REMARK       I    between atoms: C30_32  and  C31_33 
REMARK       I    between atoms: C32_34  and  C33_35 
REMARK       I    between atoms: C34_36  and  C35_37 
ROOT
HETATM    1  C1  8UH X1620     -50.245 144.755  10.418  1.00 33.88    -0.022 C 
HETATM    2  C2  8UH X1620     -50.208 144.660  11.937  1.00 33.88     0.045 C 
HETATM    3  C3  8UH X1620     -49.032 145.360  12.582  1.00 33.88     0.119 C 
HETATM    4  C4  8UH X1620     -49.060 146.799  12.117  1.00 33.88     0.040 C 
HETATM    5  C5  8UH X1620     -48.914 146.844  10.617  1.00 33.88     0.013 C 
HETATM    6  C6  8UH X1620     -49.225 145.763   9.893  1.00 33.88    -0.068 C 
HETATM    7  C7  8UH X1620     -48.381 145.355   8.762  1.00 33.88     0.004 C 
HETATM    8  C8  8UH X1620     -47.498 144.456   9.216  1.00 33.88     0.007 C 
HETATM    9  C9  8UH X1620     -46.431 143.857   8.373  1.00 33.88    -0.062 C 
HETATM   10  C10 8UH X1620     -45.613 142.966   8.983  1.00 33.88     0.007 C 
HETATM   11  C11 8UH X1620     -44.536 142.254   8.305  1.00 33.88     0.001 C 
HETATM   12  C12 8UH X1620     -43.812 141.355   8.954  1.00 33.88     0.007 C 
HETATM   13  C13 8UH X1620     -42.772 140.576   8.259  1.00 33.88    -0.062 C 
HETATM   14  C14 8UH X1620     -42.211 139.585   8.971  1.00 33.88     0.007 C 
HETATM   15  C15 8UH X1620     -41.212 138.645   8.464  1.00 33.88     0.001 C 
HETATM   16  C16 8UH X1620     -51.707 145.026  10.073  1.00 33.88     0.019 C 
HETATM   17  C17 8UH X1620     -49.858 143.377   9.886  1.00 33.88     0.019 C 
HETATM   18  C18 8UH X1620     -47.579 147.539  10.530  1.00 33.88     0.015 C 
HETATM   19  C19 8UH X1620     -46.302 144.230   6.911  1.00 33.88     0.048 C 
HETATM   20  C20 8UH X1620     -42.468 140.858   6.811  1.00 33.88     0.048 C 
HETATM   21  O3  8UH X1620     -49.229 145.291  13.998  1.00 33.88    -0.396 OA
ATOM     22  H3  8UH X1620     -48.490 145.731  14.403  1.00  0.00     0.210 HD
HETATM   23  C21 8UH X1620     -34.121 128.258   7.039  1.00 23.68    -0.018 C 
HETATM   24  C22 8UH X1620     -33.307 127.739   5.857  1.00 23.68     0.045 C 
HETATM   25  C23 8UH X1620     -31.959 128.385   5.561  1.00 23.68     0.123 C 
HETATM   26  C24 8UH X1620     -31.325 128.969   6.809  1.00 23.68     0.066 C 
HETATM   27  C25 8UH X1620     -32.312 129.903   7.452  1.00 23.68    -0.074 C 
HETATM   28  C26 8UH X1620     -33.557 129.497   7.714  1.00 23.68    -0.048 C 
HETATM   29  C27 8UH X1620     -34.403 130.225   8.698  1.00 23.68     0.009 C 
HETATM   30  C28 8UH X1620     -35.122 131.307   8.385  1.00 23.68     0.007 C 
HETATM   31  C29 8UH X1620     -35.973 132.028   9.365  1.00 33.88    -0.062 C 
HETATM   32  C30 8UH X1620     -36.708 133.036   8.846  1.00 33.88     0.007 C 
HETATM   33  C31 8UH X1620     -37.652 133.874   9.589  1.00 33.88     0.001 C 
HETATM   34  C32 8UH X1620     -38.304 134.834   8.923  1.00 33.88     0.007 C 
HETATM   35  C33 8UH X1620     -39.283 135.733   9.576  1.00 33.88    -0.062 C 
HETATM   36  C34 8UH X1620     -39.810 136.715   8.817  1.00 33.88     0.007 C 
HETATM   37  C35 8UH X1620     -40.792 137.690   9.291  1.00 33.88     0.001 C 
HETATM   38  C36 8UH X1620     -34.235 127.102   8.017  1.00 23.68     0.020 C 
HETATM   39  C37 8UH X1620     -35.513 128.612   6.537  1.00 23.68     0.020 C 
HETATM   40  C38 8UH X1620     -31.584 130.833   8.372  1.00 23.68     0.044 C 
HETATM   41  C39 8UH X1620     -36.032 131.597  10.811  1.00 33.88     0.048 C 
HETATM   42  C40 8UH X1620     -39.665 135.482  11.011  1.00 33.88     0.048 C 
HETATM   43  O23 8UH X1620     -31.091 127.387   5.022  1.00 23.68    -0.395 OA
ATOM     44  H23 8UH X1620     -30.250 127.789   4.838  1.00  0.00     0.210 HD
ENDROOT
TORSDOF 12
BEGIN_RES PHE A  61
REMARK  2 active torsions:
REMARK  status: ('A' for Active; 'I' for Inactive)
REMARK    1  A    between atoms: CA   and  CB  
REMARK    2  A    between atoms: CB   and  CG  
ROOT
ATOM      1  CA  PHE A  61     -36.237 128.293  12.768  1.00 39.40     0.164 C 
ENDROOT
BRANCH   1   2
ATOM      2  CB  PHE A  61     -36.813 128.951  11.509  1.00 39.41     0.058 C 
BRANCH   2   3
ATOM      3  CG  PHE A  61     -37.012 128.007  10.347  1.00 39.01    -0.020 A 
ATOM      4  CD2 PHE A  61     -36.260 126.849  10.234  1.00 40.32    -0.004 A 
ATOM      5  CE2 PHE A  61     -36.443 125.983   9.163  1.00 40.20    -0.000 A 
ATOM      6  CZ  PHE A  61     -37.381 126.263   8.196  1.00 40.34    -0.000 A 
ATOM      7  CE1 PHE A  61     -38.138 127.410   8.295  1.00 41.51    -0.000 A 
ATOM      8  CD1 PHE A  61     -37.951 128.279   9.362  1.00 39.94    -0.004 A 
ENDBRANCH   2   3
ENDBRANCH   1   2
END_RES PHE A  61
BEGIN_RES VAL A 134
REMARK  1 active torsions:
REMARK  status: ('A' for Active; 'I' for Inactive)
REMARK    3  A    between atoms: CA   and  CB  
ROOT
ATOM      9  CA  VAL A 134     -29.766 132.051   9.815  1.00 40.75     0.159 C 
ENDROOT
BRANCH   9  10
ATOM     10  CB  VAL A 134     -30.864 132.765   9.009  1.00 40.76     0.029 C 
ATOM     11  CG1 VAL A 134     -32.104 132.983   9.864  1.00 41.76     0.002 C 
ATOM     12  CG2 VAL A 134     -30.369 134.081   8.430  1.00 40.56     0.002 C 
ENDBRANCH   9  10
END_RES VAL A 134
BEGIN_RES TYR A 338
REMARK  3 active torsions:
REMARK  status: ('A' for Active; 'I' for Inactive)
REMARK    4  A    between atoms: CA   and  CB  
REMARK    5  A    between atoms: CB   and  CG  
REMARK    6  A    between atoms: CZ   and  OH  
ROOT
ATOM     13  CA  TYR A 338     -41.631 124.950   6.058  1.00 38.23     0.164 C 
ENDROOT
BRANCH  13  14
ATOM     14  CB  TYR A 338     -41.621 126.456   6.339  1.00 39.15     0.058 C 
BRANCH  14  15
ATOM     15  CG  TYR A 338     -40.417 127.211   5.826  1.00 39.03    -0.020 A 
ATOM     16  CD2 TYR A 338     -40.262 128.558   6.106  1.00 40.65    -0.002 A 
ATOM     17  CE2 TYR A 338     -39.179 129.286   5.638  1.00 40.91     0.024 A 
ATOM     18  CZ  TYR A 338     -38.215 128.663   4.868  1.00 42.33     0.089 A 
ATOM     19  CE1 TYR A 338     -38.345 127.316   4.578  1.00 40.63     0.024 A 
ATOM     20  CD1 TYR A 338     -39.443 126.609   5.044  1.00 39.27    -0.002 A 
BRANCH  18  21
ATOM     21  OH  TYR A 338     -37.140 129.369   4.405  1.00 43.36    -0.359 OA
ATOM     22  HH  TYR A 338     -37.086 129.617   3.489  1.00  0.00     0.217 HD
ENDBRANCH  18  21
ENDBRANCH  14  15
ENDBRANCH  13  14
END_RES TYR A 338
ENDMDL
