MODEL 1
REMARK VINA RESULT:    -8.572      0.000      0.000
REMARK INTER + INTRA:         -10.542
REMARK INTER:                  -8.572
REMARK INTRA:                  -1.970
REMARK UNBOUND:                -1.970
REMARK  0 active torsions:
REMARK  status: ('A' for Active; 'I' for Inactive)
REMARK       I    between atoms: C3_3  and  O3_21 
REMARK       I    between atoms: C6_6  and  C7_7 
REMARK       I    between atoms: C8_8  and  C9_9 
REMARK       I    between atoms: C10_10  and  C11_11 
REMARK       I    between atoms: C12_12  and  C13_13 
REMARK       I    between atoms: C14_14  and  C15_15 
REMARK       I    between atoms: C23_25  and  O23_43 
REMARK       I    between atoms: C26_28  and  C27_29 
REMARK       I    between atoms: C28_30  and  C29_31 
REMARK       I    between atoms: C30_32  and  C31_33 
REMARK       I    between atoms: C32_34  and  C33_35 
REMARK       I    between atoms: C34_36  and  C35_37 
ROOT
HETATM    1  C1  8UH Z 617     -49.156 142.847  11.925  1.00 32.73    -0.018 C 
HETATM    2  C2  8UH Z 617     -50.082 143.658  12.811  1.00 32.73     0.045 C 
HETATM    3  C3  8UH Z 617     -49.336 144.758  13.529  1.00 32.73     0.123 C 
HETATM    4  C4  8UH Z 617     -48.769 145.723  12.514  1.00 32.73     0.066 C 
HETATM    5  C5  8UH Z 617     -48.033 145.025  11.399  1.00 32.73    -0.074 C 
HETATM    6  C6  8UH Z 617     -48.208 143.718  11.105  1.00 32.73    -0.048 C 
HETATM    7  C7  8UH Z 617     -47.519 143.118   9.925  1.00 32.73     0.009 C 
HETATM    8  C8  8UH Z 617     -46.276 142.617   9.967  1.00 32.73     0.007 C 
HETATM    9  C9  8UH Z 617     -45.599 142.021   8.807  1.00 32.73    -0.062 C 
HETATM   10  C10 8UH Z 617     -44.588 141.197   9.086  1.00 32.73     0.007 C 
HETATM   11  C11 8UH Z 617     -43.783 140.479   8.111  1.00 32.73     0.001 C 
HETATM   12  C12 8UH Z 617     -42.906 139.667   8.684  1.00 32.73     0.007 C 
HETATM   13  C13 8UH Z 617     -41.978 138.776   7.981  1.00 32.73    -0.062 C 
HETATM   14  C14 8UH Z 617     -41.250 137.968   8.756  1.00 32.73     0.007 C 
HETATM   15  C15 8UH Z 617     -40.317 136.989   8.232  1.00 32.73     0.001 C 
HETATM   16  C16 8UH Z 617     -50.069 141.945  11.100  1.00 32.73     0.020 C 
HETATM   17  C17 8UH Z 617     -48.287 141.957  12.796  1.00 32.73     0.020 C 
HETATM   18  C18 8UH Z 617     -47.146 145.932  10.595  1.00 32.73     0.044 C 
HETATM   19  C19 8UH Z 617     -46.008 142.348   7.402  1.00 32.73     0.048 C 
HETATM   20  C20 8UH Z 617     -41.877 138.748   6.485  1.00 32.73     0.048 C 
HETATM   21  O3  8UH Z 617     -50.232 145.468  14.387  1.00 32.73    -0.395 OA
ATOM     22  H3  8UH Z 617     -49.764 146.160  14.838  1.00  0.00     0.210 HD
HETATM   23  C21 8UH Z 617     -34.008 127.161   6.960  1.00 42.32    -0.018 C 
HETATM   24  C22 8UH Z 617     -34.776 127.423   5.668  1.00 42.32     0.045 C 
HETATM   25  C23 8UH Z 617     -34.192 128.524   4.790  1.00 42.32     0.123 C 
HETATM   26  C24 8UH Z 617     -32.677 128.532   4.890  1.00 42.32     0.066 C 
HETATM   27  C25 8UH Z 617     -32.298 128.801   6.321  1.00 42.32    -0.074 C 
HETATM   28  C26 8UH Z 617     -33.053 128.283   7.289  1.00 42.32    -0.048 C 
HETATM   29  C27 8UH Z 617     -33.290 129.019   8.534  1.00 42.32     0.009 C 
HETATM   30  C28 8UH Z 617     -34.223 129.941   8.248  1.00 42.32     0.007 C 
HETATM   31  C29 8UH Z 617     -34.781 130.861   9.247  1.00 32.73    -0.062 C 
HETATM   32  C30 8UH Z 617     -35.879 131.515   8.876  1.00 32.73     0.007 C 
HETATM   33  C31 8UH Z 617     -36.616 132.462   9.694  1.00 32.73     0.001 C 
HETATM   34  C32 8UH Z 617     -37.371 133.281   8.978  1.00 32.73     0.007 C 
HETATM   35  C33 8UH Z 617     -38.227 134.332   9.535  1.00 32.73    -0.062 C 
HETATM   36  C34 8UH Z 617     -38.952 135.045   8.669  1.00 32.73     0.007 C 
HETATM   37  C35 8UH Z 617     -39.860 136.096   9.100  1.00 32.73     0.001 C 
HETATM   38  C36 8UH Z 617     -33.247 125.850   6.811  1.00 42.32     0.020 C 
HETATM   39  C37 8UH Z 617     -34.994 127.049   8.114  1.00 42.32     0.020 C 
HETATM   40  C38 8UH Z 617     -31.569 130.107   6.437  1.00 42.32     0.044 C 
HETATM   41  C39 8UH Z 617     -34.159 131.044  10.597  1.00 32.73     0.048 C 
HETATM   42  C40 8UH Z 617     -38.272 134.592  11.010  1.00 32.73     0.048 C 
HETATM   43  O23 8UH Z 617     -34.559 128.290   3.427  1.00 42.32    -0.395 OA
ATOM     44  H23 8UH Z 617     -34.195 128.976   2.880  1.00  0.00     0.210 HD
ENDROOT
TORSDOF 12
BEGIN_RES PHE A  61
REMARK  2 active torsions:
REMARK  status: ('A' for Active; 'I' for Inactive)
REMARK    1  A    between atoms: CA   and  CB  
REMARK    2  A    between atoms: CB   and  CG  
ROOT
ATOM      1  CA  PHE A  61     -36.237 128.293  12.768  1.00 39.40     0.164 C 
ENDROOT
BRANCH   1   2
ATOM      2  CB  PHE A  61     -36.813 128.951  11.509  1.00 39.41     0.058 C 
BRANCH   2   3
ATOM      3  CG  PHE A  61     -37.108 127.990  10.382  1.00 39.01    -0.020 A 
ATOM      4  CD2 PHE A  61     -36.515 126.738  10.340  1.00 40.32    -0.004 A 
ATOM      5  CE2 PHE A  61     -36.785 125.857   9.301  1.00 40.20    -0.000 A 
ATOM      6  CZ  PHE A  61     -37.654 126.215   8.296  1.00 40.34    -0.000 A 
ATOM      7  CE1 PHE A  61     -38.253 127.454   8.324  1.00 41.51    -0.000 A 
ATOM      8  CD1 PHE A  61     -37.978 128.339   9.359  1.00 39.94    -0.004 A 
ENDBRANCH   2   3
ENDBRANCH   1   2
END_RES PHE A  61
BEGIN_RES VAL A 134
REMARK  1 active torsions:
REMARK  status: ('A' for Active; 'I' for Inactive)
REMARK    3  A    between atoms: CA   and  CB  
ROOT
ATOM      9  CA  VAL A 134     -29.766 132.051   9.815  1.00 40.75     0.159 C 
ENDROOT
BRANCH   9  10
ATOM     10  CB  VAL A 134     -30.864 132.765   9.009  1.00 40.76     0.029 C 
ATOM     11  CG1 VAL A 134     -31.225 131.966   7.766  1.00 41.76     0.002 C 
ATOM     12  CG2 VAL A 134     -32.098 133.032   9.857  1.00 40.56     0.002 C 
ENDBRANCH   9  10
END_RES VAL A 134
BEGIN_RES TYR A 338
REMARK  3 active torsions:
REMARK  status: ('A' for Active; 'I' for Inactive)
REMARK    4  A    between atoms: CA   and  CB  
REMARK    5  A    between atoms: CB   and  CG  
REMARK    6  A    between atoms: CZ   and  OH  
ROOT
ATOM     13  CA  TYR A 338     -41.631 124.950   6.058  1.00 38.23     0.164 C 
ENDROOT
BRANCH  13  14
ATOM     14  CB  TYR A 338     -41.621 126.456   6.339  1.00 39.15     0.058 C 
BRANCH  14  15
ATOM     15  CG  TYR A 338     -40.416 127.211   5.827  1.00 39.03    -0.020 A 
ATOM     16  CD2 TYR A 338     -40.262 128.558   6.107  1.00 40.65    -0.002 A 
ATOM     17  CE2 TYR A 338     -39.178 129.285   5.640  1.00 40.91     0.024 A 
ATOM     18  CZ  TYR A 338     -38.214 128.662   4.870  1.00 42.33     0.089 A 
ATOM     19  CE1 TYR A 338     -38.344 127.315   4.580  1.00 40.63     0.024 A 
ATOM     20  CD1 TYR A 338     -39.442 126.609   5.045  1.00 39.27    -0.002 A 
BRANCH  18  21
ATOM     21  OH  TYR A 338     -37.139 129.368   4.408  1.00 43.36    -0.359 OA
ATOM     22  HH  TYR A 338     -36.963 130.244   4.732  1.00  0.00     0.217 HD
ENDBRANCH  18  21
ENDBRANCH  14  15
ENDBRANCH  13  14
END_RES TYR A 338
ENDMDL
MODEL 2
REMARK VINA RESULT:    -8.557      1.156     15.835
REMARK INTER + INTRA:         -10.527
REMARK INTER:                  -6.021
REMARK INTRA:                  -4.506
REMARK UNBOUND:                -1.970
REMARK  0 active torsions:
REMARK  status: ('A' for Active; 'I' for Inactive)
REMARK       I    between atoms: C3_3  and  O3_21 
REMARK       I    between atoms: C6_6  and  C7_7 
REMARK       I    between atoms: C8_8  and  C9_9 
REMARK       I    between atoms: C10_10  and  C11_11 
REMARK       I    between atoms: C12_12  and  C13_13 
REMARK       I    between atoms: C14_14  and  C15_15 
REMARK       I    between atoms: C23_25  and  O23_43 
REMARK       I    between atoms: C26_28  and  C27_29 
REMARK       I    between atoms: C28_30  and  C29_31 
REMARK       I    between atoms: C30_32  and  C31_33 
REMARK       I    between atoms: C32_34  and  C33_35 
REMARK       I    between atoms: C34_36  and  C35_37 
ROOT
HETATM    1  C1  8UH Z 617     -34.585 126.979   5.165  1.00 32.73    -0.018 C 
HETATM    2  C2  8UH Z 617     -33.827 126.044   4.242  1.00 32.73     0.045 C 
HETATM    3  C3  8UH Z 617     -32.678 126.750   3.562  1.00 32.73     0.123 C 
HETATM    4  C4  8UH Z 617     -31.687 127.211   4.605  1.00 32.73     0.066 C 
HETATM    5  C5  8UH Z 617     -32.346 127.940   5.749  1.00 32.73    -0.074 C 
HETATM    6  C6  8UH Z 617     -33.663 127.834   6.030  1.00 32.73    -0.048 C 
HETATM    7  C7  8UH Z 617     -34.227 128.506   7.236  1.00 32.73     0.009 C 
HETATM    8  C8  8UH Z 617     -34.650 129.779   7.247  1.00 32.73     0.007 C 
HETATM    9  C9  8UH Z 617     -35.210 130.439   8.434  1.00 32.73    -0.062 C 
HETATM   10  C10 8UH Z 617     -35.969 131.511   8.197  1.00 32.73     0.007 C 
HETATM   11  C11 8UH Z 617     -36.642 132.315   9.203  1.00 32.73     0.001 C 
HETATM   12  C12 8UH Z 617     -37.394 133.266   8.666  1.00 32.73     0.007 C 
HETATM   13  C13 8UH Z 617     -38.230 134.215   9.406  1.00 32.73    -0.062 C 
HETATM   14  C14 8UH Z 617     -38.986 135.026   8.662  1.00 32.73     0.007 C 
HETATM   15  C15 8UH Z 617     -39.910 135.994   9.222  1.00 32.73     0.001 C 
HETATM   16  C16 8UH Z 617     -35.548 126.088   5.946  1.00 32.73     0.020 C 
HETATM   17  C17 8UH Z 617     -35.414 127.939   4.330  1.00 32.73     0.020 C 
HETATM   18  C18 8UH Z 617     -31.391 128.732   6.595  1.00 32.73     0.044 C 
HETATM   19  C19 8UH Z 617     -34.919 129.949   9.821  1.00 32.73     0.048 C 
HETATM   20  C20 8UH Z 617     -38.263 134.252  10.905  1.00 32.73     0.048 C 
HETATM   21  O3  8UH Z 617     -32.019 125.850   2.668  1.00 32.73    -0.395 OA
ATOM     22  H3  8UH Z 617     -31.297 126.294   2.241  1.00  0.00     0.210 HD
HETATM   23  C21 8UH Z 617     -49.336 142.839  10.733  1.00 42.32    -0.018 C 
HETATM   24  C22 8UH Z 617     -49.131 142.001  11.990  1.00 42.32     0.045 C 
HETATM   25  C23 8UH Z 617     -48.002 142.476  12.898  1.00 42.32     0.123 C 
HETATM   26  C24 8UH Z 617     -47.900 143.990  12.865  1.00 42.32     0.066 C 
HETATM   27  C25 8UH Z 617     -47.598 144.415  11.453  1.00 42.32    -0.074 C 
HETATM   28  C26 8UH Z 617     -48.155 143.737  10.450  1.00 42.32    -0.048 C 
HETATM   29  C27 8UH Z 617     -47.427 143.509   9.199  1.00 42.32     0.009 C 
HETATM   30  C28 8UH Z 617     -46.567 142.509   9.448  1.00 42.32     0.007 C 
HETATM   31  C29 8UH Z 617     -45.676 141.939   8.429  1.00 32.73    -0.062 C 
HETATM   32  C30 8UH Z 617     -45.094 140.787   8.753  1.00 32.73     0.007 C 
HETATM   33  C31 8UH Z 617     -44.189 140.030   7.907  1.00 32.73     0.001 C 
HETATM   34  C32 8UH Z 617     -43.423 139.195   8.593  1.00 32.73     0.007 C 
HETATM   35  C33 8UH Z 617     -42.424 138.300   8.002  1.00 32.73    -0.062 C 
HETATM   36  C34 8UH Z 617     -41.762 137.495   8.838  1.00 32.73     0.007 C 
HETATM   37  C35 8UH Z 617     -40.766 136.544   8.372  1.00 32.73     0.001 C 
HETATM   38  C36 8UH Z 617     -50.599 143.673  10.910  1.00 42.32     0.020 C 
HETATM   39  C37 8UH Z 617     -49.502 141.915   9.536  1.00 42.32     0.020 C 
HETATM   40  C38 8UH Z 617     -46.248 145.066  11.374  1.00 42.32     0.044 C 
HETATM   41  C39 8UH Z 617     -45.446 142.608   7.108  1.00 32.73     0.048 C 
HETATM   42  C40 8UH Z 617     -42.157 138.303   6.528  1.00 32.73     0.048 C 
HETATM   43  O23 8UH Z 617     -48.268 142.065  14.242  1.00 42.32    -0.395 OA
ATOM     44  H23 8UH Z 617     -47.564 142.361  14.807  1.00  0.00     0.210 HD
ENDROOT
TORSDOF 12
BEGIN_RES PHE A  61
REMARK  2 active torsions:
REMARK  status: ('A' for Active; 'I' for Inactive)
REMARK    1  A    between atoms: CA   and  CB  
REMARK    2  A    between atoms: CB   and  CG  
ROOT
ATOM      1  CA  PHE A  61     -36.237 128.293  12.768  1.00 39.40     0.164 C 
ENDROOT
BRANCH   1   2
ATOM      2  CB  PHE A  61     -36.813 128.951  11.509  1.00 39.41     0.058 C 
BRANCH   2   3
ATOM      3  CG  PHE A  61     -36.938 128.025  10.323  1.00 39.01    -0.020 A 
ATOM      4  CD2 PHE A  61     -36.031 126.997  10.124  1.00 40.32    -0.004 A 
ATOM      5  CE2 PHE A  61     -36.145 126.148   9.030  1.00 40.20    -0.000 A 
ATOM      6  CZ  PHE A  61     -37.169 126.315   8.126  1.00 40.34    -0.000 A 
ATOM      7  CE1 PHE A  61     -38.081 127.331   8.311  1.00 41.51    -0.000 A 
ATOM      8  CD1 PHE A  61     -37.963 128.184   9.400  1.00 39.94    -0.004 A 
ENDBRANCH   2   3
ENDBRANCH   1   2
END_RES PHE A  61
BEGIN_RES VAL A 134
REMARK  1 active torsions:
REMARK  status: ('A' for Active; 'I' for Inactive)
REMARK    3  A    between atoms: CA   and  CB  
ROOT
ATOM      9  CA  VAL A 134     -29.766 132.051   9.815  1.00 40.75     0.159 C 
ENDROOT
BRANCH   9  10
ATOM     10  CB  VAL A 134     -30.864 132.765   9.009  1.00 40.76     0.029 C 
ATOM     11  CG1 VAL A 134     -31.173 132.003   7.729  1.00 41.76     0.002 C 
ATOM     12  CG2 VAL A 134     -32.125 132.968   9.835  1.00 40.56     0.002 C 
ENDBRANCH   9  10
END_RES VAL A 134
BEGIN_RES TYR A 338
REMARK  3 active torsions:
REMARK  status: ('A' for Active; 'I' for Inactive)
REMARK    4  A    between atoms: CA   and  CB  
REMARK    5  A    between atoms: CB   and  CG  
REMARK    6  A    between atoms: CZ   and  OH  
ROOT
ATOM     13  CA  TYR A 338     -41.631 124.950   6.058  1.00 38.23     0.164 C 
ENDROOT
BRANCH  13  14
ATOM     14  CB  TYR A 338     -41.621 126.456   6.339  1.00 39.15     0.058 C 
BRANCH  14  15
ATOM     15  CG  TYR A 338     -40.415 127.211   5.829  1.00 39.03    -0.020 A 
ATOM     16  CD2 TYR A 338     -40.233 128.544   6.154  1.00 40.65    -0.002 A 
ATOM     17  CE2 TYR A 338     -39.147 129.271   5.692  1.00 40.91     0.024 A 
ATOM     18  CZ  TYR A 338     -38.209 128.661   4.880  1.00 42.33     0.089 A 
ATOM     19  CE1 TYR A 338     -38.366 127.328   4.545  1.00 40.63     0.024 A 
ATOM     20  CD1 TYR A 338     -39.466 126.622   5.007  1.00 39.27    -0.002 A 
BRANCH  18  21
ATOM     21  OH  TYR A 338     -37.132 129.367   4.421  1.00 43.36    -0.359 OA
ATOM     22  HH  TYR A 338     -37.171 129.813   3.583  1.00  0.00     0.217 HD
ENDBRANCH  18  21
ENDBRANCH  14  15
ENDBRANCH  13  14
END_RES TYR A 338
ENDMDL
MODEL 3
REMARK VINA RESULT:    -7.968      1.753      2.332
REMARK INTER + INTRA:          -9.937
REMARK INTER:                  -7.321
REMARK INTRA:                  -2.616
REMARK UNBOUND:                -1.970
REMARK  0 active torsions:
REMARK  status: ('A' for Active; 'I' for Inactive)
REMARK       I    between atoms: C3_3  and  O3_21 
REMARK       I    between atoms: C6_6  and  C7_7 
REMARK       I    between atoms: C8_8  and  C9_9 
REMARK       I    between atoms: C10_10  and  C11_11 
REMARK       I    between atoms: C12_12  and  C13_13 
REMARK       I    between atoms: C14_14  and  C15_15 
REMARK       I    between atoms: C23_25  and  O23_43 
REMARK       I    between atoms: C26_28  and  C27_29 
REMARK       I    between atoms: C28_30  and  C29_31 
REMARK       I    between atoms: C30_32  and  C31_33 
REMARK       I    between atoms: C32_34  and  C33_35 
REMARK       I    between atoms: C34_36  and  C35_37 
ROOT
HETATM    1  C1  8UH Z 617     -49.741 144.207   9.534  1.00 32.73    -0.018 C 
HETATM    2  C2  8UH Z 617     -51.123 144.705   9.910  1.00 32.73     0.045 C 
HETATM    3  C3  8UH Z 617     -51.237 144.953  11.395  1.00 32.73     0.123 C 
HETATM    4  C4  8UH Z 617     -50.271 146.044  11.795  1.00 32.73     0.066 C 
HETATM    5  C5  8UH Z 617     -48.883 145.817  11.252  1.00 32.73    -0.074 C 
HETATM    6  C6  8UH Z 617     -48.623 144.996  10.211  1.00 32.73    -0.048 C 
HETATM    7  C7  8UH Z 617     -47.239 144.896   9.665  1.00 32.73     0.009 C 
HETATM    8  C8  8UH Z 617     -46.308 144.060  10.148  1.00 32.73     0.007 C 
HETATM    9  C9  8UH Z 617     -44.946 143.958   9.607  1.00 32.73    -0.062 C 
HETATM   10  C10 8UH Z 617     -44.299 142.823   9.878  1.00 32.73     0.007 C 
HETATM   11  C11 8UH Z 617     -42.955 142.485   9.437  1.00 32.73     0.001 C 
HETATM   12  C12 8UH Z 617     -42.606 141.254   9.786  1.00 32.73     0.007 C 
HETATM   13  C13 8UH Z 617     -41.337 140.600   9.458  1.00 32.73    -0.062 C 
HETATM   14  C14 8UH Z 617     -41.233 139.319   9.821  1.00 32.73     0.007 C 
HETATM   15  C15 8UH Z 617     -40.070 138.500   9.536  1.00 32.73     0.001 C 
HETATM   16  C16 8UH Z 617     -49.702 144.227   8.009  1.00 32.73     0.020 C 
HETATM   17  C17 8UH Z 617     -49.591 142.764   9.984  1.00 32.73     0.020 C 
HETATM   18  C18 8UH Z 617     -47.825 146.647  11.922  1.00 32.73     0.044 C 
HETATM   19  C19 8UH Z 617     -44.322 145.074   8.825  1.00 32.73     0.048 C 
HETATM   20  C20 8UH Z 617     -40.236 141.311   8.729  1.00 32.73     0.048 C 
HETATM   21  O3  8UH Z 617     -52.564 145.375  11.714  1.00 32.73    -0.395 OA
ATOM     22  H3  8UH Z 617     -52.635 145.532  12.649  1.00  0.00     0.210 HD
HETATM   23  C21 8UH Z 617     -33.311 129.271   6.867  1.00 42.32    -0.018 C 
HETATM   24  C22 8UH Z 617     -33.012 130.399   5.885  1.00 42.32     0.045 C 
HETATM   25  C23 8UH Z 617     -32.147 131.522   6.448  1.00 42.32     0.123 C 
HETATM   26  C24 8UH Z 617     -31.134 130.967   7.432  1.00 42.32     0.066 C 
HETATM   27  C25 8UH Z 617     -31.880 130.316   8.565  1.00 42.32    -0.074 C 
HETATM   28  C26 8UH Z 617     -33.011 129.665   8.293  1.00 42.32    -0.048 C 
HETATM   29  C27 8UH Z 617     -34.136 129.687   9.232  1.00 42.32     0.009 C 
HETATM   30  C28 8UH Z 617     -34.736 130.876   9.063  1.00 42.32     0.007 C 
HETATM   31  C29 8UH Z 617     -35.949 131.277   9.788  1.00 32.73    -0.062 C 
HETATM   32  C30 8UH Z 617     -36.571 132.354   9.315  1.00 32.73     0.007 C 
HETATM   33  C31 8UH Z 617     -37.791 132.930   9.852  1.00 32.73     0.001 C 
HETATM   34  C32 8UH Z 617     -37.955 134.198   9.510  1.00 32.73     0.007 C 
HETATM   35  C33 8UH Z 617     -39.096 135.030   9.901  1.00 32.73    -0.062 C 
HETATM   36  C34 8UH Z 617     -39.122 136.282   9.436  1.00 32.73     0.007 C 
HETATM   37  C35 8UH Z 617     -40.213 137.196   9.732  1.00 32.73     0.001 C 
HETATM   38  C36 8UH Z 617     -32.481 128.056   6.472  1.00 42.32     0.020 C 
HETATM   39  C37 8UH Z 617     -34.790 128.922   6.793  1.00 42.32     0.020 C 
HETATM   40  C38 8UH Z 617     -31.622 131.042   9.853  1.00 42.32     0.044 C 
HETATM   41  C39 8UH Z 617     -36.454 130.519  10.977  1.00 32.73     0.048 C 
HETATM   42  C40 8UH Z 617     -40.175 134.493  10.791  1.00 32.73     0.048 C 
HETATM   43  O23 8UH Z 617     -31.443 132.161   5.378  1.00 42.32    -0.395 OA
ATOM     44  H23 8UH Z 617     -30.905 132.861   5.728  1.00  0.00     0.210 HD
ENDROOT
TORSDOF 12
BEGIN_RES PHE A  61
REMARK  2 active torsions:
REMARK  status: ('A' for Active; 'I' for Inactive)
REMARK    1  A    between atoms: CA   and  CB  
REMARK    2  A    between atoms: CB   and  CG  
ROOT
ATOM      1  CA  PHE A  61     -36.237 128.293  12.768  1.00 39.40     0.164 C 
ENDROOT
BRANCH   1   2
ATOM      2  CB  PHE A  61     -36.813 128.951  11.509  1.00 39.41     0.058 C 
BRANCH   2   3
ATOM      3  CG  PHE A  61     -36.799 128.070  10.283  1.00 39.01    -0.020 A 
ATOM      4  CD2 PHE A  61     -37.841 128.105   9.370  1.00 40.32    -0.004 A 
ATOM      5  CE2 PHE A  61     -37.829 127.292   8.243  1.00 40.20    -0.000 A 
ATOM      6  CZ  PHE A  61     -36.773 126.438   8.015  1.00 40.34    -0.000 A 
ATOM      7  CE1 PHE A  61     -35.729 126.394   8.912  1.00 41.51    -0.000 A 
ATOM      8  CD1 PHE A  61     -35.744 127.202  10.042  1.00 39.94    -0.004 A 
ENDBRANCH   2   3
ENDBRANCH   1   2
END_RES PHE A  61
BEGIN_RES VAL A 134
REMARK  1 active torsions:
REMARK  status: ('A' for Active; 'I' for Inactive)
REMARK    3  A    between atoms: CA   and  CB  
ROOT
ATOM      9  CA  VAL A 134     -29.766 132.051   9.815  1.00 40.75     0.159 C 
ENDROOT
BRANCH   9  10
ATOM     10  CB  VAL A 134     -30.864 132.765   9.009  1.00 40.76     0.029 C 
ATOM     11  CG1 VAL A 134     -31.976 133.250   9.927  1.00 41.76     0.002 C 
ATOM     12  CG2 VAL A 134     -30.300 133.915   8.189  1.00 40.56     0.002 C 
ENDBRANCH   9  10
END_RES VAL A 134
BEGIN_RES TYR A 338
REMARK  3 active torsions:
REMARK  status: ('A' for Active; 'I' for Inactive)
REMARK    4  A    between atoms: CA   and  CB  
REMARK    5  A    between atoms: CB   and  CG  
REMARK    6  A    between atoms: CZ   and  OH  
ROOT
ATOM     13  CA  TYR A 338     -41.631 124.950   6.058  1.00 38.23     0.164 C 
ENDROOT
BRANCH  13  14
ATOM     14  CB  TYR A 338     -41.621 126.456   6.339  1.00 39.15     0.058 C 
BRANCH  14  15
ATOM     15  CG  TYR A 338     -40.397 127.204   5.864  1.00 39.03    -0.020 A 
ATOM     16  CD2 TYR A 338     -40.226 128.541   6.179  1.00 40.65    -0.002 A 
ATOM     17  CE2 TYR A 338     -39.124 129.262   5.747  1.00 40.91     0.024 A 
ATOM     18  CZ  TYR A 338     -38.158 128.643   4.976  1.00 42.33     0.089 A 
ATOM     19  CE1 TYR A 338     -38.303 127.305   4.652  1.00 40.63     0.024 A 
ATOM     20  CD1 TYR A 338     -39.420 126.606   5.083  1.00 39.27    -0.002 A 
BRANCH  18  21
ATOM     21  OH  TYR A 338     -37.065 129.343   4.548  1.00 43.36    -0.359 OA
ATOM     22  HH  TYR A 338     -36.287 128.885   4.250  1.00  0.00     0.217 HD
ENDBRANCH  18  21
ENDBRANCH  14  15
ENDBRANCH  13  14
END_RES TYR A 338
ENDMDL
