MODEL 1
REMARK VINA RESULT:   -10.117      0.000      0.000
REMARK INTER + INTRA:         -14.121
REMARK INTER:                 -10.117
REMARK INTRA:                  -4.004
REMARK UNBOUND:                -4.004
REMARK  0 active torsions:
REMARK  status: ('A' for Active; 'I' for Inactive)
REMARK       I    between atoms: C3_3  and  O3_21 
REMARK       I    between atoms: C6_6  and  C7_7 
REMARK       I    between atoms: C8_8  and  C9_9 
REMARK       I    between atoms: C10_10  and  C11_11 
REMARK       I    between atoms: C12_12  and  C13_13 
REMARK       I    between atoms: C14_14  and  C15_15 
REMARK       I    between atoms: C23_25  and  O23_43 
REMARK       I    between atoms: C26_28  and  C27_29 
REMARK       I    between atoms: C28_30  and  C29_31 
REMARK       I    between atoms: C30_32  and  C31_33 
REMARK       I    between atoms: C32_34  and  C33_35 
REMARK       I    between atoms: C34_36  and  C35_37 
ROOT
HETATM    1  C1  8UH D3621     -47.685 145.596  12.607  1.00 23.41    -0.018 C 
HETATM    2  C2  8UH D3621     -48.574 146.167  13.725  1.00 23.79     0.045 C 
HETATM    3  C3  8UH D3621     -47.954 146.930  14.893  1.00 23.28     0.123 C 
HETATM    4  C4  8UH D3621     -46.543 147.470  14.611  1.00 23.70     0.066 C 
HETATM    5  C5  8UH D3621     -45.708 146.902  13.500  1.00 23.84    -0.074 C 
HETATM    6  C6  8UH D3621     -46.193 146.033  12.543  1.00 22.99    -0.048 C 
HETATM    7  C7  8UH D3621     -45.391 145.465  11.426  1.00 20.55     0.009 C 
HETATM    8  C8  8UH D3621     -44.561 144.406  11.534  1.00 19.35     0.007 C 
HETATM    9  C9  8UH D3621     -43.682 143.790  10.537  1.00 18.45    -0.062 C 
HETATM   10  C10 8UH D3621     -43.053 142.646  10.888  1.00 18.11     0.007 C 
HETATM   11  C11 8UH D3621     -42.223 141.826  10.052  1.00 18.44     0.001 C 
HETATM   12  C12 8UH D3621     -41.705 140.651  10.479  1.00 19.34     0.007 C 
HETATM   13  C13 8UH D3621     -40.929 139.699   9.662  1.00 20.12    -0.062 C 
HETATM   14  C14 8UH D3621     -40.505 138.549  10.239  1.00 19.73     0.007 C 
HETATM   15  C15 8UH D3621     -39.776 137.454   9.603  1.00 19.24     0.001 C 
HETATM   16  C16 8UH D3621     -48.436 146.056  11.352  1.00 23.73     0.020 C 
HETATM   17  C17 8UH D3621     -47.779 144.066  12.680  1.00 23.42     0.020 C 
HETATM   18  C18 8UH D3621     -44.331 147.452  13.594  1.00 22.78     0.044 C 
HETATM   19  C19 8UH D3621     -43.603 144.424   9.183  1.00 16.12     0.048 C 
HETATM   20  C20 8UH D3621     -40.686 140.070   8.225  1.00 17.75     0.048 C 
HETATM   21  O3  8UH D3621     -48.818 147.980  15.305  1.00 21.52    -0.395 OA
ATOM     22  H3  8UH D3621     -48.433 148.455  16.032  1.00  0.00     0.210 HD
HETATM   23  C21 8UH D3621     -33.298 126.417   6.800  1.00 38.90    -0.018 C 
HETATM   24  C22 8UH D3621     -33.985 125.896   5.540  1.00 38.90     0.045 C 
HETATM   25  C23 8UH D3621     -33.868 126.792   4.310  1.00 38.90     0.123 C 
HETATM   26  C24 8UH D3621     -32.677 127.721   4.446  1.00 38.90     0.066 C 
HETATM   27  C25 8UH D3621     -32.948 128.558   5.662  1.00 38.90    -0.074 C 
HETATM   28  C26 8UH D3621     -33.147 127.920   6.819  1.00 38.90    -0.048 C 
HETATM   29  C27 8UH D3621     -33.445 128.660   8.058  1.00 38.90     0.009 C 
HETATM   30  C28 8UH D3621     -34.382 129.591   7.890  1.00 38.90     0.007 C 
HETATM   31  C29 8UH D3621     -35.004 130.343   9.032  1.00 21.21    -0.062 C 
HETATM   32  C30 8UH D3621     -35.908 131.305   8.732  1.00 20.08     0.007 C 
HETATM   33  C31 8UH D3621     -36.607 132.146   9.678  1.00 17.89     0.001 C 
HETATM   34  C32 8UH D3621     -37.337 133.226   9.308  1.00 17.64     0.007 C 
HETATM   35  C33 8UH D3621     -38.050 134.194  10.177  1.00 17.45    -0.062 C 
HETATM   36  C34 8UH D3621     -38.621 135.274   9.591  1.00 15.95     0.007 C 
HETATM   37  C35 8UH D3621     -39.325 136.363  10.251  1.00 18.41     0.001 C 
HETATM   38  C36 8UH D3621     -31.880 125.850   6.859  1.00 38.90     0.020 C 
HETATM   39  C37 8UH D3621     -34.069 125.973   8.036  1.00 38.90     0.020 C 
HETATM   40  C38 8UH D3621     -32.452 129.982   5.571  1.00 38.90     0.044 C 
HETATM   41  C39 8UH D3621     -34.529 130.047  10.430  1.00 22.05     0.048 C 
HETATM   42  C40 8UH D3621     -38.025 133.945  11.664  1.00 11.49     0.048 C 
HETATM   43  O23 8UH D3621     -33.700 125.994   3.135  1.00 38.90    -0.395 OA
ATOM     44  H23 8UH D3621     -34.447 125.413   3.050  1.00  0.00     0.210 HD
ENDROOT
TORSDOF 12
BEGIN_RES PHE A  61
REMARK  2 active torsions:
REMARK  status: ('A' for Active; 'I' for Inactive)
REMARK    1  A    between atoms: CA   and  CB  
REMARK    2  A    between atoms: CB   and  CG  
ROOT
ATOM      1  CA  PHE A  61     -36.237 128.293  12.768  1.00 39.40     0.164 C 
ENDROOT
BRANCH   1   2
ATOM      2  CB  PHE A  61     -36.813 128.951  11.509  1.00 39.41     0.058 C 
BRANCH   2   3
ATOM      3  CG  PHE A  61     -36.971 128.017  10.333  1.00 39.01    -0.020 A 
ATOM      4  CD2 PHE A  61     -37.921 128.260   9.354  1.00 40.32    -0.004 A 
ATOM      5  CE2 PHE A  61     -38.068 127.398   8.275  1.00 40.20    -0.000 A 
ATOM      6  CZ  PHE A  61     -37.265 126.286   8.160  1.00 40.34    -0.000 A 
ATOM      7  CE1 PHE A  61     -36.315 126.031   9.124  1.00 41.51    -0.000 A 
ATOM      8  CD1 PHE A  61     -36.172 126.889  10.207  1.00 39.94    -0.004 A 
ENDBRANCH   2   3
ENDBRANCH   1   2
END_RES PHE A  61
BEGIN_RES VAL A 134
REMARK  1 active torsions:
REMARK  status: ('A' for Active; 'I' for Inactive)
REMARK    3  A    between atoms: CA   and  CB  
ROOT
ATOM      9  CA  VAL A 134     -29.766 132.051   9.815  1.00 40.75     0.159 C 
ENDROOT
BRANCH   9  10
ATOM     10  CB  VAL A 134     -30.864 132.765   9.009  1.00 40.76     0.029 C 
ATOM     11  CG1 VAL A 134     -31.165 132.010   7.723  1.00 41.76     0.002 C 
ATOM     12  CG2 VAL A 134     -32.129 132.957   9.831  1.00 40.56     0.002 C 
ENDBRANCH   9  10
END_RES VAL A 134
BEGIN_RES TYR A 338
REMARK  3 active torsions:
REMARK  status: ('A' for Active; 'I' for Inactive)
REMARK    4  A    between atoms: CA   and  CB  
REMARK    5  A    between atoms: CB   and  CG  
REMARK    6  A    between atoms: CZ   and  OH  
ROOT
ATOM     13  CA  TYR A 338     -41.631 124.950   6.058  1.00 38.23     0.164 C 
ENDROOT
BRANCH  13  14
ATOM     14  CB  TYR A 338     -41.621 126.456   6.339  1.00 39.15     0.058 C 
BRANCH  14  15
ATOM     15  CG  TYR A 338     -40.402 127.206   5.854  1.00 39.03    -0.020 A 
ATOM     16  CD2 TYR A 338     -39.429 126.557   5.112  1.00 40.65    -0.002 A 
ATOM     17  CE2 TYR A 338     -38.291 127.210   4.664  1.00 40.91     0.024 A 
ATOM     18  CZ  TYR A 338     -38.106 128.547   4.960  1.00 42.33     0.089 A 
ATOM     19  CE1 TYR A 338     -39.066 129.219   5.695  1.00 40.63     0.024 A 
ATOM     20  CD1 TYR A 338     -40.191 128.545   6.145  1.00 39.27    -0.002 A 
BRANCH  18  21
ATOM     21  OH  TYR A 338     -36.989 129.202   4.519  1.00 43.36    -0.359 OA
ATOM     22  HH  TYR A 338     -36.722 130.020   4.921  1.00  0.00     0.217 HD
ENDBRANCH  18  21
ENDBRANCH  14  15
ENDBRANCH  13  14
END_RES TYR A 338
ENDMDL
MODEL 2
REMARK VINA RESULT:    -7.808      1.861      2.964
REMARK INTER + INTRA:         -11.811
REMARK INTER:                  -9.704
REMARK INTRA:                  -2.107
REMARK UNBOUND:                -4.004
REMARK  0 active torsions:
REMARK  status: ('A' for Active; 'I' for Inactive)
REMARK       I    between atoms: C3_3  and  O3_21 
REMARK       I    between atoms: C6_6  and  C7_7 
REMARK       I    between atoms: C8_8  and  C9_9 
REMARK       I    between atoms: C10_10  and  C11_11 
REMARK       I    between atoms: C12_12  and  C13_13 
REMARK       I    between atoms: C14_14  and  C15_15 
REMARK       I    between atoms: C23_25  and  O23_43 
REMARK       I    between atoms: C26_28  and  C27_29 
REMARK       I    between atoms: C28_30  and  C29_31 
REMARK       I    between atoms: C30_32  and  C31_33 
REMARK       I    between atoms: C32_34  and  C33_35 
REMARK       I    between atoms: C34_36  and  C35_37 
ROOT
HETATM    1  C1  8UH D3621     -46.767 148.125   9.774  1.00 23.41    -0.018 C 
HETATM    2  C2  8UH D3621     -48.186 148.714   9.860  1.00 23.79     0.045 C 
HETATM    3  C3  8UH D3621     -48.989 148.616  11.154  1.00 23.28     0.123 C 
HETATM    4  C4  8UH D3621     -48.133 148.355  12.404  1.00 23.70     0.066 C 
HETATM    5  C5  8UH D3621     -46.744 147.796  12.285  1.00 23.84    -0.074 C 
HETATM    6  C6  8UH D3621     -46.067 147.674  11.088  1.00 22.99    -0.048 C 
HETATM    7  C7  8UH D3621     -44.688 147.135  10.943  1.00 20.55     0.009 C 
HETATM    8  C8  8UH D3621     -44.374 145.822  10.909  1.00 19.35     0.007 C 
HETATM    9  C9  8UH D3621     -43.066 145.166  10.828  1.00 18.45    -0.062 C 
HETATM   10  C10 8UH D3621     -43.054 143.824  10.676  1.00 18.11     0.007 C 
HETATM   11  C11 8UH D3621     -41.904 142.986  10.486  1.00 18.44     0.001 C 
HETATM   12  C12 8UH D3621     -42.008 141.656  10.261  1.00 19.34     0.007 C 
HETATM   13  C13 8UH D3621     -40.894 140.739   9.956  1.00 20.12    -0.062 C 
HETATM   14  C14 8UH D3621     -41.176 139.434   9.727  1.00 19.73     0.007 C 
HETATM   15  C15 8UH D3621     -40.238 138.376   9.358  1.00 19.24     0.001 C 
HETATM   16  C16 8UH D3621     -45.996 149.277   9.119  1.00 23.73     0.020 C 
HETATM   17  C17 8UH D3621     -46.812 146.959   8.778  1.00 23.42     0.020 C 
HETATM   18  C18 8UH D3621     -46.241 147.447  13.638  1.00 22.78     0.044 C 
HETATM   19  C19 8UH D3621     -41.844 146.032  10.842  1.00 16.12     0.048 C 
HETATM   20  C20 8UH D3621     -39.515 141.336   9.894  1.00 17.75     0.048 C 
HETATM   21  O3  8UH D3621     -49.784 149.780  11.327  1.00 21.52    -0.395 OA
ATOM     22  H3  8UH D3621     -50.284 149.719  12.132  1.00  0.00     0.210 HD
HETATM   23  C21 8UH D3621     -34.403 127.083   6.184  1.00 38.90    -0.018 C 
HETATM   24  C22 8UH D3621     -33.558 127.435   4.962  1.00 38.90     0.045 C 
HETATM   25  C23 8UH D3621     -32.442 128.447   5.205  1.00 38.90     0.123 C 
HETATM   26  C24 8UH D3621     -32.074 128.482   6.677  1.00 38.90     0.066 C 
HETATM   27  C25 8UH D3621     -33.317 128.912   7.399  1.00 38.90    -0.074 C 
HETATM   28  C26 8UH D3621     -34.415 128.169   7.234  1.00 38.90    -0.048 C 
HETATM   29  C27 8UH D3621     -35.687 128.531   7.884  1.00 38.90     0.009 C 
HETATM   30  C28 8UH D3621     -35.990 129.820   7.744  1.00 38.90     0.007 C 
HETATM   31  C29 8UH D3621     -37.320 130.397   8.139  1.00 21.21    -0.062 C 
HETATM   32  C30 8UH D3621     -37.492 131.733   7.998  1.00 20.08     0.007 C 
HETATM   33  C31 8UH D3621     -38.682 132.481   8.331  1.00 17.89     0.001 C 
HETATM   34  C32 8UH D3621     -38.719 133.836   8.364  1.00 17.64     0.007 C 
HETATM   35  C33 8UH D3621     -39.853 134.714   8.741  1.00 17.45    -0.062 C 
HETATM   36  C34 8UH D3621     -39.626 136.048   8.818  1.00 15.95     0.007 C 
HETATM   37  C35 8UH D3621     -40.573 137.080   9.209  1.00 18.41     0.001 C 
HETATM   38  C36 8UH D3621     -33.805 125.850   6.859  1.00 38.90     0.020 C 
HETATM   39  C37 8UH D3621     -35.834 126.779   5.759  1.00 38.90     0.020 C 
HETATM   40  C38 8UH D3621     -33.074 129.782   8.610  1.00 38.90     0.044 C 
HETATM   41  C39 8UH D3621     -38.349 129.479   8.745  1.00 22.05     0.048 C 
HETATM   42  C40 8UH D3621     -41.164 134.052   9.085  1.00 11.49     0.048 C 
HETATM   43  O23 8UH D3621     -31.283 128.092   4.447  1.00 38.90    -0.395 OA
ATOM     44  H23 8UH D3621     -31.513 128.070   3.526  1.00  0.00     0.210 HD
ENDROOT
TORSDOF 12
BEGIN_RES PHE A  61
REMARK  2 active torsions:
REMARK  status: ('A' for Active; 'I' for Inactive)
REMARK    1  A    between atoms: CA   and  CB  
REMARK    2  A    between atoms: CB   and  CG  
ROOT
ATOM      1  CA  PHE A  61     -36.237 128.293  12.768  1.00 39.40     0.164 C 
ENDROOT
BRANCH   1   2
ATOM      2  CB  PHE A  61     -36.813 128.951  11.509  1.00 39.41     0.058 C 
BRANCH   2   3
ATOM      3  CG  PHE A  61     -36.484 130.418  11.365  1.00 39.01    -0.020 A 
ATOM      4  CD2 PHE A  61     -37.417 131.391  11.686  1.00 40.32    -0.004 A 
ATOM      5  CE2 PHE A  61     -37.114 132.740  11.550  1.00 40.20    -0.000 A 
ATOM      6  CZ  PHE A  61     -35.875 133.131  11.097  1.00 40.34    -0.000 A 
ATOM      7  CE1 PHE A  61     -34.936 132.176  10.776  1.00 41.51    -0.000 A 
ATOM      8  CD1 PHE A  61     -35.241 130.827  10.905  1.00 39.94    -0.004 A 
ENDBRANCH   2   3
ENDBRANCH   1   2
END_RES PHE A  61
BEGIN_RES VAL A 134
REMARK  1 active torsions:
REMARK  status: ('A' for Active; 'I' for Inactive)
REMARK    3  A    between atoms: CA   and  CB  
ROOT
ATOM      9  CA  VAL A 134     -29.766 132.051   9.815  1.00 40.75     0.159 C 
ENDROOT
BRANCH   9  10
ATOM     10  CB  VAL A 134     -30.864 132.765   9.009  1.00 40.76     0.029 C 
ATOM     11  CG1 VAL A 134     -31.174 132.003   7.729  1.00 41.76     0.002 C 
ATOM     12  CG2 VAL A 134     -32.125 132.968   9.835  1.00 40.56     0.002 C 
ENDBRANCH   9  10
END_RES VAL A 134
BEGIN_RES TYR A 338
REMARK  3 active torsions:
REMARK  status: ('A' for Active; 'I' for Inactive)
REMARK    4  A    between atoms: CA   and  CB  
REMARK    5  A    between atoms: CB   and  CG  
REMARK    6  A    between atoms: CZ   and  OH  
ROOT
ATOM     13  CA  TYR A 338     -41.631 124.950   6.058  1.00 38.23     0.164 C 
ENDROOT
BRANCH  13  14
ATOM     14  CB  TYR A 338     -41.621 126.456   6.339  1.00 39.15     0.058 C 
BRANCH  14  15
ATOM     15  CG  TYR A 338     -40.418 127.212   5.823  1.00 39.03    -0.020 A 
ATOM     16  CD2 TYR A 338     -40.265 128.560   6.100  1.00 40.65    -0.002 A 
ATOM     17  CE2 TYR A 338     -39.183 129.287   5.630  1.00 40.91     0.024 A 
ATOM     18  CZ  TYR A 338     -38.220 128.664   4.858  1.00 42.33     0.089 A 
ATOM     19  CE1 TYR A 338     -38.348 127.317   4.572  1.00 40.63     0.024 A 
ATOM     20  CD1 TYR A 338     -39.445 126.610   5.041  1.00 39.27    -0.002 A 
BRANCH  18  21
ATOM     21  OH  TYR A 338     -37.147 129.371   4.393  1.00 43.36    -0.359 OA
ATOM     22  HH  TYR A 338     -36.558 129.805   4.999  1.00  0.00     0.217 HD
ENDBRANCH  18  21
ENDBRANCH  14  15
ENDBRANCH  13  14
END_RES TYR A 338
ENDMDL
