MODEL 1
REMARK VINA RESULT:    -9.983      0.000      0.000
REMARK INTER + INTRA:         -12.903
REMARK INTER:                  -9.983
REMARK INTRA:                  -2.919
REMARK UNBOUND:                -2.919
REMARK  0 active torsions:
REMARK  status: ('A' for Active; 'I' for Inactive)
REMARK       I    between atoms: C3_3  and  O3_21 
REMARK       I    between atoms: C6_6  and  C7_7 
REMARK       I    between atoms: C8_8  and  C9_9 
REMARK       I    between atoms: C10_10  and  C11_11 
REMARK       I    between atoms: C12_12  and  C13_13 
REMARK       I    between atoms: C14_14  and  C15_15 
REMARK       I    between atoms: C23_25  and  O23_43 
REMARK       I    between atoms: C26_28  and  C27_29 
REMARK       I    between atoms: C28_30  and  C29_31 
REMARK       I    between atoms: C30_32  and  C31_33 
REMARK       I    between atoms: C32_34  and  C33_35 
REMARK       I    between atoms: C34_36  and  C35_37 
ROOT
HETATM    1  C1  8UH n1621     -34.427 127.003   6.319  1.00 51.52    -0.018 C 
HETATM    2  C2  8UH n1621     -34.056 126.417   4.964  1.00 51.52     0.045 C 
HETATM    3  C3  8UH n1621     -32.895 127.059   4.238  1.00 51.52     0.123 C 
HETATM    4  C4  8UH n1621     -31.798 127.391   5.220  1.00 51.52     0.066 C 
HETATM    5  C5  8UH n1621     -32.334 128.335   6.255  1.00 51.52    -0.074 C 
HETATM    6  C6  8UH n1621     -33.525 128.118   6.818  1.00 51.52    -0.048 C 
HETATM    7  C7  8UH n1621     -34.028 128.936   7.952  1.00 51.52     0.009 C 
HETATM    8  C8  8UH n1621     -34.637 130.110   7.770  1.00 51.52     0.007 C 
HETATM    9  C9  8UH n1621     -35.192 130.929   8.855  1.00 51.52    -0.062 C 
HETATM   10  C10 8UH n1621     -36.092 131.832   8.471  1.00 51.52     0.007 C 
HETATM   11  C11 8UH n1621     -36.833 132.744   9.327  1.00 51.52     0.001 C 
HETATM   12  C12 8UH n1621     -37.692 133.522   8.682  1.00 51.52     0.007 C 
HETATM   13  C13 8UH n1621     -38.572 134.472   9.370  1.00 51.52    -0.062 C 
HETATM   14  C14 8UH n1621     -39.391 135.235   8.634  1.00 51.52     0.007 C 
HETATM   15  C15 8UH n1621     -40.320 136.170   9.253  1.00 51.52     0.001 C 
HETATM   16  C16 8UH n1621     -34.491 125.856   7.316  1.00 51.52     0.020 C 
HETATM   17  C17 8UH n1621     -35.820 127.574   6.191  1.00 51.52     0.020 C 
HETATM   18  C18 8UH n1621     -31.345 129.316   6.801  1.00 51.52     0.044 C 
HETATM   19  C19 8UH n1621     -34.784 130.753  10.284  1.00 51.52     0.048 C 
HETATM   20  C20 8UH n1621     -38.577 134.538  10.867  1.00 51.52     0.048 C 
HETATM   21  O3  8UH n1621     -32.372 126.125   3.289  1.00 51.52    -0.395 OA
ATOM     22  H3  8UH n1621     -31.643 126.528   2.833  1.00  0.00     0.210 HD
HETATM   23  C21 8UH n1621     -49.809 144.870  10.285  1.00 22.61    -0.018 C 
HETATM   24  C22 8UH n1621     -50.796 145.411  11.336  1.00 23.33     0.045 C 
HETATM   25  C23 8UH n1621     -50.289 146.137  12.588  1.00 24.77     0.123 C 
HETATM   26  C24 8UH n1621     -48.778 146.418  12.639  1.00 22.10     0.066 C 
HETATM   27  C25 8UH n1621     -47.858 145.735  11.686  1.00 21.89    -0.074 C 
HETATM   28  C26 8UH n1621     -48.283 145.018  10.589  1.00 21.83    -0.048 C 
HETATM   29  C27 8UH n1621     -47.374 144.346   9.633  1.00 21.27     0.009 C 
HETATM   30  C28 8UH n1621     -46.787 143.146   9.846  1.00 20.16     0.007 C 
HETATM   31  C29 8UH n1621     -45.895 142.452   8.956  1.00 51.52    -0.062 C 
HETATM   32  C30 8UH n1621     -45.489 141.224   9.297  1.00 51.52     0.007 C 
HETATM   33  C31 8UH n1621     -44.589 140.396   8.504  1.00 51.52     0.001 C 
HETATM   34  C32 8UH n1621     -43.759 139.593   9.167  1.00 51.52     0.007 C 
HETATM   35  C33 8UH n1621     -42.811 138.710   8.470  1.00 51.52    -0.062 C 
HETATM   36  C34 8UH n1621     -41.991 137.907   9.163  1.00 51.52     0.007 C 
HETATM   37  C35 8UH n1621     -41.048 137.001   8.510  1.00 51.52     0.001 C 
HETATM   38  C36 8UH n1621     -50.184 145.648   9.016  1.00 21.21     0.020 C 
HETATM   39  C37 8UH n1621     -50.176 143.392  10.034  1.00 21.56     0.020 C 
HETATM   40  C38 8UH n1621     -46.469 146.007  12.119  1.00 21.82     0.044 C 
HETATM   41  C39 8UH n1621     -45.448 143.117   7.690  1.00 51.52     0.048 C 
HETATM   42  C40 8UH n1621     -42.793 138.729   6.983  1.00 51.52     0.048 C 
HETATM   43  O23 8UH n1621     -51.022 147.341  12.792  1.00 25.40    -0.395 OA
ATOM     44  H23 8UH n1621     -50.708 147.791  13.567  1.00  0.00     0.210 HD
ENDROOT
TORSDOF 12
BEGIN_RES PHE A  61
REMARK  2 active torsions:
REMARK  status: ('A' for Active; 'I' for Inactive)
REMARK    1  A    between atoms: CA   and  CB  
REMARK    2  A    between atoms: CB   and  CG  
ROOT
ATOM      1  CA  PHE A  61     -36.237 128.293  12.768  1.00 39.40     0.164 C 
ENDROOT
BRANCH   1   2
ATOM      2  CB  PHE A  61     -36.813 128.951  11.509  1.00 39.41     0.058 C 
BRANCH   2   3
ATOM      3  CG  PHE A  61     -37.050 128.000  10.360  1.00 39.01    -0.020 A 
ATOM      4  CD2 PHE A  61     -36.327 126.822  10.251  1.00 40.32    -0.004 A 
ATOM      5  CE2 PHE A  61     -36.543 125.950   9.192  1.00 40.20    -0.000 A 
ATOM      6  CZ  PHE A  61     -37.486 126.242   8.233  1.00 40.34    -0.000 A 
ATOM      7  CE1 PHE A  61     -38.214 127.407   8.329  1.00 41.51    -0.000 A 
ATOM      8  CD1 PHE A  61     -37.994 128.283   9.384  1.00 39.94    -0.004 A 
ENDBRANCH   2   3
ENDBRANCH   1   2
END_RES PHE A  61
BEGIN_RES VAL A 134
REMARK  1 active torsions:
REMARK  status: ('A' for Active; 'I' for Inactive)
REMARK    3  A    between atoms: CA   and  CB  
ROOT
ATOM      9  CA  VAL A 134     -29.766 132.051   9.815  1.00 40.75     0.159 C 
ENDROOT
BRANCH   9  10
ATOM     10  CB  VAL A 134     -30.864 132.765   9.009  1.00 40.76     0.029 C 
ATOM     11  CG1 VAL A 134     -31.179 131.999   7.732  1.00 41.76     0.002 C 
ATOM     12  CG2 VAL A 134     -32.122 132.974   9.838  1.00 40.56     0.002 C 
ENDBRANCH   9  10
END_RES VAL A 134
BEGIN_RES TYR A 338
REMARK  3 active torsions:
REMARK  status: ('A' for Active; 'I' for Inactive)
REMARK    4  A    between atoms: CA   and  CB  
REMARK    5  A    between atoms: CB   and  CG  
REMARK    6  A    between atoms: CZ   and  OH  
ROOT
ATOM     13  CA  TYR A 338     -41.631 124.950   6.058  1.00 38.23     0.164 C 
ENDROOT
BRANCH  13  14
ATOM     14  CB  TYR A 338     -41.621 126.456   6.339  1.00 39.15     0.058 C 
BRANCH  14  15
ATOM     15  CG  TYR A 338     -40.424 127.214   5.812  1.00 39.03    -0.020 A 
ATOM     16  CD2 TYR A 338     -40.253 128.553   6.117  1.00 40.65    -0.002 A 
ATOM     17  CE2 TYR A 338     -39.176 129.283   5.638  1.00 40.91     0.024 A 
ATOM     18  CZ  TYR A 338     -38.237 128.671   4.830  1.00 42.33     0.089 A 
ATOM     19  CE1 TYR A 338     -38.384 127.331   4.515  1.00 40.63     0.024 A 
ATOM     20  CD1 TYR A 338     -39.475 126.622   4.993  1.00 39.27    -0.002 A 
BRANCH  18  21
ATOM     21  OH  TYR A 338     -37.169 129.379   4.355  1.00 43.36    -0.359 OA
ATOM     22  HH  TYR A 338     -36.282 129.102   4.554  1.00  0.00     0.217 HD
ENDBRANCH  18  21
ENDBRANCH  14  15
ENDBRANCH  13  14
END_RES TYR A 338
ENDMDL
MODEL 2
REMARK VINA RESULT:    -7.305      1.437     16.886
REMARK INTER + INTRA:         -10.225
REMARK INTER:                  -9.723
REMARK INTRA:                  -0.502
REMARK UNBOUND:                -2.919
REMARK  0 active torsions:
REMARK  status: ('A' for Active; 'I' for Inactive)
REMARK       I    between atoms: C3_3  and  O3_21 
REMARK       I    between atoms: C6_6  and  C7_7 
REMARK       I    between atoms: C8_8  and  C9_9 
REMARK       I    between atoms: C10_10  and  C11_11 
REMARK       I    between atoms: C12_12  and  C13_13 
REMARK       I    between atoms: C14_14  and  C15_15 
REMARK       I    between atoms: C23_25  and  O23_43 
REMARK       I    between atoms: C26_28  and  C27_29 
REMARK       I    between atoms: C28_30  and  C29_31 
REMARK       I    between atoms: C30_32  and  C31_33 
REMARK       I    between atoms: C32_34  and  C33_35 
REMARK       I    between atoms: C34_36  and  C35_37 
ROOT
HETATM    1  C1  8UH n1621     -49.604 145.918  11.665  1.00 51.52    -0.018 C 
HETATM    2  C2  8UH n1621     -50.587 145.977  12.825  1.00 51.52     0.045 C 
HETATM    3  C3  8UH n1621     -50.095 146.613  14.106  1.00 51.52     0.123 C 
HETATM    4  C4  8UH n1621     -49.262 147.831  13.784  1.00 51.52     0.066 C 
HETATM    5  C5  8UH n1621     -48.093 147.418  12.939  1.00 51.52    -0.074 C 
HETATM    6  C6  8UH n1621     -48.262 146.584  11.911  1.00 51.52    -0.048 C 
HETATM    7  C7  8UH n1621     -47.167 146.269  10.957  1.00 51.52     0.009 C 
HETATM    8  C8  8UH n1621     -46.249 145.332  11.208  1.00 51.52     0.007 C 
HETATM    9  C9  8UH n1621     -45.179 144.954  10.277  1.00 51.52    -0.062 C 
HETATM   10  C10 8UH n1621     -44.628 143.764  10.510  1.00 51.52     0.007 C 
HETATM   11  C11 8UH n1621     -43.585 143.118   9.730  1.00 51.52     0.001 C 
HETATM   12  C12 8UH n1621     -43.239 141.915  10.172  1.00 51.52     0.007 C 
HETATM   13  C13 8UH n1621     -42.245 141.078   9.492  1.00 51.52    -0.062 C 
HETATM   14  C14 8UH n1621     -41.941 139.886  10.024  1.00 51.52     0.007 C 
HETATM   15  C15 8UH n1621     -40.993 138.987   9.382  1.00 51.52     0.001 C 
HETATM   16  C16 8UH n1621     -50.295 146.501  10.442  1.00 51.52     0.020 C 
HETATM   17  C17 8UH n1621     -49.336 144.457  11.383  1.00 51.52     0.020 C 
HETATM   18  C18 8UH n1621     -46.844 148.216  13.141  1.00 51.52     0.044 C 
HETATM   19  C19 8UH n1621     -44.750 145.834   9.146  1.00 51.52     0.048 C 
HETATM   20  C20 8UH n1621     -41.630 141.540   8.206  1.00 51.52     0.048 C 
HETATM   21  O3  8UH n1621     -51.224 147.038  14.873  1.00 51.52    -0.395 OA
ATOM     22  H3  8UH n1621     -50.914 147.438  15.677  1.00  0.00     0.210 HD
HETATM   23  C21 8UH n1621     -34.054 128.319   7.182  1.00 22.61    -0.018 C 
HETATM   24  C22 8UH n1621     -33.316 127.617   6.028  1.00 23.33     0.045 C 
HETATM   25  C23 8UH n1621     -32.111 128.278   5.349  1.00 24.77     0.123 C 
HETATM   26  C24 8UH n1621     -31.609 129.583   5.990  1.00 22.10     0.066 C 
HETATM   27  C25 8UH n1621     -32.451 130.296   6.991  1.00 21.89    -0.074 C 
HETATM   28  C26 8UH n1621     -33.577 129.756   7.570  1.00 21.83    -0.048 C 
HETATM   29  C27 8UH n1621     -34.412 130.455   8.574  1.00 21.27     0.009 C 
HETATM   30  C28 8UH n1621     -35.346 131.389   8.279  1.00 20.16     0.007 C 
HETATM   31  C29 8UH n1621     -36.178 132.101   9.212  1.00 51.52    -0.062 C 
HETATM   32  C30 8UH n1621     -37.117 132.920   8.725  1.00 51.52     0.007 C 
HETATM   33  C31 8UH n1621     -38.035 133.708   9.538  1.00 51.52     0.001 C 
HETATM   34  C32 8UH n1621     -38.401 134.897   9.063  1.00 51.52     0.007 C 
HETATM   35  C33 8UH n1621     -39.327 135.773   9.795  1.00 51.52    -0.062 C 
HETATM   36  C34 8UH n1621     -39.684 136.964   9.290  1.00 51.52     0.007 C 
HETATM   37  C35 8UH n1621     -40.616 137.857   9.976  1.00 51.52     0.001 C 
HETATM   38  C36 8UH n1621     -33.867 127.352   8.360  1.00 21.21     0.020 C 
HETATM   39  C37 8UH n1621     -35.557 128.317   6.831  1.00 21.56     0.020 C 
HETATM   40  C38 8UH n1621     -31.833 131.616   7.248  1.00 21.82     0.044 C 
HETATM   41  C39 8UH n1621     -35.971 131.910  10.682  1.00 51.52     0.048 C 
HETATM   42  C40 8UH n1621     -39.858 135.303  11.103  1.00 51.52     0.048 C 
HETATM   43  O23 8UH n1621     -31.042 127.346   5.223  1.00 25.40    -0.395 OA
ATOM     44  H23 8UH n1621     -30.295 127.756   4.803  1.00  0.00     0.210 HD
ENDROOT
TORSDOF 12
BEGIN_RES PHE A  61
REMARK  2 active torsions:
REMARK  status: ('A' for Active; 'I' for Inactive)
REMARK    1  A    between atoms: CA   and  CB  
REMARK    2  A    between atoms: CB   and  CG  
ROOT
ATOM      1  CA  PHE A  61     -36.237 128.293  12.768  1.00 39.40     0.164 C 
ENDROOT
BRANCH   1   2
ATOM      2  CB  PHE A  61     -36.813 128.951  11.509  1.00 39.41     0.058 C 
BRANCH   2   3
ATOM      3  CG  PHE A  61     -37.025 128.005  10.352  1.00 39.01    -0.020 A 
ATOM      4  CD2 PHE A  61     -36.274 126.846  10.233  1.00 40.32    -0.004 A 
ATOM      5  CE2 PHE A  61     -36.468 125.978   9.166  1.00 40.20    -0.000 A 
ATOM      6  CZ  PHE A  61     -37.417 126.256   8.209  1.00 40.34    -0.000 A 
ATOM      7  CE1 PHE A  61     -38.174 127.402   8.314  1.00 41.51    -0.000 A 
ATOM      8  CD1 PHE A  61     -37.976 128.273   9.377  1.00 39.94    -0.004 A 
ENDBRANCH   2   3
ENDBRANCH   1   2
END_RES PHE A  61
BEGIN_RES VAL A 134
REMARK  1 active torsions:
REMARK  status: ('A' for Active; 'I' for Inactive)
REMARK    3  A    between atoms: CA   and  CB  
ROOT
ATOM      9  CA  VAL A 134     -29.766 132.051   9.815  1.00 40.75     0.159 C 
ENDROOT
BRANCH   9  10
ATOM     10  CB  VAL A 134     -30.864 132.765   9.009  1.00 40.76     0.029 C 
ATOM     11  CG1 VAL A 134     -32.118 132.948   9.852  1.00 41.76     0.002 C 
ATOM     12  CG2 VAL A 134     -30.381 134.100   8.462  1.00 40.56     0.002 C 
ENDBRANCH   9  10
END_RES VAL A 134
BEGIN_RES TYR A 338
REMARK  3 active torsions:
REMARK  status: ('A' for Active; 'I' for Inactive)
REMARK    4  A    between atoms: CA   and  CB  
REMARK    5  A    between atoms: CB   and  CG  
REMARK    6  A    between atoms: CZ   and  OH  
ROOT
ATOM     13  CA  TYR A 338     -41.631 124.950   6.058  1.00 38.23     0.164 C 
ENDROOT
BRANCH  13  14
ATOM     14  CB  TYR A 338     -41.621 126.456   6.339  1.00 39.15     0.058 C 
BRANCH  14  15
ATOM     15  CG  TYR A 338     -40.413 127.210   5.832  1.00 39.03    -0.020 A 
ATOM     16  CD2 TYR A 338     -40.260 128.557   6.111  1.00 40.65    -0.002 A 
ATOM     17  CE2 TYR A 338     -39.174 129.284   5.649  1.00 40.91     0.024 A 
ATOM     18  CZ  TYR A 338     -38.206 128.659   4.884  1.00 42.33     0.089 A 
ATOM     19  CE1 TYR A 338     -38.334 127.312   4.596  1.00 40.63     0.024 A 
ATOM     20  CD1 TYR A 338     -39.435 126.607   5.057  1.00 39.27    -0.002 A 
BRANCH  18  21
ATOM     21  OH  TYR A 338     -37.128 129.365   4.427  1.00 43.36    -0.359 OA
ATOM     22  HH  TYR A 338     -36.418 128.920   3.978  1.00  0.00     0.217 HD
ENDBRANCH  18  21
ENDBRANCH  14  15
ENDBRANCH  13  14
END_RES TYR A 338
ENDMDL
