MODEL 1
REMARK VINA RESULT:   -11.469      0.000      0.000
REMARK INTER + INTRA:         -14.175
REMARK INTER:                 -11.469
REMARK INTRA:                  -2.706
REMARK UNBOUND:                -2.706
REMARK  0 active torsions:
REMARK  status: ('A' for Active; 'I' for Inactive)
REMARK       I    between atoms: C3_3  and  O3_21 
REMARK       I    between atoms: C6_6  and  C7_7 
REMARK       I    between atoms: C8_8  and  C9_9 
REMARK       I    between atoms: C10_10  and  C11_11 
REMARK       I    between atoms: C12_12  and  C13_13 
REMARK       I    between atoms: C14_14  and  C15_15 
REMARK       I    between atoms: C23_25  and  O23_43 
REMARK       I    between atoms: C26_28  and  C27_29 
REMARK       I    between atoms: C28_30  and  C29_31 
REMARK       I    between atoms: C30_32  and  C31_33 
REMARK       I    between atoms: C32_34  and  C33_35 
REMARK       I    between atoms: C34_36  and  C35_37 
ROOT
HETATM    1  C1  8UH V1621     -49.227 144.797  10.773  1.00 16.22    -0.018 C 
HETATM    2  C2  8UH V1621     -49.664 144.817  12.221  1.00 16.22     0.045 C 
HETATM    3  C3  8UH V1621     -48.668 145.420  13.167  1.00 16.22     0.123 C 
HETATM    4  C4  8UH V1621     -48.157 146.677  12.517  1.00 16.22     0.066 C 
HETATM    5  C5  8UH V1621     -47.334 146.214  11.359  1.00 16.22    -0.074 C 
HETATM    6  C6  8UH V1621     -47.869 145.365  10.486  1.00 16.22    -0.048 C 
HETATM    7  C7  8UH V1621     -47.123 144.753   9.378  1.00 16.22     0.009 C 
HETATM    8  C8  8UH V1621     -45.907 144.313   9.678  1.00 16.22     0.007 C 
HETATM    9  C9  8UH V1621     -45.187 143.461   8.715  1.00 16.22    -0.062 C 
HETATM   10  C10 8UH V1621     -44.293 142.597   9.213  1.00 16.22     0.007 C 
HETATM   11  C11 8UH V1621     -43.611 141.586   8.413  1.00 16.22     0.001 C 
HETATM   12  C12 8UH V1621     -42.882 140.656   9.020  1.00 16.22     0.007 C 
HETATM   13  C13 8UH V1621     -42.228 139.574   8.263  1.00 16.22    -0.062 C 
HETATM   14  C14 8UH V1621     -41.607 138.607   8.957  1.00 16.22     0.007 C 
HETATM   15  C15 8UH V1621     -40.931 137.466   8.345  1.00 16.22     0.001 C 
HETATM   16  C16 8UH V1621     -50.172 145.680   9.977  1.00 16.22     0.020 C 
HETATM   17  C17 8UH V1621     -49.301 143.362  10.334  1.00 16.22     0.020 C 
HETATM   18  C18 8UH V1621     -46.146 147.063  11.050  1.00 16.22     0.044 C 
HETATM   19  C19 8UH V1621     -45.541 143.511   7.257  1.00 16.22     0.048 C 
HETATM   20  C20 8UH V1621     -42.310 139.596   6.768  1.00 16.22     0.048 C 
HETATM   21  O3  8UH V1621     -49.373 145.693  14.373  1.00 16.22    -0.395 OA
ATOM     22  H3  8UH V1621     -48.741 146.076  14.972  1.00  0.00     0.210 HD
HETATM   23  C21 8UH V1621     -34.266 126.819   6.523  1.00 94.67    -0.018 C 
HETATM   24  C22 8UH V1621     -33.882 126.139   5.215  1.00 94.67     0.045 C 
HETATM   25  C23 8UH V1621     -33.062 126.960   4.242  1.00 94.67     0.123 C 
HETATM   26  C24 8UH V1621     -31.977 127.678   4.999  1.00 94.67     0.066 C 
HETATM   27  C25 8UH V1621     -32.590 128.584   6.021  1.00 94.67    -0.074 C 
HETATM   28  C26 8UH V1621     -33.643 128.185   6.736  1.00 94.67    -0.048 C 
HETATM   29  C27 8UH V1621     -34.234 129.064   7.774  1.00 94.67     0.009 C 
HETATM   30  C28 8UH V1621     -35.185 129.945   7.473  1.00 94.67     0.007 C 
HETATM   31  C29 8UH V1621     -35.808 130.816   8.468  1.00 16.22    -0.062 C 
HETATM   32  C30 8UH V1621     -36.787 131.631   8.046  1.00 16.22     0.007 C 
HETATM   33  C31 8UH V1621     -37.488 132.581   8.896  1.00 16.22     0.001 C 
HETATM   34  C32 8UH V1621     -38.315 133.455   8.340  1.00 16.22     0.007 C 
HETATM   35  C33 8UH V1621     -38.987 134.488   9.143  1.00 16.22    -0.062 C 
HETATM   36  C34 8UH V1621     -39.669 135.437   8.484  1.00 16.22     0.007 C 
HETATM   37  C35 8UH V1621     -40.350 136.562   9.114  1.00 16.22     0.001 C 
HETATM   38  C36 8UH V1621     -33.866 125.850   7.632  1.00 94.67     0.020 C 
HETATM   39  C37 8UH V1621     -35.775 127.011   6.516  1.00 94.67     0.020 C 
HETATM   40  C38 8UH V1621     -31.920 129.912   6.220  1.00 94.67     0.044 C 
HETATM   41  C39 8UH V1621     -35.349 130.706   9.886  1.00 16.22     0.048 C 
HETATM   42  C40 8UH V1621     -38.836 134.448  10.632  1.00 16.22     0.048 C 
HETATM   43  O23 8UH V1621     -32.442 126.076   3.309  1.00 94.67    -0.395 OA
ATOM     44  H23 8UH V1621     -31.928 126.591   2.699  1.00  0.00     0.210 HD
ENDROOT
TORSDOF 12
BEGIN_RES PHE A  61
REMARK  2 active torsions:
REMARK  status: ('A' for Active; 'I' for Inactive)
REMARK    1  A    between atoms: CA   and  CB  
REMARK    2  A    between atoms: CB   and  CG  
ROOT
ATOM      1  CA  PHE A  61     -36.237 128.293  12.768  1.00 39.40     0.164 C 
ENDROOT
BRANCH   1   2
ATOM      2  CB  PHE A  61     -36.813 128.951  11.509  1.00 39.41     0.058 C 
BRANCH   2   3
ATOM      3  CG  PHE A  61     -37.072 127.996  10.368  1.00 39.01    -0.020 A 
ATOM      4  CD2 PHE A  61     -36.327 126.835  10.229  1.00 40.32    -0.004 A 
ATOM      5  CE2 PHE A  61     -36.564 125.959   9.178  1.00 40.20    -0.000 A 
ATOM      6  CZ  PHE A  61     -37.549 126.231   8.256  1.00 40.34    -0.000 A 
ATOM      7  CE1 PHE A  61     -38.299 127.379   8.381  1.00 41.51    -0.000 A 
ATOM      8  CD1 PHE A  61     -38.058 128.259   9.429  1.00 39.94    -0.004 A 
ENDBRANCH   2   3
ENDBRANCH   1   2
END_RES PHE A  61
BEGIN_RES VAL A 134
REMARK  1 active torsions:
REMARK  status: ('A' for Active; 'I' for Inactive)
REMARK    3  A    between atoms: CA   and  CB  
ROOT
ATOM      9  CA  VAL A 134     -29.766 132.051   9.815  1.00 40.75     0.159 C 
ENDROOT
BRANCH   9  10
ATOM     10  CB  VAL A 134     -30.864 132.765   9.009  1.00 40.76     0.029 C 
ATOM     11  CG1 VAL A 134     -30.863 132.293   7.563  1.00 41.76     0.002 C 
ATOM     12  CG2 VAL A 134     -32.236 132.575   9.639  1.00 40.56     0.002 C 
ENDBRANCH   9  10
END_RES VAL A 134
BEGIN_RES TYR A 338
REMARK  3 active torsions:
REMARK  status: ('A' for Active; 'I' for Inactive)
REMARK    4  A    between atoms: CA   and  CB  
REMARK    5  A    between atoms: CB   and  CG  
REMARK    6  A    between atoms: CZ   and  OH  
ROOT
ATOM     13  CA  TYR A 338     -41.631 124.950   6.058  1.00 38.23     0.164 C 
ENDROOT
BRANCH  13  14
ATOM     14  CB  TYR A 338     -41.621 126.456   6.339  1.00 39.15     0.058 C 
BRANCH  14  15
ATOM     15  CG  TYR A 338     -40.400 127.205   5.857  1.00 39.03    -0.020 A 
ATOM     16  CD2 TYR A 338     -40.224 128.540   6.181  1.00 40.65    -0.002 A 
ATOM     17  CE2 TYR A 338     -39.124 129.262   5.743  1.00 40.91     0.024 A 
ATOM     18  CZ  TYR A 338     -38.167 128.646   4.958  1.00 42.33     0.089 A 
ATOM     19  CE1 TYR A 338     -38.319 127.312   4.625  1.00 40.63     0.024 A 
ATOM     20  CD1 TYR A 338     -39.432 126.611   5.062  1.00 39.27    -0.002 A 
BRANCH  18  21
ATOM     21  OH  TYR A 338     -37.077 129.347   4.524  1.00 43.36    -0.359 OA
ATOM     22  HH  TYR A 338     -36.626 129.090   3.729  1.00  0.00     0.217 HD
ENDBRANCH  18  21
ENDBRANCH  14  15
ENDBRANCH  13  14
END_RES TYR A 338
ENDMDL
MODEL 2
REMARK VINA RESULT:   -10.026      0.768     16.548
REMARK INTER + INTRA:         -12.732
REMARK INTER:                 -10.230
REMARK INTRA:                  -2.502
REMARK UNBOUND:                -2.706
REMARK  0 active torsions:
REMARK  status: ('A' for Active; 'I' for Inactive)
REMARK       I    between atoms: C3_3  and  O3_21 
REMARK       I    between atoms: C6_6  and  C7_7 
REMARK       I    between atoms: C8_8  and  C9_9 
REMARK       I    between atoms: C10_10  and  C11_11 
REMARK       I    between atoms: C12_12  and  C13_13 
REMARK       I    between atoms: C14_14  and  C15_15 
REMARK       I    between atoms: C23_25  and  O23_43 
REMARK       I    between atoms: C26_28  and  C27_29 
REMARK       I    between atoms: C28_30  and  C29_31 
REMARK       I    between atoms: C30_32  and  C31_33 
REMARK       I    between atoms: C32_34  and  C33_35 
REMARK       I    between atoms: C34_36  and  C35_37 
ROOT
HETATM    1  C1  8UH V1621     -34.193 127.040   6.730  1.00 16.22    -0.018 C 
HETATM    2  C2  8UH V1621     -34.001 126.790   5.250  1.00 16.22     0.045 C 
HETATM    3  C3  8UH V1621     -33.082 127.758   4.565  1.00 16.22     0.123 C 
HETATM    4  C4  8UH V1621     -31.885 127.929   5.462  1.00 16.22     0.066 C 
HETATM    5  C5  8UH V1621     -32.389 128.678   6.653  1.00 16.22    -0.074 C 
HETATM    6  C6  8UH V1621     -33.455 128.215   7.301  1.00 16.22    -0.048 C 
HETATM    7  C7  8UH V1621     -34.109 128.923   8.410  1.00 16.22     0.009 C 
HETATM    8  C8  8UH V1621     -34.274 130.230   8.239  1.00 16.22     0.007 C 
HETATM    9  C9  8UH V1621     -35.140 130.977   9.168  1.00 16.22    -0.062 C 
HETATM   10  C10 8UH V1621     -35.738 132.078   8.692  1.00 16.22     0.007 C 
HETATM   11  C11 8UH V1621     -36.737 132.840   9.432  1.00 16.22     0.001 C 
HETATM   12  C12 8UH V1621     -37.409 133.806   8.816  1.00 16.22     0.007 C 
HETATM   13  C13 8UH V1621     -38.474 134.561   9.500  1.00 16.22    -0.062 C 
HETATM   14  C14 8UH V1621     -39.187 135.439   8.777  1.00 16.22     0.007 C 
HETATM   15  C15 8UH V1621     -40.281 136.244   9.313  1.00 16.22     0.001 C 
HETATM   16  C16 8UH V1621     -33.635 125.850   7.491  1.00 16.22     0.020 C 
HETATM   17  C17 8UH V1621     -35.672 127.194   6.939  1.00 16.22     0.020 C 
HETATM   18  C18 8UH V1621     -31.413 129.629   7.260  1.00 16.22     0.044 C 
HETATM   19  C19 8UH V1621     -35.402 130.443  10.545  1.00 16.22     0.048 C 
HETATM   20  C20 8UH V1621     -38.723 134.292  10.951  1.00 16.22     0.048 C 
HETATM   21  O3  8UH V1621     -32.733 127.168   3.319  1.00 16.22    -0.395 OA
ATOM     22  H3  8UH V1621     -32.150 127.781   2.885  1.00  0.00     0.210 HD
HETATM   23  C21 8UH V1621     -49.764 144.586  10.573  1.00 94.67    -0.018 C 
HETATM   24  C22 8UH V1621     -50.580 144.931  11.812  1.00 94.67     0.045 C 
HETATM   25  C23 8UH V1621     -49.809 145.448  13.007  1.00 94.67     0.123 C 
HETATM   26  C24 8UH V1621     -48.795 146.456  12.538  1.00 94.67     0.066 C 
HETATM   27  C25 8UH V1621     -47.847 145.809  11.577  1.00 94.67    -0.074 C 
HETATM   28  C26 8UH V1621     -48.295 144.951  10.658  1.00 94.67    -0.048 C 
HETATM   29  C27 8UH V1621     -47.367 144.333   9.680  1.00 94.67     0.009 C 
HETATM   30  C28 8UH V1621     -46.729 143.198   9.957  1.00 94.67     0.007 C 
HETATM   31  C29 8UH V1621     -45.822 142.544   9.014  1.00 16.22    -0.062 C 
HETATM   32  C30 8UH V1621     -45.273 141.381   9.396  1.00 16.22     0.007 C 
HETATM   33  C31 8UH V1621     -44.328 140.618   8.595  1.00 16.22     0.001 C 
HETATM   34  C32 8UH V1621     -43.718 139.573   9.137  1.00 16.22     0.007 C 
HETATM   35  C33 8UH V1621     -42.696 138.817   8.399  1.00 16.22    -0.062 C 
HETATM   36  C34 8UH V1621     -42.006 137.887   9.076  1.00 16.22     0.007 C 
HETATM   37  C35 8UH V1621     -40.925 137.081   8.520  1.00 16.22     0.001 C 
HETATM   38  C36 8UH V1621     -50.445 145.301   9.410  1.00 94.67     0.020 C 
HETATM   39  C37 8UH V1621     -49.841 143.079  10.376  1.00 94.67     0.020 C 
HETATM   40  C38 8UH V1621     -46.410 146.226  11.677  1.00 94.67     0.044 C 
HETATM   41  C39 8UH V1621     -45.607 143.188   7.683  1.00 16.22     0.048 C 
HETATM   42  C40 8UH V1621     -42.454 139.156   6.961  1.00 16.22     0.048 C 
HETATM   43  O23 8UH V1621     -50.718 146.108  13.887  1.00 94.67    -0.395 OA
ATOM     44  H23 8UH V1621     -50.234 146.433  14.637  1.00  0.00     0.210 HD
ENDROOT
TORSDOF 12
BEGIN_RES PHE A  61
REMARK  2 active torsions:
REMARK  status: ('A' for Active; 'I' for Inactive)
REMARK    1  A    between atoms: CA   and  CB  
REMARK    2  A    between atoms: CB   and  CG  
ROOT
ATOM      1  CA  PHE A  61     -36.237 128.293  12.768  1.00 39.40     0.164 C 
ENDROOT
BRANCH   1   2
ATOM      2  CB  PHE A  61     -36.813 128.951  11.509  1.00 39.41     0.058 C 
BRANCH   2   3
ATOM      3  CG  PHE A  61     -37.101 127.991  10.379  1.00 39.01    -0.020 A 
ATOM      4  CD2 PHE A  61     -36.389 126.809  10.251  1.00 40.32    -0.004 A 
ATOM      5  CE2 PHE A  61     -36.653 125.928   9.210  1.00 40.20    -0.000 A 
ATOM      6  CZ  PHE A  61     -37.633 126.218   8.288  1.00 40.34    -0.000 A 
ATOM      7  CE1 PHE A  61     -38.351 127.388   8.402  1.00 41.51    -0.000 A 
ATOM      8  CD1 PHE A  61     -38.083 128.271   9.440  1.00 39.94    -0.004 A 
ENDBRANCH   2   3
ENDBRANCH   1   2
END_RES PHE A  61
BEGIN_RES VAL A 134
REMARK  1 active torsions:
REMARK  status: ('A' for Active; 'I' for Inactive)
REMARK    3  A    between atoms: CA   and  CB  
ROOT
ATOM      9  CA  VAL A 134     -29.766 132.051   9.815  1.00 40.75     0.159 C 
ENDROOT
BRANCH   9  10
ATOM     10  CB  VAL A 134     -30.864 132.765   9.009  1.00 40.76     0.029 C 
ATOM     11  CG1 VAL A 134     -31.024 132.128   7.636  1.00 41.76     0.002 C 
ATOM     12  CG2 VAL A 134     -32.189 132.779   9.756  1.00 40.56     0.002 C 
ENDBRANCH   9  10
END_RES VAL A 134
BEGIN_RES TYR A 338
REMARK  3 active torsions:
REMARK  status: ('A' for Active; 'I' for Inactive)
REMARK    4  A    between atoms: CA   and  CB  
REMARK    5  A    between atoms: CB   and  CG  
REMARK    6  A    between atoms: CZ   and  OH  
ROOT
ATOM     13  CA  TYR A 338     -41.631 124.950   6.058  1.00 38.23     0.164 C 
ENDROOT
BRANCH  13  14
ATOM     14  CB  TYR A 338     -41.621 126.456   6.339  1.00 39.15     0.058 C 
BRANCH  14  15
ATOM     15  CG  TYR A 338     -40.400 127.205   5.858  1.00 39.03    -0.020 A 
ATOM     16  CD2 TYR A 338     -40.231 128.543   6.169  1.00 40.65    -0.002 A 
ATOM     17  CE2 TYR A 338     -39.131 129.265   5.732  1.00 40.91     0.024 A 
ATOM     18  CZ  TYR A 338     -38.166 128.646   4.960  1.00 42.33     0.089 A 
ATOM     19  CE1 TYR A 338     -38.310 127.307   4.639  1.00 40.63     0.024 A 
ATOM     20  CD1 TYR A 338     -39.424 126.607   5.076  1.00 39.27    -0.002 A 
BRANCH  18  21
ATOM     21  OH  TYR A 338     -37.076 129.347   4.526  1.00 43.36    -0.359 OA
ATOM     22  HH  TYR A 338     -37.025 129.648   3.627  1.00  0.00     0.217 HD
ENDBRANCH  18  21
ENDBRANCH  14  15
ENDBRANCH  13  14
END_RES TYR A 338
ENDMDL
