MODEL 1
REMARK VINA RESULT:    -9.472      0.000      0.000
REMARK INTER + INTRA:         -11.931
REMARK INTER:                  -9.472
REMARK INTRA:                  -2.459
REMARK UNBOUND:                -2.459
REMARK  0 active torsions:
REMARK  status: ('A' for Active; 'I' for Inactive)
REMARK       I    between atoms: C3_3  and  O3_21 
REMARK       I    between atoms: C6_6  and  C7_7 
REMARK       I    between atoms: C8_8  and  C9_9 
REMARK       I    between atoms: C10_10  and  C11_11 
REMARK       I    between atoms: C12_12  and  C13_13 
REMARK       I    between atoms: C14_14  and  C15_15 
REMARK       I    between atoms: C23_25  and  O23_43 
REMARK       I    between atoms: C26_28  and  C27_29 
REMARK       I    between atoms: C28_30  and  C29_31 
REMARK       I    between atoms: C30_32  and  C31_33 
REMARK       I    between atoms: C32_34  and  C33_35 
REMARK       I    between atoms: C34_36  and  C35_37 
ROOT
HETATM    1  C1  8UH 1 316     -34.433 126.945   6.382  1.00 73.24    -0.018 C 
HETATM    2  C2  8UH 1 316     -33.996 126.347   5.043  1.00 72.84     0.045 C 
HETATM    3  C3  8UH 1 316     -32.919 127.102   4.274  1.00 72.53     0.123 C 
HETATM    4  C4  8UH 1 316     -31.841 127.586   5.225  1.00 72.61     0.066 C 
HETATM    5  C5  8UH 1 316     -32.463 128.473   6.271  1.00 72.68    -0.074 C 
HETATM    6  C6  8UH 1 316     -33.614 128.135   6.853  1.00 72.79    -0.048 C 
HETATM    7  C7  8UH 1 316     -34.123 128.941   7.989  1.00 71.90     0.009 C 
HETATM    8  C8  8UH 1 316     -34.822 130.058   7.767  1.00 71.51     0.007 C 
HETATM    9  C9  8UH 1 316     -35.359 130.899   8.858  1.00 70.48    -0.062 C 
HETATM   10  C10 8UH 1 316     -36.099 131.968   8.523  1.00 69.46     0.007 C 
HETATM   11  C11 8UH 1 316     -36.704 132.892   9.480  1.00 69.85     0.001 C 
HETATM   12  C12 8UH 1 316     -37.433 133.881   8.965  1.00 72.15     0.007 C 
HETATM   13  C13 8UH 1 316     -38.139 134.906   9.765  1.00 73.74    -0.062 C 
HETATM   14  C14 8UH 1 316     -39.035 135.685   9.132  1.00 74.04     0.007 C 
HETATM   15  C15 8UH 1 316     -39.820 136.717   9.807  1.00 74.62     0.001 C 
HETATM   16  C16 8UH 1 316     -34.344 125.850   7.438  1.00 72.68     0.020 C 
HETATM   17  C17 8UH 1 316     -35.880 127.402   6.251  1.00 73.05     0.020 C 
HETATM   18  C18 8UH 1 316     -31.588 129.539   6.867  1.00 72.13     0.044 C 
HETATM   19  C19 8UH 1 316     -35.076 130.569  10.294  1.00 70.45     0.048 C 
HETATM   20  C20 8UH 1 316     -37.861 135.071  11.233  1.00 72.89     0.048 C 
HETATM   21  O3  8UH 1 316     -32.330 126.231   3.298  1.00 71.04    -0.395 OA
ATOM     22  H3  8UH 1 316     -33.006 125.928   2.702  1.00  0.00     0.210 HD
HETATM   23  C21 8UH 1 316     -49.514 144.829  12.040  1.00 20.77    -0.018 C 
HETATM   24  C22 8UH 1 316     -50.122 145.481  13.292  1.00 19.21     0.045 C 
HETATM   25  C23 8UH 1 316     -49.463 146.707  13.920  1.00 20.68     0.123 C 
HETATM   26  C24 8UH 1 316     -48.176 147.193  13.243  1.00 17.77     0.066 C 
HETATM   27  C25 8UH 1 316     -47.509 146.388  12.175  1.00 19.05    -0.074 C 
HETATM   28  C26 8UH 1 316     -48.090 145.282  11.584  1.00 19.48    -0.048 C 
HETATM   29  C27 8UH 1 316     -47.455 144.447  10.528  1.00 16.56     0.009 C 
HETATM   30  C28 8UH 1 316     -46.520 143.485  10.746  1.00 15.55     0.007 C 
HETATM   31  C29 8UH 1 316     -45.841 142.673   9.763  1.00 94.72    -0.062 C 
HETATM   32  C30 8UH 1 316     -44.954 141.756  10.170  1.00 91.32     0.007 C 
HETATM   33  C31 8UH 1 316     -44.227 140.867   9.267  1.00 87.88     0.001 C 
HETATM   34  C32 8UH 1 316     -43.299 140.093   9.822  1.00 84.19     0.007 C 
HETATM   35  C33 8UH 1 316     -42.485 139.114   9.080  1.00 80.79    -0.062 C 
HETATM   36  C34 8UH 1 316     -41.544 138.424   9.750  1.00 78.84     0.007 C 
HETATM   37  C35 8UH 1 316     -40.716 137.410   9.101  1.00 76.79     0.001 C 
HETATM   38  C36 8UH 1 316     -50.546 145.139  10.928  1.00 20.67     0.020 C 
HETATM   39  C37 8UH 1 316     -49.543 143.307  12.301  1.00 19.98     0.020 C 
HETATM   40  C38 8UH 1 316     -46.177 146.990  11.888  1.00 17.40     0.044 C 
HETATM   41  C39 8UH 1 316     -46.151 142.861   8.309  1.00 95.37     0.048 C 
HETATM   42  C40 8UH 1 316     -42.726 138.881   7.618  1.00 90.13     0.048 C 
HETATM   43  O23 8UH 1 316     -50.401 147.774  14.034  1.00 20.33    -0.395 OA
ATOM     44  H23 8UH 1 316     -51.198 147.474  14.454  1.00  0.00     0.210 HD
ENDROOT
TORSDOF 12
BEGIN_RES PHE A  61
REMARK  2 active torsions:
REMARK  status: ('A' for Active; 'I' for Inactive)
REMARK    1  A    between atoms: CA   and  CB  
REMARK    2  A    between atoms: CB   and  CG  
ROOT
ATOM      1  CA  PHE A  61     -36.237 128.293  12.768  1.00 39.40     0.164 C 
ENDROOT
BRANCH   1   2
ATOM      2  CB  PHE A  61     -36.813 128.951  11.509  1.00 39.41     0.058 C 
BRANCH   2   3
ATOM      3  CG  PHE A  61     -37.077 127.995  10.371  1.00 39.01    -0.020 A 
ATOM      4  CD2 PHE A  61     -36.365 126.812  10.255  1.00 40.32    -0.004 A 
ATOM      5  CE2 PHE A  61     -36.607 125.935   9.205  1.00 40.20    -0.000 A 
ATOM      6  CZ  PHE A  61     -37.566 126.228   8.262  1.00 40.34    -0.000 A 
ATOM      7  CE1 PHE A  61     -38.284 127.399   8.365  1.00 41.51    -0.000 A 
ATOM      8  CD1 PHE A  61     -38.038 128.279   9.410  1.00 39.94    -0.004 A 
ENDBRANCH   2   3
ENDBRANCH   1   2
END_RES PHE A  61
BEGIN_RES VAL A 134
REMARK  1 active torsions:
REMARK  status: ('A' for Active; 'I' for Inactive)
REMARK    3  A    between atoms: CA   and  CB  
ROOT
ATOM      9  CA  VAL A 134     -29.766 132.051   9.815  1.00 40.75     0.159 C 
ENDROOT
BRANCH   9  10
ATOM     10  CB  VAL A 134     -30.864 132.765   9.009  1.00 40.76     0.029 C 
ATOM     11  CG1 VAL A 134     -30.946 132.204   7.597  1.00 41.76     0.002 C 
ATOM     12  CG2 VAL A 134     -32.215 132.681   9.703  1.00 40.56     0.002 C 
ENDBRANCH   9  10
END_RES VAL A 134
BEGIN_RES TYR A 338
REMARK  3 active torsions:
REMARK  status: ('A' for Active; 'I' for Inactive)
REMARK    4  A    between atoms: CA   and  CB  
REMARK    5  A    between atoms: CB   and  CG  
REMARK    6  A    between atoms: CZ   and  OH  
ROOT
ATOM     13  CA  TYR A 338     -41.631 124.950   6.058  1.00 38.23     0.164 C 
ENDROOT
BRANCH  13  14
ATOM     14  CB  TYR A 338     -41.621 126.456   6.339  1.00 39.15     0.058 C 
BRANCH  14  15
ATOM     15  CG  TYR A 338     -40.423 127.213   5.815  1.00 39.03    -0.020 A 
ATOM     16  CD2 TYR A 338     -40.244 128.549   6.132  1.00 40.65    -0.002 A 
ATOM     17  CE2 TYR A 338     -39.166 129.279   5.656  1.00 40.91     0.024 A 
ATOM     18  CZ  TYR A 338     -38.232 128.669   4.839  1.00 42.33     0.089 A 
ATOM     19  CE1 TYR A 338     -38.386 127.333   4.512  1.00 40.63     0.024 A 
ATOM     20  CD1 TYR A 338     -39.479 126.625   4.987  1.00 39.27    -0.002 A 
BRANCH  18  21
ATOM     21  OH  TYR A 338     -37.162 129.377   4.367  1.00 43.36    -0.359 OA
ATOM     22  HH  TYR A 338     -37.236 130.311   4.210  1.00  0.00     0.217 HD
ENDBRANCH  18  21
ENDBRANCH  14  15
ENDBRANCH  13  14
END_RES TYR A 338
ENDMDL
MODEL 2
REMARK VINA RESULT:    -7.924      1.146     16.958
REMARK INTER + INTRA:         -10.384
REMARK INTER:                 -10.056
REMARK INTRA:                  -0.327
REMARK UNBOUND:                -2.459
REMARK  0 active torsions:
REMARK  status: ('A' for Active; 'I' for Inactive)
REMARK       I    between atoms: C3_3  and  O3_21 
REMARK       I    between atoms: C6_6  and  C7_7 
REMARK       I    between atoms: C8_8  and  C9_9 
REMARK       I    between atoms: C10_10  and  C11_11 
REMARK       I    between atoms: C12_12  and  C13_13 
REMARK       I    between atoms: C14_14  and  C15_15 
REMARK       I    between atoms: C23_25  and  O23_43 
REMARK       I    between atoms: C26_28  and  C27_29 
REMARK       I    between atoms: C28_30  and  C29_31 
REMARK       I    between atoms: C30_32  and  C31_33 
REMARK       I    between atoms: C32_34  and  C33_35 
REMARK       I    between atoms: C34_36  and  C35_37 
ROOT
HETATM    1  C1  8UH 1 316     -50.363 145.549  11.139  1.00 73.24    -0.018 C 
HETATM    2  C2  8UH 1 316     -51.122 145.987  12.395  1.00 72.84     0.045 C 
HETATM    3  C3  8UH 1 316     -50.371 146.884  13.370  1.00 72.53     0.123 C 
HETATM    4  C4  8UH 1 316     -49.580 147.933  12.612  1.00 72.61     0.066 C 
HETATM    5  C5  8UH 1 316     -48.618 147.250  11.677  1.00 72.68    -0.074 C 
HETATM    6  C6  8UH 1 316     -49.006 146.203  10.947  1.00 72.79    -0.048 C 
HETATM    7  C7  8UH 1 316     -48.091 145.649   9.919  1.00 71.90     0.009 C 
HETATM    8  C8  8UH 1 316     -47.140 144.775  10.260  1.00 71.51     0.007 C 
HETATM    9  C9  8UH 1 316     -46.203 144.185   9.281  1.00 70.48    -0.062 C 
HETATM   10  C10 8UH 1 316     -45.325 143.271   9.720  1.00 69.46     0.007 C 
HETATM   11  C11 8UH 1 316     -44.340 142.593   8.880  1.00 69.85     0.001 C 
HETATM   12  C12 8UH 1 316     -43.570 141.689   9.485  1.00 72.15     0.007 C 
HETATM   13  C13 8UH 1 316     -42.529 140.887   8.806  1.00 73.74    -0.062 C 
HETATM   14  C14 8UH 1 316     -42.008 139.843   9.477  1.00 74.04     0.007 C 
HETATM   15  C15 8UH 1 316     -40.993 138.954   8.915  1.00 74.62     0.001 C 
HETATM   16  C16 8UH 1 316     -51.231 145.871   9.928  1.00 72.68     0.020 C 
HETATM   17  C17 8UH 1 316     -50.145 144.043  11.215  1.00 73.05     0.020 C 
HETATM   18  C18 8UH 1 316     -47.351 147.986  11.346  1.00 72.13     0.044 C 
HETATM   19  C19 8UH 1 316     -46.230 144.606   7.841  1.00 70.45     0.048 C 
HETATM   20  C20 8UH 1 316     -42.070 141.229   7.416  1.00 72.89     0.048 C 
HETATM   21  O3  8UH 1 316     -51.310 147.536  14.237  1.00 71.04    -0.395 OA
ATOM     22  H3  8UH 1 316     -51.805 146.879  14.712  1.00  0.00     0.210 HD
HETATM   23  C21 8UH 1 316     -34.056 128.290   7.203  1.00 20.77    -0.018 C 
HETATM   24  C22 8UH 1 316     -33.283 127.670   6.028  1.00 19.21     0.045 C 
HETATM   25  C23 8UH 1 316     -31.886 128.171   5.673  1.00 20.68     0.123 C 
HETATM   26  C24 8UH 1 316     -31.352 129.323   6.533  1.00 17.77     0.066 C 
HETATM   27  C25 8UH 1 316     -32.231 130.037   7.508  1.00 19.05    -0.074 C 
HETATM   28  C26 8UH 1 316     -33.495 129.596   7.853  1.00 19.48    -0.048 C 
HETATM   29  C27 8UH 1 316     -34.406 130.283   8.808  1.00 16.56     0.009 C 
HETATM   30  C28 8UH 1 316     -35.174 131.368   8.518  1.00 15.55     0.007 C 
HETATM   31  C29 8UH 1 316     -36.044 132.099   9.410  1.00 94.72    -0.062 C 
HETATM   32  C30 8UH 1 316     -36.740 133.140   8.937  1.00 91.32     0.007 C 
HETATM   33  C31 8UH 1 316     -37.664 133.937   9.741  1.00 87.88     0.001 C 
HETATM   34  C32 8UH 1 316     -38.190 135.006   9.150  1.00 84.19     0.007 C 
HETATM   35  C33 8UH 1 316     -39.161 135.911   9.789  1.00 80.79    -0.062 C 
HETATM   36  C34 8UH 1 316     -39.583 136.988   9.100  1.00 78.84     0.007 C 
HETATM   37  C35 8UH 1 316     -40.569 137.919   9.643  1.00 76.79     0.001 C 
HETATM   38  C36 8UH 1 316     -34.095 127.154   8.255  1.00 20.67     0.020 C 
HETATM   39  C37 8UH 1 316     -35.496 128.512   6.693  1.00 19.98     0.020 C 
HETATM   40  C38 8UH 1 316     -31.509 131.240   8.008  1.00 17.40     0.044 C 
HETATM   41  C39 8UH 1 316     -36.161 131.672  10.842  1.00 95.37     0.048 C 
HETATM   42  C40 8UH 1 316     -39.680 135.617  11.165  1.00 90.13     0.048 C 
HETATM   43  O23 8UH 1 316     -30.958 127.090   5.654  1.00 20.33    -0.395 OA
ATOM     44  H23 8UH 1 316     -31.288 126.377   5.121  1.00  0.00     0.210 HD
ENDROOT
TORSDOF 12
BEGIN_RES PHE A  61
REMARK  2 active torsions:
REMARK  status: ('A' for Active; 'I' for Inactive)
REMARK    1  A    between atoms: CA   and  CB  
REMARK    2  A    between atoms: CB   and  CG  
ROOT
ATOM      1  CA  PHE A  61     -36.237 128.293  12.768  1.00 39.40     0.164 C 
ENDROOT
BRANCH   1   2
ATOM      2  CB  PHE A  61     -36.813 128.951  11.509  1.00 39.41     0.058 C 
BRANCH   2   3
ATOM      3  CG  PHE A  61     -37.030 128.004  10.353  1.00 39.01    -0.020 A 
ATOM      4  CD2 PHE A  61     -36.297 126.832  10.247  1.00 40.32    -0.004 A 
ATOM      5  CE2 PHE A  61     -36.496 125.963   9.181  1.00 40.20    -0.000 A 
ATOM      6  CZ  PHE A  61     -37.430 126.253   8.213  1.00 40.34    -0.000 A 
ATOM      7  CE1 PHE A  61     -38.167 127.413   8.306  1.00 41.51    -0.000 A 
ATOM      8  CD1 PHE A  61     -37.965 128.285   9.367  1.00 39.94    -0.004 A 
ENDBRANCH   2   3
ENDBRANCH   1   2
END_RES PHE A  61
BEGIN_RES VAL A 134
REMARK  1 active torsions:
REMARK  status: ('A' for Active; 'I' for Inactive)
REMARK    3  A    between atoms: CA   and  CB  
ROOT
ATOM      9  CA  VAL A 134     -29.766 132.051   9.815  1.00 40.75     0.159 C 
ENDROOT
BRANCH   9  10
ATOM     10  CB  VAL A 134     -30.864 132.765   9.009  1.00 40.76     0.029 C 
ATOM     11  CG1 VAL A 134     -32.105 132.980   9.863  1.00 41.76     0.002 C 
ATOM     12  CG2 VAL A 134     -30.370 134.083   8.433  1.00 40.56     0.002 C 
ENDBRANCH   9  10
END_RES VAL A 134
BEGIN_RES TYR A 338
REMARK  3 active torsions:
REMARK  status: ('A' for Active; 'I' for Inactive)
REMARK    4  A    between atoms: CA   and  CB  
REMARK    5  A    between atoms: CB   and  CG  
REMARK    6  A    between atoms: CZ   and  OH  
ROOT
ATOM     13  CA  TYR A 338     -41.631 124.950   6.058  1.00 38.23     0.164 C 
ENDROOT
BRANCH  13  14
ATOM     14  CB  TYR A 338     -41.621 126.456   6.339  1.00 39.15     0.058 C 
BRANCH  14  15
ATOM     15  CG  TYR A 338     -40.419 127.212   5.822  1.00 39.03    -0.020 A 
ATOM     16  CD2 TYR A 338     -40.266 128.560   6.098  1.00 40.65    -0.002 A 
ATOM     17  CE2 TYR A 338     -39.185 129.288   5.628  1.00 40.91     0.024 A 
ATOM     18  CZ  TYR A 338     -38.222 128.665   4.857  1.00 42.33     0.089 A 
ATOM     19  CE1 TYR A 338     -38.349 127.317   4.571  1.00 40.63     0.024 A 
ATOM     20  CD1 TYR A 338     -39.445 126.610   5.040  1.00 39.27    -0.002 A 
BRANCH  18  21
ATOM     21  OH  TYR A 338     -37.148 129.371   4.390  1.00 43.36    -0.359 OA
ATOM     22  HH  TYR A 338     -37.271 130.226   3.993  1.00  0.00     0.217 HD
ENDBRANCH  18  21
ENDBRANCH  14  15
ENDBRANCH  13  14
END_RES TYR A 338
ENDMDL
