MODEL 1
REMARK VINA RESULT:   -12.272      0.000      0.000
REMARK INTER + INTRA:         -15.109
REMARK INTER:                 -12.272
REMARK INTRA:                  -2.837
REMARK UNBOUND:                -2.837
REMARK  0 active torsions:
REMARK  status: ('A' for Active; 'I' for Inactive)
REMARK       I    between atoms: C3_3  and  O3_21 
REMARK       I    between atoms: C6_6  and  C7_7 
REMARK       I    between atoms: C8_8  and  C9_9 
REMARK       I    between atoms: C10_10  and  C11_11 
REMARK       I    between atoms: C12_12  and  C13_13 
REMARK       I    between atoms: C14_14  and  C15_15 
REMARK       I    between atoms: C23_25  and  O23_43 
REMARK       I    between atoms: C26_28  and  C27_29 
REMARK       I    between atoms: C28_30  and  C29_31 
REMARK       I    between atoms: C30_32  and  C31_33 
REMARK       I    between atoms: C32_34  and  C33_35 
REMARK       I    between atoms: C34_36  and  C35_37 
ROOT
HETATM    1  C1  8UH Y1621     -47.824 145.424  12.557  1.00 26.19    -0.018 C 
HETATM    2  C2  8UH Y1621     -48.634 145.980  13.721  1.00 26.65     0.045 C 
HETATM    3  C3  8UH Y1621     -47.877 146.734  14.796  1.00 28.07     0.123 C 
HETATM    4  C4  8UH Y1621     -46.788 147.594  14.209  1.00 30.07     0.066 C 
HETATM    5  C5  8UH Y1621     -45.874 146.733  13.397  1.00 28.83    -0.074 C 
HETATM    6  C6  8UH Y1621     -46.375 145.884  12.495  1.00 27.49    -0.048 C 
HETATM    7  C7  8UH Y1621     -45.548 145.351  11.383  1.00 29.45     0.009 C 
HETATM    8  C8  8UH Y1621     -44.607 144.422  11.569  1.00 27.83     0.007 C 
HETATM    9  C9  8UH Y1621     -43.817 143.864  10.467  1.00 26.06    -0.062 C 
HETATM   10  C10 8UH Y1621     -43.163 142.739  10.743  1.00 25.01     0.007 C 
HETATM   11  C11 8UH Y1621     -42.372 141.991   9.791  1.00 25.09     0.001 C 
HETATM   12  C12 8UH Y1621     -41.841 140.885  10.275  1.00 26.01     0.007 C 
HETATM   13  C13 8UH Y1621     -41.067 139.947   9.461  1.00 26.36    -0.062 C 
HETATM   14  C14 8UH Y1621     -40.661 138.814  10.041  1.00 27.67     0.007 C 
HETATM   15  C15 8UH Y1621     -39.922 137.811   9.293  1.00 28.38     0.001 C 
HETATM   16  C16 8UH Y1621     -48.578 145.855  11.312  1.00 26.46     0.020 C 
HETATM   17  C17 8UH Y1621     -47.810 143.905  12.645  1.00 26.61     0.020 C 
HETATM   18  C18 8UH Y1621     -44.645 147.547  13.162  1.00 29.43     0.044 C 
HETATM   19  C19 8UH Y1621     -43.770 144.511   9.120  1.00 26.07     0.048 C 
HETATM   20  C20 8UH Y1621     -40.802 140.233   8.015  1.00 25.83     0.048 C 
HETATM   21  O3  8UH Y1621     -48.792 147.569  15.501  1.00 27.44    -0.395 OA
ATOM     22  H3  8UH Y1621     -49.478 147.027  15.872  1.00  0.00     0.210 HD
HETATM   23  C21 8UH Y1621     -34.280 126.920   6.515  1.00 94.67    -0.018 C 
HETATM   24  C22 8UH Y1621     -33.999 126.317   5.145  1.00 94.67     0.045 C 
HETATM   25  C23 8UH Y1621     -33.177 127.159   4.192  1.00 94.67     0.123 C 
HETATM   26  C24 8UH Y1621     -32.017 127.755   4.941  1.00 94.67     0.066 C 
HETATM   27  C25 8UH Y1621     -32.523 128.617   6.054  1.00 94.67    -0.074 C 
HETATM   28  C26 8UH Y1621     -33.564 128.229   6.793  1.00 94.67    -0.048 C 
HETATM   29  C27 8UH Y1621     -34.046 129.059   7.923  1.00 94.67     0.009 C 
HETATM   30  C28 8UH Y1621     -34.955 130.013   7.737  1.00 94.67     0.007 C 
HETATM   31  C29 8UH Y1621     -35.470 130.838   8.821  1.00 29.73    -0.062 C 
HETATM   32  C30 8UH Y1621     -36.532 131.583   8.534  1.00 28.64     0.007 C 
HETATM   33  C31 8UH Y1621     -37.178 132.470   9.479  1.00 27.79     0.001 C 
HETATM   34  C32 8UH Y1621     -37.700 133.560   8.944  1.00 27.11     0.007 C 
HETATM   35  C33 8UH Y1621     -38.397 134.567   9.740  1.00 25.78    -0.062 C 
HETATM   36  C34 8UH Y1621     -38.854 135.672   9.147  1.00 26.10     0.007 C 
HETATM   37  C35 8UH Y1621     -39.571 136.689   9.900  1.00 27.22     0.001 C 
HETATM   38  C36 8UH Y1621     -33.889 125.851   7.530  1.00 94.67     0.020 C 
HETATM   39  C37 8UH Y1621     -35.772 127.198   6.600  1.00 94.67     0.020 C 
HETATM   40  C38 8UH Y1621     -31.765 129.885   6.312  1.00 94.67     0.044 C 
HETATM   41  C39 8UH Y1621     -34.827 130.820  10.167  1.00 32.37     0.048 C 
HETATM   42  C40 8UH Y1621     -38.589 134.330  11.194  1.00 25.14     0.048 C 
HETATM   43  O23 8UH Y1621     -32.658 126.311   3.166  1.00 94.67    -0.395 OA
ATOM     44  H23 8UH Y1621     -32.142 126.839   2.568  1.00  0.00     0.210 HD
ENDROOT
TORSDOF 12
BEGIN_RES PHE A  61
REMARK  2 active torsions:
REMARK  status: ('A' for Active; 'I' for Inactive)
REMARK    1  A    between atoms: CA   and  CB  
REMARK    2  A    between atoms: CB   and  CG  
ROOT
ATOM      1  CA  PHE A  61     -36.237 128.293  12.768  1.00 39.40     0.164 C 
ENDROOT
BRANCH   1   2
ATOM      2  CB  PHE A  61     -36.813 128.951  11.509  1.00 39.41     0.058 C 
BRANCH   2   3
ATOM      3  CG  PHE A  61     -37.071 127.996  10.368  1.00 39.01    -0.020 A 
ATOM      4  CD2 PHE A  61     -36.344 126.822  10.245  1.00 40.32    -0.004 A 
ATOM      5  CE2 PHE A  61     -36.581 125.946   9.193  1.00 40.20    -0.000 A 
ATOM      6  CZ  PHE A  61     -37.547 126.231   8.256  1.00 40.34    -0.000 A 
ATOM      7  CE1 PHE A  61     -38.279 127.393   8.365  1.00 41.51    -0.000 A 
ATOM      8  CD1 PHE A  61     -38.039 128.272   9.413  1.00 39.94    -0.004 A 
ENDBRANCH   2   3
ENDBRANCH   1   2
END_RES PHE A  61
BEGIN_RES VAL A 134
REMARK  1 active torsions:
REMARK  status: ('A' for Active; 'I' for Inactive)
REMARK    3  A    between atoms: CA   and  CB  
ROOT
ATOM      9  CA  VAL A 134     -29.766 132.051   9.815  1.00 40.75     0.159 C 
ENDROOT
BRANCH   9  10
ATOM     10  CB  VAL A 134     -30.864 132.765   9.009  1.00 40.76     0.029 C 
ATOM     11  CG1 VAL A 134     -31.180 131.998   7.733  1.00 41.76     0.002 C 
ATOM     12  CG2 VAL A 134     -32.122 132.976   9.838  1.00 40.56     0.002 C 
ENDBRANCH   9  10
END_RES VAL A 134
BEGIN_RES TYR A 338
REMARK  3 active torsions:
REMARK  status: ('A' for Active; 'I' for Inactive)
REMARK    4  A    between atoms: CA   and  CB  
REMARK    5  A    between atoms: CB   and  CG  
REMARK    6  A    between atoms: CZ   and  OH  
ROOT
ATOM     13  CA  TYR A 338     -41.631 124.950   6.058  1.00 38.23     0.164 C 
ENDROOT
BRANCH  13  14
ATOM     14  CB  TYR A 338     -41.621 126.456   6.339  1.00 39.15     0.058 C 
BRANCH  14  15
ATOM     15  CG  TYR A 338     -40.414 127.210   5.830  1.00 39.03    -0.020 A 
ATOM     16  CD2 TYR A 338     -40.237 128.546   6.149  1.00 40.65    -0.002 A 
ATOM     17  CE2 TYR A 338     -39.150 129.273   5.687  1.00 40.91     0.024 A 
ATOM     18  CZ  TYR A 338     -38.208 128.661   4.883  1.00 42.33     0.089 A 
ATOM     19  CE1 TYR A 338     -38.360 127.325   4.554  1.00 40.63     0.024 A 
ATOM     20  CD1 TYR A 338     -39.461 126.620   5.015  1.00 39.27    -0.002 A 
BRANCH  18  21
ATOM     21  OH  TYR A 338     -37.130 129.366   4.425  1.00 43.36    -0.359 OA
ATOM     22  HH  TYR A 338     -36.359 129.474   4.970  1.00  0.00     0.217 HD
ENDBRANCH  18  21
ENDBRANCH  14  15
ENDBRANCH  13  14
END_RES TYR A 338
ENDMDL
MODEL 2
REMARK VINA RESULT:   -11.278      1.181      1.470
REMARK INTER + INTRA:         -14.116
REMARK INTER:                 -10.925
REMARK INTRA:                  -3.191
REMARK UNBOUND:                -2.837
REMARK  0 active torsions:
REMARK  status: ('A' for Active; 'I' for Inactive)
REMARK       I    between atoms: C3_3  and  O3_21 
REMARK       I    between atoms: C6_6  and  C7_7 
REMARK       I    between atoms: C8_8  and  C9_9 
REMARK       I    between atoms: C10_10  and  C11_11 
REMARK       I    between atoms: C12_12  and  C13_13 
REMARK       I    between atoms: C14_14  and  C15_15 
REMARK       I    between atoms: C23_25  and  O23_43 
REMARK       I    between atoms: C26_28  and  C27_29 
REMARK       I    between atoms: C28_30  and  C29_31 
REMARK       I    between atoms: C30_32  and  C31_33 
REMARK       I    between atoms: C32_34  and  C33_35 
REMARK       I    between atoms: C34_36  and  C35_37 
ROOT
HETATM    1  C1  8UH Y1621     -49.261 144.627  10.946  1.00 26.19    -0.018 C 
HETATM    2  C2  8UH Y1621     -50.127 145.206  12.058  1.00 26.65     0.045 C 
HETATM    3  C3  8UH Y1621     -49.443 146.099  13.075  1.00 28.07     0.123 C 
HETATM    4  C4  8UH Y1621     -48.417 146.993  12.429  1.00 30.07     0.066 C 
HETATM    5  C5  8UH Y1621     -47.430 146.146  11.694  1.00 28.83    -0.074 C 
HETATM    6  C6  8UH Y1621     -47.851 145.192  10.858  1.00 27.49    -0.048 C 
HETATM    7  C7  8UH Y1621     -46.972 144.640   9.797  1.00 29.45     0.009 C 
HETATM    8  C8  8UH Y1621     -45.965 143.805  10.061  1.00 27.83     0.007 C 
HETATM    9  C9  8UH Y1621     -45.120 143.227   9.011  1.00 26.06    -0.062 C 
HETATM   10  C10 8UH Y1621     -44.384 142.181   9.379  1.00 25.01     0.007 C 
HETATM   11  C11 8UH Y1621     -43.526 141.425   8.494  1.00 25.09     0.001 C 
HETATM   12  C12 8UH Y1621     -42.917 140.405   9.067  1.00 26.01     0.007 C 
HETATM   13  C13 8UH Y1621     -42.063 139.469   8.334  1.00 26.36    -0.062 C 
HETATM   14  C14 8UH Y1621     -41.578 138.421   9.004  1.00 27.67     0.007 C 
HETATM   15  C15 8UH Y1621     -40.754 137.423   8.342  1.00 28.38     0.001 C 
HETATM   16  C16 8UH Y1621     -50.030 144.899   9.666  1.00 26.46     0.020 C 
HETATM   17  C17 8UH Y1621     -49.131 143.125  11.153  1.00 26.61     0.020 C 
HETATM   18  C18 8UH Y1621     -46.264 147.032  11.403  1.00 29.43     0.044 C 
HETATM   19  C19 8UH Y1621     -45.106 143.768   7.618  1.00 26.07     0.048 C 
HETATM   20  C20 8UH Y1621     -41.802 139.662   6.872  1.00 25.83     0.048 C 
HETATM   21  O3  8UH Y1621     -50.429 146.912  13.707  1.00 27.44    -0.395 OA
ATOM     22  H3  8UH Y1621     -51.076 146.349  14.115  1.00  0.00     0.210 HD
HETATM   23  C21 8UH Y1621     -34.252 126.822   6.465  1.00 94.67    -0.018 C 
HETATM   24  C22 8UH Y1621     -33.909 126.139   5.148  1.00 94.67     0.045 C 
HETATM   25  C23 8UH Y1621     -33.142 126.965   4.137  1.00 94.67     0.123 C 
HETATM   26  C24 8UH Y1621     -32.041 127.706   4.844  1.00 94.67     0.066 C 
HETATM   27  C25 8UH Y1621     -32.626 128.611   5.883  1.00 94.67    -0.074 C 
HETATM   28  C26 8UH Y1621     -33.643 128.201   6.644  1.00 94.67    -0.048 C 
HETATM   29  C27 8UH Y1621     -34.202 129.077   7.702  1.00 94.67     0.009 C 
HETATM   30  C28 8UH Y1621     -35.179 129.940   7.436  1.00 94.67     0.007 C 
HETATM   31  C29 8UH Y1621     -35.771 130.803   8.448  1.00 29.73    -0.062 C 
HETATM   32  C30 8UH Y1621     -36.884 131.439   8.097  1.00 28.64     0.007 C 
HETATM   33  C31 8UH Y1621     -37.607 132.344   8.965  1.00 27.79     0.001 C 
HETATM   34  C32 8UH Y1621     -38.206 133.344   8.342  1.00 27.11     0.007 C 
HETATM   35  C33 8UH Y1621     -38.989 134.353   9.052  1.00 25.78    -0.062 C 
HETATM   36  C34 8UH Y1621     -39.523 135.369   8.371  1.00 26.10     0.007 C 
HETATM   37  C35 8UH Y1621     -40.325 136.382   9.037  1.00 27.22     0.001 C 
HETATM   38  C36 8UH Y1621     -33.792 125.870   7.564  1.00 94.67     0.020 C 
HETATM   39  C37 8UH Y1621     -35.763 126.989   6.518  1.00 94.67     0.020 C 
HETATM   40  C38 8UH Y1621     -31.971 129.950   6.045  1.00 94.67     0.044 C 
HETATM   41  C39 8UH Y1621     -35.145 130.941   9.795  1.00 32.37     0.048 C 
HETATM   42  C40 8UH Y1621     -39.180 134.216  10.519  1.00 25.14     0.048 C 
HETATM   43  O23 8UH Y1621     -32.546 126.084   3.185  1.00 94.67    -0.395 OA
ATOM     44  H23 8UH Y1621     -32.065 126.601   2.550  1.00  0.00     0.210 HD
ENDROOT
TORSDOF 12
BEGIN_RES PHE A  61
REMARK  2 active torsions:
REMARK  status: ('A' for Active; 'I' for Inactive)
REMARK    1  A    between atoms: CA   and  CB  
REMARK    2  A    between atoms: CB   and  CG  
ROOT
ATOM      1  CA  PHE A  61     -36.237 128.293  12.768  1.00 39.40     0.164 C 
ENDROOT
BRANCH   1   2
ATOM      2  CB  PHE A  61     -36.813 128.951  11.509  1.00 39.41     0.058 C 
BRANCH   2   3
ATOM      3  CG  PHE A  61     -37.053 127.999  10.362  1.00 39.01    -0.020 A 
ATOM      4  CD2 PHE A  61     -38.059 128.237   9.438  1.00 40.32    -0.004 A 
ATOM      5  CE2 PHE A  61     -38.281 127.358   8.385  1.00 40.20    -0.000 A 
ATOM      6  CZ  PHE A  61     -37.497 126.236   8.241  1.00 40.34    -0.000 A 
ATOM      7  CE1 PHE A  61     -36.492 125.987   9.148  1.00 41.51    -0.000 A 
ATOM      8  CD1 PHE A  61     -36.274 126.861  10.205  1.00 39.94    -0.004 A 
ENDBRANCH   2   3
ENDBRANCH   1   2
END_RES PHE A  61
BEGIN_RES VAL A 134
REMARK  1 active torsions:
REMARK  status: ('A' for Active; 'I' for Inactive)
REMARK    3  A    between atoms: CA   and  CB  
ROOT
ATOM      9  CA  VAL A 134     -29.766 132.051   9.815  1.00 40.75     0.159 C 
ENDROOT
BRANCH   9  10
ATOM     10  CB  VAL A 134     -30.864 132.765   9.009  1.00 40.76     0.029 C 
ATOM     11  CG1 VAL A 134     -31.172 132.004   7.728  1.00 41.76     0.002 C 
ATOM     12  CG2 VAL A 134     -32.125 132.967   9.835  1.00 40.56     0.002 C 
ENDBRANCH   9  10
END_RES VAL A 134
BEGIN_RES TYR A 338
REMARK  3 active torsions:
REMARK  status: ('A' for Active; 'I' for Inactive)
REMARK    4  A    between atoms: CA   and  CB  
REMARK    5  A    between atoms: CB   and  CG  
REMARK    6  A    between atoms: CZ   and  OH  
ROOT
ATOM     13  CA  TYR A 338     -41.631 124.950   6.058  1.00 38.23     0.164 C 
ENDROOT
BRANCH  13  14
ATOM     14  CB  TYR A 338     -41.621 126.456   6.339  1.00 39.15     0.058 C 
BRANCH  14  15
ATOM     15  CG  TYR A 338     -40.408 127.208   5.842  1.00 39.03    -0.020 A 
ATOM     16  CD2 TYR A 338     -40.227 128.541   6.170  1.00 40.65    -0.002 A 
ATOM     17  CE2 TYR A 338     -39.135 129.266   5.718  1.00 40.91     0.024 A 
ATOM     18  CZ  TYR A 338     -38.190 128.655   4.915  1.00 42.33     0.089 A 
ATOM     19  CE1 TYR A 338     -38.347 127.322   4.577  1.00 40.63     0.024 A 
ATOM     20  CD1 TYR A 338     -39.453 126.618   5.028  1.00 39.27    -0.002 A 
BRANCH  18  21
ATOM     21  OH  TYR A 338     -37.107 129.358   4.468  1.00 43.36    -0.359 OA
ATOM     22  HH  TYR A 338     -37.207 130.253   4.163  1.00  0.00     0.217 HD
ENDBRANCH  18  21
ENDBRANCH  14  15
ENDBRANCH  13  14
END_RES TYR A 338
ENDMDL
