MODEL 1
REMARK VINA RESULT:   -11.427      0.000      0.000
REMARK INTER + INTRA:         -13.826
REMARK INTER:                 -11.427
REMARK INTRA:                  -2.399
REMARK UNBOUND:                -2.399
REMARK  0 active torsions:
REMARK  status: ('A' for Active; 'I' for Inactive)
REMARK       I    between atoms: C3_3  and  O3_21 
REMARK       I    between atoms: C6_6  and  C7_7 
REMARK       I    between atoms: C8_8  and  C9_9 
REMARK       I    between atoms: C10_10  and  C11_11 
REMARK       I    between atoms: C12_12  and  C13_13 
REMARK       I    between atoms: C14_14  and  C15_15 
REMARK       I    between atoms: C23_25  and  O23_43 
REMARK       I    between atoms: C26_28  and  C27_29 
REMARK       I    between atoms: C28_30  and  C29_31 
REMARK       I    between atoms: C30_32  and  C31_33 
REMARK       I    between atoms: C32_34  and  C33_35 
REMARK       I    between atoms: C34_36  and  C35_37 
ROOT
HETATM    1  C1  8UH S1621     -48.945 144.226  11.955  1.00 98.50    -0.018 C 
HETATM    2  C2  8UH S1621     -49.779 145.019  12.941  1.00 95.05     0.045 C 
HETATM    3  C3  8UH S1621     -48.931 145.615  14.042  1.00 91.19     0.123 C 
HETATM    4  C4  8UH S1621     -47.882 146.545  13.468  1.00 95.39     0.066 C 
HETATM    5  C5  8UH S1621     -47.325 146.117  12.136  1.00 94.24    -0.074 C 
HETATM    6  C6  8UH S1621     -47.710 144.992  11.493  1.00 98.17    -0.048 C 
HETATM    7  C7  8UH S1621     -46.988 144.479  10.290  1.00 96.30     0.009 C 
HETATM    8  C8  8UH S1621     -45.906 143.696  10.365  1.00 99.74     0.007 C 
HETATM    9  C9  8UH S1621     -45.184 143.147   9.217  1.00 91.17    -0.062 C 
HETATM   10  C10 8UH S1621     -44.304 142.194   9.520  1.00 97.68     0.007 C 
HETATM   11  C11 8UH S1621     -43.502 141.491   8.540  1.00 98.02     0.001 C 
HETATM   12  C12 8UH S1621     -42.955 140.387   9.012  1.00 91.18     0.007 C 
HETATM   13  C13 8UH S1621     -42.131 139.490   8.203  1.00 90.92    -0.062 C 
HETATM   14  C14 8UH S1621     -41.651 138.415   8.823  1.00 96.50     0.007 C 
HETATM   15  C15 8UH S1621     -40.834 137.409   8.179  1.00 99.38     0.001 C 
HETATM   16  C16 8UH S1621     -49.909 143.823  10.850  1.00 90.00     0.020 C 
HETATM   17  C17 8UH S1621     -48.444 142.950  12.602  1.00 93.85     0.020 C 
HETATM   18  C18 8UH S1621     -45.988 146.760  11.949  1.00 91.76     0.044 C 
HETATM   19  C19 8UH S1621     -45.425 143.608   7.811  1.00 90.99     0.048 C 
HETATM   20  C20 8UH S1621     -41.869 139.766   6.754  1.00 93.33     0.048 C 
HETATM   21  O3  8UH S1621     -49.769 146.381  14.907  1.00 92.07    -0.395 OA
ATOM     22  H3  8UH S1621     -49.237 146.756  15.598  1.00  0.00     0.210 HD
HETATM   23  C21 8UH S1621     -34.318 126.898   6.524  1.00 56.99    -0.018 C 
HETATM   24  C22 8UH S1621     -34.056 126.324   5.133  1.00 56.99     0.045 C 
HETATM   25  C23 8UH S1621     -33.070 127.060   4.235  1.00 56.99     0.123 C 
HETATM   26  C24 8UH S1621     -31.996 127.765   5.037  1.00 56.99     0.066 C 
HETATM   27  C25 8UH S1621     -32.654 128.669   6.040  1.00 56.99    -0.074 C 
HETATM   28  C26 8UH S1621     -33.690 128.256   6.768  1.00 56.99    -0.048 C 
HETATM   29  C27 8UH S1621     -34.228 129.129   7.846  1.00 56.99     0.009 C 
HETATM   30  C28 8UH S1621     -35.248 129.961   7.626  1.00 56.99     0.007 C 
HETATM   31  C29 8UH S1621     -35.808 130.830   8.647  1.00 98.43    -0.062 C 
HETATM   32  C30 8UH S1621     -36.778 131.644   8.257  1.00 92.06     0.007 C 
HETATM   33  C31 8UH S1621     -37.463 132.574   9.130  1.00 98.99     0.001 C 
HETATM   34  C32 8UH S1621     -38.072 133.541   8.472  1.00 98.35     0.007 C 
HETATM   35  C33 8UH S1621     -38.853 134.578   9.140  1.00 93.74    -0.062 C 
HETATM   36  C34 8UH S1621     -39.336 135.563   8.388  1.00 95.45     0.007 C 
HETATM   37  C35 8UH S1621     -40.149 136.607   8.977  1.00 96.56     0.001 C 
HETATM   38  C36 8UH S1621     -33.862 125.868   7.555  1.00 56.99     0.020 C 
HETATM   39  C37 8UH S1621     -35.816 127.072   6.666  1.00 56.99     0.020 C 
HETATM   40  C38 8UH S1621     -31.928 129.938   6.352  1.00 56.99     0.044 C 
HETATM   41  C39 8UH S1621     -35.308 130.798  10.059  1.00 93.10     0.048 C 
HETATM   42  C40 8UH S1621     -39.113 134.494  10.611  1.00 95.49     0.048 C 
HETATM   43  O23 8UH S1621     -32.436 126.112   3.373  1.00 56.99    -0.395 OA
ATOM     44  H23 8UH S1621     -31.822 126.570   2.813  1.00  0.00     0.210 HD
ENDROOT
TORSDOF 12
BEGIN_RES PHE A  61
REMARK  2 active torsions:
REMARK  status: ('A' for Active; 'I' for Inactive)
REMARK    1  A    between atoms: CA   and  CB  
REMARK    2  A    between atoms: CB   and  CG  
ROOT
ATOM      1  CA  PHE A  61     -36.237 128.293  12.768  1.00 39.40     0.164 C 
ENDROOT
BRANCH   1   2
ATOM      2  CB  PHE A  61     -36.813 128.951  11.509  1.00 39.41     0.058 C 
BRANCH   2   3
ATOM      3  CG  PHE A  61     -37.090 127.993  10.375  1.00 39.01    -0.020 A 
ATOM      4  CD2 PHE A  61     -36.361 126.822  10.238  1.00 40.32    -0.004 A 
ATOM      5  CE2 PHE A  61     -36.615 125.943   9.193  1.00 40.20    -0.000 A 
ATOM      6  CZ  PHE A  61     -37.603 126.222   8.276  1.00 40.34    -0.000 A 
ATOM      7  CE1 PHE A  61     -38.338 127.380   8.400  1.00 41.51    -0.000 A 
ATOM      8  CD1 PHE A  61     -38.080 128.263   9.441  1.00 39.94    -0.004 A 
ENDBRANCH   2   3
ENDBRANCH   1   2
END_RES PHE A  61
BEGIN_RES VAL A 134
REMARK  1 active torsions:
REMARK  status: ('A' for Active; 'I' for Inactive)
REMARK    3  A    between atoms: CA   and  CB  
ROOT
ATOM      9  CA  VAL A 134     -29.766 132.051   9.815  1.00 40.75     0.159 C 
ENDROOT
BRANCH   9  10
ATOM     10  CB  VAL A 134     -30.864 132.765   9.009  1.00 40.76     0.029 C 
ATOM     11  CG1 VAL A 134     -30.863 132.293   7.563  1.00 41.76     0.002 C 
ATOM     12  CG2 VAL A 134     -32.236 132.575   9.639  1.00 40.56     0.002 C 
ENDBRANCH   9  10
END_RES VAL A 134
BEGIN_RES TYR A 338
REMARK  3 active torsions:
REMARK  status: ('A' for Active; 'I' for Inactive)
REMARK    4  A    between atoms: CA   and  CB  
REMARK    5  A    between atoms: CB   and  CG  
REMARK    6  A    between atoms: CZ   and  OH  
ROOT
ATOM     13  CA  TYR A 338     -41.631 124.950   6.058  1.00 38.23     0.164 C 
ENDROOT
BRANCH  13  14
ATOM     14  CB  TYR A 338     -41.621 126.456   6.339  1.00 39.15     0.058 C 
BRANCH  14  15
ATOM     15  CG  TYR A 338     -40.404 127.207   5.850  1.00 39.03    -0.020 A 
ATOM     16  CD2 TYR A 338     -40.225 128.540   6.175  1.00 40.65    -0.002 A 
ATOM     17  CE2 TYR A 338     -39.129 129.264   5.731  1.00 40.91     0.024 A 
ATOM     18  CZ  TYR A 338     -38.178 128.650   4.938  1.00 42.33     0.089 A 
ATOM     19  CE1 TYR A 338     -38.332 127.317   4.602  1.00 40.63     0.024 A 
ATOM     20  CD1 TYR A 338     -39.442 126.614   5.046  1.00 39.27    -0.002 A 
BRANCH  18  21
ATOM     21  OH  TYR A 338     -37.091 129.353   4.497  1.00 43.36    -0.359 OA
ATOM     22  HH  TYR A 338     -36.947 129.482   3.567  1.00  0.00     0.217 HD
ENDBRANCH  18  21
ENDBRANCH  14  15
ENDBRANCH  13  14
END_RES TYR A 338
ENDMDL
MODEL 2
REMARK VINA RESULT:    -9.432      0.906     16.451
REMARK INTER + INTRA:         -11.831
REMARK INTER:                  -7.813
REMARK INTRA:                  -4.018
REMARK UNBOUND:                -2.399
REMARK  0 active torsions:
REMARK  status: ('A' for Active; 'I' for Inactive)
REMARK       I    between atoms: C3_3  and  O3_21 
REMARK       I    between atoms: C6_6  and  C7_7 
REMARK       I    between atoms: C8_8  and  C9_9 
REMARK       I    between atoms: C10_10  and  C11_11 
REMARK       I    between atoms: C12_12  and  C13_13 
REMARK       I    between atoms: C14_14  and  C15_15 
REMARK       I    between atoms: C23_25  and  O23_43 
REMARK       I    between atoms: C26_28  and  C27_29 
REMARK       I    between atoms: C28_30  and  C29_31 
REMARK       I    between atoms: C30_32  and  C31_33 
REMARK       I    between atoms: C32_34  and  C33_35 
REMARK       I    between atoms: C34_36  and  C35_37 
ROOT
HETATM    1  C1  8UH S1621     -34.362 126.864   5.821  1.00 98.50    -0.018 C 
HETATM    2  C2  8UH S1621     -33.624 125.963   4.851  1.00 95.05     0.045 C 
HETATM    3  C3  8UH S1621     -32.784 126.757   3.876  1.00 91.19     0.123 C 
HETATM    4  C4  8UH S1621     -31.755 127.591   4.609  1.00 95.39     0.066 C 
HETATM    5  C5  8UH S1621     -32.216 128.135   5.935  1.00 94.24    -0.074 C 
HETATM    6  C6  8UH S1621     -33.450 127.915   6.443  1.00 98.17    -0.048 C 
HETATM    7  C7  8UH S1621     -33.953 128.644   7.645  1.00 96.30     0.009 C 
HETATM    8  C8  8UH S1621     -34.531 129.849   7.583  1.00 99.74     0.007 C 
HETATM    9  C9  8UH S1621     -35.065 130.587   8.728  1.00 91.17    -0.062 C 
HETATM   10  C10 8UH S1621     -35.819 131.637   8.407  1.00 97.68     0.007 C 
HETATM   11  C11 8UH S1621     -36.473 132.491   9.377  1.00 98.02     0.001 C 
HETATM   12  C12 8UH S1621     -37.415 133.249   8.850  1.00 91.18     0.007 C 
HETATM   13  C13 8UH S1621     -38.238 134.168   9.635  1.00 90.92    -0.062 C 
HETATM   14  C14 8UH S1621     -39.147 134.865   8.959  1.00 96.50     0.007 C 
HETATM   15  C15 8UH S1621     -40.062 135.806   9.569  1.00 99.38     0.001 C 
HETATM   16  C16 8UH S1621     -35.032 125.922   6.809  1.00 90.00     0.020 C 
HETATM   17  C17 8UH S1621     -35.462 127.617   5.101  1.00 93.85     0.020 C 
HETATM   18  C18 8UH S1621     -31.379 129.325   6.280  1.00 91.76     0.044 C 
HETATM   19  C19 8UH S1621     -34.797 130.186  10.147  1.00 90.99     0.048 C 
HETATM   20  C20 8UH S1621     -38.071 134.292  11.119  1.00 93.33     0.048 C 
HETATM   21  O3  8UH S1621     -32.086 125.850   3.023  1.00 92.07    -0.395 OA
ATOM     22  H3  8UH S1621     -31.558 126.348   2.410  1.00  0.00     0.210 HD
HETATM   23  C21 8UH S1621     -49.437 143.954  10.757  1.00 56.99    -0.018 C 
HETATM   24  C22 8UH S1621     -50.096 144.230  12.106  1.00 56.99     0.045 C 
HETATM   25  C23 8UH S1621     -49.301 145.017  13.139  1.00 56.99     0.123 C 
HETATM   26  C24 8UH S1621     -48.346 145.997  12.487  1.00 56.99     0.066 C 
HETATM   27  C25 8UH S1621     -47.469 145.251  11.523  1.00 56.99    -0.074 C 
HETATM   28  C26 8UH S1621     -47.974 144.348  10.684  1.00 56.99    -0.048 C 
HETATM   29  C27 8UH S1621     -47.099 143.730   9.652  1.00 56.99     0.009 C 
HETATM   30  C28 8UH S1621     -46.477 142.569   9.869  1.00 56.99     0.007 C 
HETATM   31  C29 8UH S1621     -45.616 141.926   8.891  1.00 98.43    -0.062 C 
HETATM   32  C30 8UH S1621     -45.021 140.808   9.279  1.00 92.06     0.007 C 
HETATM   33  C31 8UH S1621     -44.137 140.023   8.444  1.00 98.99     0.001 C 
HETATM   34  C32 8UH S1621     -43.358 139.215   9.138  1.00 98.35     0.007 C 
HETATM   35  C33 8UH S1621     -42.405 138.306   8.509  1.00 93.74    -0.062 C 
HETATM   36  C34 8UH S1621     -41.597 137.614   9.308  1.00 95.45     0.007 C 
HETATM   37  C35 8UH S1621     -40.651 136.667   8.756  1.00 96.56     0.001 C 
HETATM   38  C36 8UH S1621     -50.264 144.644   9.675  1.00 56.99     0.020 C 
HETATM   39  C37 8UH S1621     -49.504 142.460  10.518  1.00 56.99     0.020 C 
HETATM   40  C38 8UH S1621     -46.070 145.760  11.384  1.00 56.99     0.044 C 
HETATM   41  C39 8UH S1621     -45.419 142.506   7.524  1.00 93.10     0.048 C 
HETATM   42  C40 8UH S1621     -42.381 138.152   7.022  1.00 95.49     0.048 C 
HETATM   43  O23 8UH S1621     -50.211 145.756  13.957  1.00 56.99    -0.395 OA
ATOM     44  H23 8UH S1621     -49.715 146.246  14.601  1.00  0.00     0.210 HD
ENDROOT
TORSDOF 12
BEGIN_RES PHE A  61
REMARK  2 active torsions:
REMARK  status: ('A' for Active; 'I' for Inactive)
REMARK    1  A    between atoms: CA   and  CB  
REMARK    2  A    between atoms: CB   and  CG  
ROOT
ATOM      1  CA  PHE A  61     -36.237 128.293  12.768  1.00 39.40     0.164 C 
ENDROOT
BRANCH   1   2
ATOM      2  CB  PHE A  61     -36.813 128.951  11.509  1.00 39.41     0.058 C 
BRANCH   2   3
ATOM      3  CG  PHE A  61     -36.964 128.019  10.331  1.00 39.01    -0.020 A 
ATOM      4  CD2 PHE A  61     -36.136 126.916  10.185  1.00 40.32    -0.004 A 
ATOM      5  CE2 PHE A  61     -36.274 126.061   9.099  1.00 40.20    -0.000 A 
ATOM      6  CZ  PHE A  61     -37.242 126.296   8.150  1.00 40.34    -0.000 A 
ATOM      7  CE1 PHE A  61     -38.074 127.386   8.281  1.00 41.51    -0.000 A 
ATOM      8  CD1 PHE A  61     -37.932 128.245   9.363  1.00 39.94    -0.004 A 
ENDBRANCH   2   3
ENDBRANCH   1   2
END_RES PHE A  61
BEGIN_RES VAL A 134
REMARK  1 active torsions:
REMARK  status: ('A' for Active; 'I' for Inactive)
REMARK    3  A    between atoms: CA   and  CB  
ROOT
ATOM      9  CA  VAL A 134     -29.766 132.051   9.815  1.00 40.75     0.159 C 
ENDROOT
BRANCH   9  10
ATOM     10  CB  VAL A 134     -30.864 132.765   9.009  1.00 40.76     0.029 C 
ATOM     11  CG1 VAL A 134     -31.172 132.004   7.728  1.00 41.76     0.002 C 
ATOM     12  CG2 VAL A 134     -32.125 132.966   9.835  1.00 40.56     0.002 C 
ENDBRANCH   9  10
END_RES VAL A 134
BEGIN_RES TYR A 338
REMARK  3 active torsions:
REMARK  status: ('A' for Active; 'I' for Inactive)
REMARK    4  A    between atoms: CA   and  CB  
REMARK    5  A    between atoms: CB   and  CG  
REMARK    6  A    between atoms: CZ   and  OH  
ROOT
ATOM     13  CA  TYR A 338     -41.631 124.950   6.058  1.00 38.23     0.164 C 
ENDROOT
BRANCH  13  14
ATOM     14  CB  TYR A 338     -41.621 126.456   6.339  1.00 39.15     0.058 C 
BRANCH  14  15
ATOM     15  CG  TYR A 338     -40.423 127.213   5.814  1.00 39.03    -0.020 A 
ATOM     16  CD2 TYR A 338     -40.258 128.556   6.110  1.00 40.65    -0.002 A 
ATOM     17  CE2 TYR A 338     -39.180 129.285   5.632  1.00 40.91     0.024 A 
ATOM     18  CZ  TYR A 338     -38.234 128.669   4.835  1.00 42.33     0.089 A 
ATOM     19  CE1 TYR A 338     -38.374 127.327   4.530  1.00 40.63     0.024 A 
ATOM     20  CD1 TYR A 338     -39.466 126.618   5.006  1.00 39.27    -0.002 A 
BRANCH  18  21
ATOM     21  OH  TYR A 338     -37.164 129.377   4.363  1.00 43.36    -0.359 OA
ATOM     22  HH  TYR A 338     -37.091 130.309   4.535  1.00  0.00     0.217 HD
ENDBRANCH  18  21
ENDBRANCH  14  15
ENDBRANCH  13  14
END_RES TYR A 338
ENDMDL
