MODEL 1
REMARK VINA RESULT:   -12.871      0.000      0.000
REMARK INTER + INTRA:         -12.862
REMARK INTER:                 -12.871
REMARK INTRA:                   0.009
REMARK UNBOUND:                 0.009
REMARK  0 active torsions:
REMARK  status: ('A' for Active; 'I' for Inactive)
REMARK       I    between atoms: C3_3  and  O3_21 
REMARK       I    between atoms: C6_6  and  C7_7 
REMARK       I    between atoms: C8_8  and  C9_9 
REMARK       I    between atoms: C10_10  and  C11_11 
REMARK       I    between atoms: C12_12  and  C13_13 
REMARK       I    between atoms: C14_14  and  C15_15 
REMARK       I    between atoms: C23_25  and  O23_43 
REMARK       I    between atoms: C26_28  and  C27_29 
REMARK       I    between atoms: C28_30  and  C29_31 
REMARK       I    between atoms: C30_32  and  C31_33 
REMARK       I    between atoms: C32_34  and  C33_35 
REMARK       I    between atoms: C34_36  and  C35_37 
ROOT
HETATM    1  C1  8UH 61620     -49.627 144.293  12.327  1.00 97.95    -0.018 C 
HETATM    2  C2  8UH 61620     -50.032 144.705  13.738  1.00 97.95     0.045 C 
HETATM    3  C3  8UH 61620     -49.300 145.881  14.359  1.00 97.95     0.123 C 
HETATM    4  C4  8UH 61620     -48.981 146.945  13.333  1.00 97.95     0.066 C 
HETATM    5  C5  8UH 61620     -48.184 146.325  12.224  1.00 97.95    -0.074 C 
HETATM    6  C6  8UH 61620     -48.500 145.120  11.736  1.00 97.95    -0.048 C 
HETATM    7  C7  8UH 61620     -47.751 144.551  10.590  1.00 97.95     0.009 C 
HETATM    8  C8  8UH 61620     -46.657 143.815  10.774  1.00 97.95     0.007 C 
HETATM    9  C9  8UH 61620     -45.907 143.228   9.662  1.00 97.95    -0.062 C 
HETATM   10  C10 8UH 61620     -44.885 142.440   9.985  1.00 97.95     0.007 C 
HETATM   11  C11 8UH 61620     -44.050 141.768   9.006  1.00 97.95     0.001 C 
HETATM   12  C12 8UH 61620     -43.084 141.037   9.535  1.00 97.95     0.007 C 
HETATM   13  C13 8UH 61620     -42.137 140.246   8.741  1.00 97.95    -0.062 C 
HETATM   14  C14 8UH 61620     -41.455 139.325   9.419  1.00 97.95     0.007 C 
HETATM   15  C15 8UH 61620     -40.507 138.421   8.798  1.00 97.95     0.001 C 
HETATM   16  C16 8UH 61620     -50.885 144.369  11.466  1.00 97.95     0.020 C 
HETATM   17  C17 8UH 61620     -49.154 142.846  12.374  1.00 97.95     0.020 C 
HETATM   18  C18 8UH 61620     -47.117 147.193  11.626  1.00 97.95     0.044 C 
HETATM   19  C19 8UH 61620     -46.281 143.502   8.238  1.00 97.95     0.048 C 
HETATM   20  C20 8UH 61620     -41.963 140.447   7.267  1.00 97.95     0.048 C 
HETATM   21  O3  8UH 61620     -50.134 146.472  15.363  1.00 97.95    -0.395 OA
ATOM     22  H3  8UH 61620     -49.676 147.208  15.751  1.00  0.00     0.210 HD
HETATM   23  C21 8UH 61620     -34.144 127.898   6.992  1.00 73.24    -0.018 C 
HETATM   24  C22 8UH 61620     -33.479 127.417   5.699  1.00 72.84     0.045 C 
HETATM   25  C23 8UH 61620     -32.383 128.304   5.123  1.00 72.53     0.123 C 
HETATM   26  C24 8UH 61620     -31.490 128.820   6.234  1.00 72.61     0.066 C 
HETATM   27  C25 8UH 61620     -32.324 129.589   7.224  1.00 72.68    -0.074 C 
HETATM   28  C26 8UH 61620     -33.507 129.122   7.626  1.00 72.79    -0.048 C 
HETATM   29  C27 8UH 61620     -34.234 129.816   8.717  1.00 71.90     0.009 C 
HETATM   30  C28 8UH 61620     -34.996 130.881   8.452  1.00 71.51     0.007 C 
HETATM   31  C29 8UH 61620     -35.741 131.603   9.490  1.00 97.95    -0.062 C 
HETATM   32  C30 8UH 61620     -36.465 132.628   9.054  1.00 97.95     0.007 C 
HETATM   33  C31 8UH 61620     -37.293 133.479   9.886  1.00 97.95     0.001 C 
HETATM   34  C32 8UH 61620     -37.890 134.431   9.190  1.00 97.95     0.007 C 
HETATM   35  C33 8UH 61620     -38.788 135.413   9.791  1.00 97.95    -0.062 C 
HETATM   36  C34 8UH 61620     -39.309 136.336   8.982  1.00 97.95     0.007 C 
HETATM   37  C35 8UH 61620     -40.222 137.336   9.502  1.00 97.95     0.001 C 
HETATM   38  C36 8UH 61620     -34.097 126.754   7.999  1.00 72.68     0.020 C 
HETATM   39  C37 8UH 61620     -35.596 128.238   6.684  1.00 73.05     0.020 C 
HETATM   40  C38 8UH 61620     -31.637 130.689   7.983  1.00 72.13     0.044 C 
HETATM   41  C39 8UH 61620     -35.699 131.204  10.934  1.00 97.95     0.048 C 
HETATM   42  C40 8UH 61620     -39.100 135.373  11.254  1.00 97.95     0.048 C 
HETATM   43  O23 8UH 61620     -31.593 127.543   4.198  1.00 71.04    -0.395 OA
ATOM     44  H23 8UH 61620     -30.909 128.096   3.838  1.00  0.00     0.210 HD
ENDROOT
TORSDOF 12
BEGIN_RES PHE A  61
REMARK  2 active torsions:
REMARK  status: ('A' for Active; 'I' for Inactive)
REMARK    1  A    between atoms: CA   and  CB  
REMARK    2  A    between atoms: CB   and  CG  
ROOT
ATOM      1  CA  PHE A  61     -36.237 128.293  12.768  1.00 39.40     0.164 C 
ENDROOT
BRANCH   1   2
ATOM      2  CB  PHE A  61     -36.813 128.951  11.509  1.00 39.41     0.058 C 
BRANCH   2   3
ATOM      3  CG  PHE A  61     -37.057 127.999  10.363  1.00 39.01    -0.020 A 
ATOM      4  CD2 PHE A  61     -36.342 126.816  10.256  1.00 40.32    -0.004 A 
ATOM      5  CE2 PHE A  61     -36.565 125.942   9.199  1.00 40.20    -0.000 A 
ATOM      6  CZ  PHE A  61     -37.506 126.239   8.241  1.00 40.34    -0.000 A 
ATOM      7  CE1 PHE A  61     -38.227 127.409   8.334  1.00 41.51    -0.000 A 
ATOM      8  CD1 PHE A  61     -38.000 128.286   9.386  1.00 39.94    -0.004 A 
ENDBRANCH   2   3
ENDBRANCH   1   2
END_RES PHE A  61
BEGIN_RES VAL A 134
REMARK  1 active torsions:
REMARK  status: ('A' for Active; 'I' for Inactive)
REMARK    3  A    between atoms: CA   and  CB  
ROOT
ATOM      9  CA  VAL A 134     -29.766 132.051   9.815  1.00 40.75     0.159 C 
ENDROOT
BRANCH   9  10
ATOM     10  CB  VAL A 134     -30.864 132.765   9.009  1.00 40.76     0.029 C 
ATOM     11  CG1 VAL A 134     -32.108 132.973   9.861  1.00 41.76     0.002 C 
ATOM     12  CG2 VAL A 134     -30.372 134.086   8.439  1.00 40.56     0.002 C 
ENDBRANCH   9  10
END_RES VAL A 134
BEGIN_RES TYR A 338
REMARK  3 active torsions:
REMARK  status: ('A' for Active; 'I' for Inactive)
REMARK    4  A    between atoms: CA   and  CB  
REMARK    5  A    between atoms: CB   and  CG  
REMARK    6  A    between atoms: CZ   and  OH  
ROOT
ATOM     13  CA  TYR A 338     -41.631 124.950   6.058  1.00 38.23     0.164 C 
ENDROOT
BRANCH  13  14
ATOM     14  CB  TYR A 338     -41.621 126.456   6.339  1.00 39.15     0.058 C 
BRANCH  14  15
ATOM     15  CG  TYR A 338     -40.419 127.212   5.822  1.00 39.03    -0.020 A 
ATOM     16  CD2 TYR A 338     -40.266 128.560   6.099  1.00 40.65    -0.002 A 
ATOM     17  CE2 TYR A 338     -39.184 129.288   5.628  1.00 40.91     0.024 A 
ATOM     18  CZ  TYR A 338     -38.222 128.665   4.856  1.00 42.33     0.089 A 
ATOM     19  CE1 TYR A 338     -38.350 127.317   4.569  1.00 40.63     0.024 A 
ATOM     20  CD1 TYR A 338     -39.446 126.610   5.039  1.00 39.27    -0.002 A 
BRANCH  18  21
ATOM     21  OH  TYR A 338     -37.149 129.372   4.389  1.00 43.36    -0.359 OA
ATOM     22  HH  TYR A 338     -36.501 129.716   4.993  1.00  0.00     0.217 HD
ENDBRANCH  18  21
ENDBRANCH  14  15
ENDBRANCH  13  14
END_RES TYR A 338
ENDMDL
MODEL 2
REMARK VINA RESULT:   -11.913      1.309     16.404
REMARK INTER + INTRA:         -11.904
REMARK INTER:                  -9.149
REMARK INTRA:                  -2.755
REMARK UNBOUND:                 0.009
REMARK  0 active torsions:
REMARK  status: ('A' for Active; 'I' for Inactive)
REMARK       I    between atoms: C3_3  and  O3_21 
REMARK       I    between atoms: C6_6  and  C7_7 
REMARK       I    between atoms: C8_8  and  C9_9 
REMARK       I    between atoms: C10_10  and  C11_11 
REMARK       I    between atoms: C12_12  and  C13_13 
REMARK       I    between atoms: C14_14  and  C15_15 
REMARK       I    between atoms: C23_25  and  O23_43 
REMARK       I    between atoms: C26_28  and  C27_29 
REMARK       I    between atoms: C28_30  and  C29_31 
REMARK       I    between atoms: C30_32  and  C31_33 
REMARK       I    between atoms: C32_34  and  C33_35 
REMARK       I    between atoms: C34_36  and  C35_37 
ROOT
HETATM    1  C1  8UH 61620     -34.486 128.085   6.535  1.00 97.95    -0.018 C 
HETATM    2  C2  8UH 61620     -33.683 127.809   5.268  1.00 97.95     0.045 C 
HETATM    3  C3  8UH 61620     -32.299 128.427   5.171  1.00 97.95     0.123 C 
HETATM    4  C4  8UH 61620     -31.600 128.442   6.511  1.00 97.95     0.066 C 
HETATM    5  C5  8UH 61620     -32.460 129.174   7.498  1.00 97.95    -0.074 C 
HETATM    6  C6  8UH 61620     -33.784 128.985   7.533  1.00 97.95    -0.048 C 
HETATM    7  C7  8UH 61620     -34.613 129.656   8.563  1.00 97.95     0.009 C 
HETATM    8  C8  8UH 61620     -35.131 130.865   8.355  1.00 97.95     0.007 C 
HETATM    9  C9  8UH 61620     -35.966 131.545   9.347  1.00 97.95    -0.062 C 
HETATM   10  C10 8UH 61620     -36.497 132.709   8.981  1.00 97.95     0.007 C 
HETATM   11  C11 8UH 61620     -37.359 133.502   9.837  1.00 97.95     0.001 C 
HETATM   12  C12 8UH 61620     -37.774 134.629   9.285  1.00 97.95     0.007 C 
HETATM   13  C13 8UH 61620     -38.677 135.574   9.951  1.00 97.95    -0.062 C 
HETATM   14  C14 8UH 61620     -39.253 136.472   9.153  1.00 97.95     0.007 C 
HETATM   15  C15 8UH 61620     -40.206 137.458   9.623  1.00 97.95     0.001 C 
HETATM   16  C16 8UH 61620     -34.825 126.729   7.147  1.00 97.95     0.020 C 
HETATM   17  C17 8UH 61620     -35.782 128.776   6.131  1.00 97.95     0.020 C 
HETATM   18  C18 8UH 61620     -31.727 130.008   8.506  1.00 97.95     0.044 C 
HETATM   19  C19 8UH 61620     -36.210 130.951  10.700  1.00 97.95     0.048 C 
HETATM   20  C20 8UH 61620     -38.949 135.523  11.424  1.00 97.95     0.048 C 
HETATM   21  O3  8UH 61620     -31.505 127.650   4.267  1.00 97.95    -0.395 OA
ATOM     22  H3  8UH 61620     -30.639 128.037   4.206  1.00  0.00     0.210 HD
HETATM   23  C21 8UH 61620     -50.024 145.069   9.206  1.00 73.24    -0.018 C 
HETATM   24  C22 8UH 61620     -50.827 145.625  10.385  1.00 72.84     0.045 C 
HETATM   25  C23 8UH 61620     -50.066 146.488  11.384  1.00 72.53     0.123 C 
HETATM   26  C24 8UH 61620     -49.127 147.428  10.654  1.00 72.61     0.066 C 
HETATM   27  C25 8UH 61620     -48.169 146.622   9.818  1.00 72.68    -0.074 C 
HETATM   28  C26 8UH 61620     -48.600 145.587   9.095  1.00 72.79    -0.048 C 
HETATM   29  C27 8UH 61620     -47.670 144.911   8.159  1.00 71.90     0.009 C 
HETATM   30  C28 8UH 61620     -46.833 143.967   8.600  1.00 71.51     0.007 C 
HETATM   31  C29 8UH 61620     -45.895 143.262   7.719  1.00 97.95    -0.062 C 
HETATM   32  C30 8UH 61620     -45.148 142.339   8.315  1.00 97.95     0.007 C 
HETATM   33  C31 8UH 61620     -44.164 141.505   7.653  1.00 97.95     0.001 C 
HETATM   34  C32 8UH 61620     -43.557 140.684   8.492  1.00 97.95     0.007 C 
HETATM   35  C33 8UH 61620     -42.532 139.732   8.073  1.00 97.95    -0.062 C 
HETATM   36  C34 8UH 61620     -41.981 138.976   9.022  1.00 97.95     0.007 C 
HETATM   37  C35 8UH 61620     -40.967 137.995   8.682  1.00 97.95     0.001 C 
HETATM   38  C36 8UH 61620     -50.767 145.420   7.923  1.00 72.68     0.020 C 
HETATM   39  C37 8UH 61620     -49.955 143.554   9.348  1.00 73.05     0.020 C 
HETATM   40  C38 8UH 61620     -46.818 147.225   9.559  1.00 72.13     0.044 C 
HETATM   41  C39 8UH 61620     -45.797 143.552   6.252  1.00 97.95     0.048 C 
HETATM   42  C40 8UH 61620     -42.127 139.623   6.637  1.00 97.95     0.048 C 
HETATM   43  O23 8UH 61620     -51.000 147.258  12.155  1.00 71.04    -0.395 OA
ATOM     44  H23 8UH 61620     -50.526 147.796  12.778  1.00  0.00     0.210 HD
ENDROOT
TORSDOF 12
BEGIN_RES PHE A  61
REMARK  2 active torsions:
REMARK  status: ('A' for Active; 'I' for Inactive)
REMARK    1  A    between atoms: CA   and  CB  
REMARK    2  A    between atoms: CB   and  CG  
ROOT
ATOM      1  CA  PHE A  61     -36.237 128.293  12.768  1.00 39.40     0.164 C 
ENDROOT
BRANCH   1   2
ATOM      2  CB  PHE A  61     -36.813 128.951  11.509  1.00 39.41     0.058 C 
BRANCH   2   3
ATOM      3  CG  PHE A  61     -37.025 128.005  10.352  1.00 39.01    -0.020 A 
ATOM      4  CD2 PHE A  61     -36.276 126.845  10.234  1.00 40.32    -0.004 A 
ATOM      5  CE2 PHE A  61     -36.470 125.976   9.167  1.00 40.20    -0.000 A 
ATOM      6  CZ  PHE A  61     -37.418 126.256   8.209  1.00 40.34    -0.000 A 
ATOM      7  CE1 PHE A  61     -38.172 127.403   8.312  1.00 41.51    -0.000 A 
ATOM      8  CD1 PHE A  61     -37.974 128.275   9.375  1.00 39.94    -0.004 A 
ENDBRANCH   2   3
ENDBRANCH   1   2
END_RES PHE A  61
BEGIN_RES VAL A 134
REMARK  1 active torsions:
REMARK  status: ('A' for Active; 'I' for Inactive)
REMARK    3  A    between atoms: CA   and  CB  
ROOT
ATOM      9  CA  VAL A 134     -29.766 132.051   9.815  1.00 40.75     0.159 C 
ENDROOT
BRANCH   9  10
ATOM     10  CB  VAL A 134     -30.864 132.765   9.009  1.00 40.76     0.029 C 
ATOM     11  CG1 VAL A 134     -30.874 132.280   7.567  1.00 41.76     0.002 C 
ATOM     12  CG2 VAL A 134     -32.233 132.589   9.648  1.00 40.56     0.002 C 
ENDBRANCH   9  10
END_RES VAL A 134
BEGIN_RES TYR A 338
REMARK  3 active torsions:
REMARK  status: ('A' for Active; 'I' for Inactive)
REMARK    4  A    between atoms: CA   and  CB  
REMARK    5  A    between atoms: CB   and  CG  
REMARK    6  A    between atoms: CZ   and  OH  
ROOT
ATOM     13  CA  TYR A 338     -41.631 124.950   6.058  1.00 38.23     0.164 C 
ENDROOT
BRANCH  13  14
ATOM     14  CB  TYR A 338     -41.621 126.456   6.339  1.00 39.15     0.058 C 
BRANCH  14  15
ATOM     15  CG  TYR A 338     -40.435 127.217   5.793  1.00 39.03    -0.020 A 
ATOM     16  CD2 TYR A 338     -40.289 128.569   6.055  1.00 40.65    -0.002 A 
ATOM     17  CE2 TYR A 338     -39.222 129.302   5.558  1.00 40.91     0.024 A 
ATOM     18  CZ  TYR A 338     -38.269 128.680   4.774  1.00 42.33     0.089 A 
ATOM     19  CE1 TYR A 338     -38.391 127.329   4.502  1.00 40.63     0.024 A 
ATOM     20  CD1 TYR A 338     -39.472 126.617   4.998  1.00 39.27    -0.002 A 
BRANCH  18  21
ATOM     21  OH  TYR A 338     -37.211 129.392   4.282  1.00 43.36    -0.359 OA
ATOM     22  HH  TYR A 338     -37.040 129.414   3.347  1.00  0.00     0.217 HD
ENDBRANCH  18  21
ENDBRANCH  14  15
ENDBRANCH  13  14
END_RES TYR A 338
ENDMDL
