MODEL 1
REMARK VINA RESULT:    -9.331      0.000      0.000
REMARK INTER + INTRA:         -12.379
REMARK INTER:                  -9.331
REMARK INTRA:                  -3.048
REMARK UNBOUND:                -3.048
REMARK  0 active torsions:
REMARK  status: ('A' for Active; 'I' for Inactive)
REMARK       I    between atoms: C3_3  and  O3_21 
REMARK       I    between atoms: C6_6  and  C7_7 
REMARK       I    between atoms: C8_8  and  C9_9 
REMARK       I    between atoms: C10_10  and  C11_11 
REMARK       I    between atoms: C12_12  and  C13_13 
REMARK       I    between atoms: C14_14  and  C15_15 
REMARK       I    between atoms: C23_25  and  O23_43 
REMARK       I    between atoms: C26_28  and  C27_29 
REMARK       I    between atoms: C28_30  and  C29_31 
REMARK       I    between atoms: C30_32  and  C31_33 
REMARK       I    between atoms: C32_34  and  C33_35 
REMARK       I    between atoms: C34_36  and  C35_37 
ROOT
HETATM    1  C1  8UH n1621     -34.442 126.903   6.218  1.00 48.43    -0.018 C 
HETATM    2  C2  8UH n1621     -34.005 126.175   4.954  1.00 44.61     0.045 C 
HETATM    3  C3  8UH n1621     -32.903 126.834   4.148  1.00 44.41     0.123 C 
HETATM    4  C4  8UH n1621     -31.834 127.392   5.055  1.00 41.53     0.066 C 
HETATM    5  C5  8UH n1621     -32.473 128.407   5.949  1.00 37.72    -0.074 C 
HETATM    6  C6  8UH n1621     -33.606 128.116   6.586  1.00 43.52    -0.048 C 
HETATM    7  C7  8UH n1621     -34.096 128.944   7.713  1.00 44.60     0.009 C 
HETATM    8  C8  8UH n1621     -34.767 130.073   7.523  1.00 43.22     0.007 C 
HETATM    9  C9  8UH n1621     -35.279 130.847   8.653  1.00 45.04    -0.062 C 
HETATM   10  C10 8UH n1621     -36.126 131.816   8.332  1.00 43.71     0.007 C 
HETATM   11  C11 8UH n1621     -36.803 132.675   9.273  1.00 42.87     0.001 C 
HETATM   12  C12 8UH n1621     -37.680 133.458   8.678  1.00 44.70     0.007 C 
HETATM   13  C13 8UH n1621     -38.558 134.374   9.402  1.00 42.63    -0.062 C 
HETATM   14  C14 8UH n1621     -39.438 135.062   8.674  1.00 42.62     0.007 C 
HETATM   15  C15 8UH n1621     -40.383 135.963   9.298  1.00 44.33     0.001 C 
HETATM   16  C16 8UH n1621     -34.455 125.850   7.320  1.00 47.48     0.020 C 
HETATM   17  C17 8UH n1621     -35.845 127.448   6.024  1.00 54.25     0.020 C 
HETATM   18  C18 8UH n1621     -31.486 129.396   6.473  1.00 37.77     0.044 C 
HETATM   19  C19 8UH n1621     -34.886 130.538  10.062  1.00 46.17     0.048 C 
HETATM   20  C20 8UH n1621     -38.492 134.474  10.895  1.00 40.87     0.048 C 
HETATM   21  O3  8UH n1621     -32.312 125.859   3.288  1.00 48.83    -0.395 OA
ATOM     22  H3  8UH n1621     -31.622 126.272   2.783  1.00  0.00     0.210 HD
HETATM   23  C21 8UH n1621     -49.951 144.062  10.981  1.00 57.46    -0.018 C 
HETATM   24  C22 8UH n1621     -50.739 144.306  12.259  1.00 54.62     0.045 C 
HETATM   25  C23 8UH n1621     -50.245 145.389  13.223  1.00 54.91     0.123 C 
HETATM   26  C24 8UH n1621     -48.844 145.922  12.962  1.00 56.99     0.066 C 
HETATM   27  C25 8UH n1621     -47.993 144.911  12.245  1.00 60.65    -0.074 C 
HETATM   28  C26 8UH n1621     -48.465 144.232  11.197  1.00 60.28    -0.048 C 
HETATM   29  C27 8UH n1621     -47.560 143.649  10.182  1.00 57.11     0.009 C 
HETATM   30  C28 8UH n1621     -46.936 142.497  10.380  1.00 53.31     0.007 C 
HETATM   31  C29 8UH n1621     -46.077 141.921   9.346  1.00 54.19    -0.062 C 
HETATM   32  C30 8UH n1621     -45.680 140.666   9.560  1.00 54.84     0.007 C 
HETATM   33  C31 8UH n1621     -44.829 139.918   8.657  1.00 51.40     0.001 C 
HETATM   34  C32 8UH n1621     -43.977 139.102   9.253  1.00 48.08     0.007 C 
HETATM   35  C33 8UH n1621     -43.041 138.270   8.498  1.00 45.58    -0.062 C 
HETATM   36  C34 8UH n1621     -42.178 137.515   9.178  1.00 47.58     0.007 C 
HETATM   37  C35 8UH n1621     -41.219 136.641   8.529  1.00 48.15     0.001 C 
HETATM   38  C36 8UH n1621     -50.463 144.962   9.858  1.00 59.48     0.020 C 
HETATM   39  C37 8UH n1621     -50.197 142.627  10.552  1.00 57.14     0.020 C 
HETATM   40  C38 8UH n1621     -46.621 145.509  12.223  1.00 65.36     0.044 C 
HETATM   41  C39 8UH n1621     -45.721 142.707   8.125  1.00 53.01     0.048 C 
HETATM   42  C40 8UH n1621     -43.074 138.291   7.009  1.00 46.34     0.048 C 
HETATM   43  O23 8UH n1621     -51.165 146.479  13.140  1.00 51.54    -0.395 OA
ATOM     44  H23 8UH n1621     -50.858 147.150  13.738  1.00  0.00     0.210 HD
ENDROOT
TORSDOF 12
BEGIN_RES PHE A  61
REMARK  2 active torsions:
REMARK  status: ('A' for Active; 'I' for Inactive)
REMARK    1  A    between atoms: CA   and  CB  
REMARK    2  A    between atoms: CB   and  CG  
ROOT
ATOM      1  CA  PHE A  61     -36.237 128.293  12.768  1.00 39.40     0.164 C 
ENDROOT
BRANCH   1   2
ATOM      2  CB  PHE A  61     -36.813 128.951  11.509  1.00 39.41     0.058 C 
BRANCH   2   3
ATOM      3  CG  PHE A  61     -37.038 128.002  10.356  1.00 39.01    -0.020 A 
ATOM      4  CD2 PHE A  61     -36.294 126.839  10.236  1.00 40.32    -0.004 A 
ATOM      5  CE2 PHE A  61     -36.500 125.968   9.173  1.00 40.20    -0.000 A 
ATOM      6  CZ  PHE A  61     -37.454 126.248   8.222  1.00 40.34    -0.000 A 
ATOM      7  CE1 PHE A  61     -38.204 127.399   8.328  1.00 41.51    -0.000 A 
ATOM      8  CD1 PHE A  61     -37.993 128.273   9.387  1.00 39.94    -0.004 A 
ENDBRANCH   2   3
ENDBRANCH   1   2
END_RES PHE A  61
BEGIN_RES VAL A 134
REMARK  1 active torsions:
REMARK  status: ('A' for Active; 'I' for Inactive)
REMARK    3  A    between atoms: CA   and  CB  
ROOT
ATOM      9  CA  VAL A 134     -29.766 132.051   9.815  1.00 40.75     0.159 C 
ENDROOT
BRANCH   9  10
ATOM     10  CB  VAL A 134     -30.864 132.765   9.009  1.00 40.76     0.029 C 
ATOM     11  CG1 VAL A 134     -31.174 132.003   7.729  1.00 41.76     0.002 C 
ATOM     12  CG2 VAL A 134     -32.125 132.968   9.835  1.00 40.56     0.002 C 
ENDBRANCH   9  10
END_RES VAL A 134
BEGIN_RES TYR A 338
REMARK  3 active torsions:
REMARK  status: ('A' for Active; 'I' for Inactive)
REMARK    4  A    between atoms: CA   and  CB  
REMARK    5  A    between atoms: CB   and  CG  
REMARK    6  A    between atoms: CZ   and  OH  
ROOT
ATOM     13  CA  TYR A 338     -41.631 124.950   6.058  1.00 38.23     0.164 C 
ENDROOT
BRANCH  13  14
ATOM     14  CB  TYR A 338     -41.621 126.456   6.339  1.00 39.15     0.058 C 
BRANCH  14  15
ATOM     15  CG  TYR A 338     -40.426 127.215   5.808  1.00 39.03    -0.020 A 
ATOM     16  CD2 TYR A 338     -40.252 128.553   6.118  1.00 40.65    -0.002 A 
ATOM     17  CE2 TYR A 338     -39.177 129.283   5.636  1.00 40.91     0.024 A 
ATOM     18  CZ  TYR A 338     -38.243 128.673   4.819  1.00 42.33     0.089 A 
ATOM     19  CE1 TYR A 338     -38.394 127.335   4.499  1.00 40.63     0.024 A 
ATOM     20  CD1 TYR A 338     -39.483 126.625   4.981  1.00 39.27    -0.002 A 
BRANCH  18  21
ATOM     21  OH  TYR A 338     -37.177 129.382   4.341  1.00 43.36    -0.359 OA
ATOM     22  HH  TYR A 338     -36.464 129.626   4.920  1.00  0.00     0.217 HD
ENDBRANCH  18  21
ENDBRANCH  14  15
ENDBRANCH  13  14
END_RES TYR A 338
ENDMDL
MODEL 2
REMARK VINA RESULT:    -8.338      1.760     16.636
REMARK INTER + INTRA:         -11.386
REMARK INTER:                  -9.247
REMARK INTRA:                  -2.140
REMARK UNBOUND:                -3.048
REMARK  0 active torsions:
REMARK  status: ('A' for Active; 'I' for Inactive)
REMARK       I    between atoms: C3_3  and  O3_21 
REMARK       I    between atoms: C6_6  and  C7_7 
REMARK       I    between atoms: C8_8  and  C9_9 
REMARK       I    between atoms: C10_10  and  C11_11 
REMARK       I    between atoms: C12_12  and  C13_13 
REMARK       I    between atoms: C14_14  and  C15_15 
REMARK       I    between atoms: C23_25  and  O23_43 
REMARK       I    between atoms: C26_28  and  C27_29 
REMARK       I    between atoms: C28_30  and  C29_31 
REMARK       I    between atoms: C30_32  and  C31_33 
REMARK       I    between atoms: C32_34  and  C33_35 
REMARK       I    between atoms: C34_36  and  C35_37 
ROOT
HETATM    1  C1  8UH n1621     -48.033 145.845  12.644  1.00 48.43    -0.018 C 
HETATM    2  C2  8UH n1621     -48.909 146.178  13.844  1.00 44.61     0.045 C 
HETATM    3  C3  8UH n1621     -48.210 146.815  15.029  1.00 44.41     0.123 C 
HETATM    4  C4  8UH n1621     -47.208 147.846  14.570  1.00 41.53     0.066 C 
HETATM    5  C5  8UH n1621     -46.199 147.155  13.708  1.00 37.72    -0.074 C 
HETATM    6  C6  8UH n1621     -46.600 146.340  12.733  1.00 43.52    -0.048 C 
HETATM    7  C7  8UH n1621     -45.676 145.897  11.664  1.00 44.60     0.009 C 
HETATM    8  C8  8UH n1621     -44.824 144.893  11.834  1.00 43.22     0.007 C 
HETATM    9  C9  8UH n1621     -43.956 144.447  10.746  1.00 45.04    -0.062 C 
HETATM   10  C10 8UH n1621     -43.329 143.299  10.963  1.00 43.71     0.007 C 
HETATM   11  C11 8UH n1621     -42.465 142.630  10.020  1.00 42.87     0.001 C 
HETATM   12  C12 8UH n1621     -42.085 141.446  10.457  1.00 44.70     0.007 C 
HETATM   13  C13 8UH n1621     -41.269 140.525   9.671  1.00 42.63    -0.062 C 
HETATM   14  C14 8UH n1621     -41.012 139.336  10.217  1.00 42.62     0.007 C 
HETATM   15  C15 8UH n1621     -40.249 138.335   9.503  1.00 44.33     0.001 C 
HETATM   16  C16 8UH n1621     -48.766 146.403  11.429  1.00 47.48     0.020 C 
HETATM   17  C17 8UH n1621     -47.911 144.338  12.513  1.00 54.25     0.020 C 
HETATM   18  C18 8UH n1621     -44.903 147.893  13.656  1.00 37.77     0.044 C 
HETATM   19  C19 8UH n1621     -43.817 145.227   9.478  1.00 46.17     0.048 C 
HETATM   20  C20 8UH n1621     -40.806 140.899   8.296  1.00 40.87     0.048 C 
HETATM   21  O3  8UH n1621     -49.184 147.456  15.851  1.00 48.83    -0.395 OA
ATOM     22  H3  8UH n1621     -48.746 147.855  16.594  1.00  0.00     0.210 HD
HETATM   23  C21 8UH n1621     -34.590 127.434   6.484  1.00 57.46    -0.018 C 
HETATM   24  C22 8UH n1621     -34.252 126.925   5.090  1.00 54.62     0.045 C 
HETATM   25  C23 8UH n1621     -32.885 127.279   4.498  1.00 54.91     0.123 C 
HETATM   26  C24 8UH n1621     -32.101 128.356   5.233  1.00 56.99     0.066 C 
HETATM   27  C25 8UH n1621     -33.012 129.283   5.991  1.00 60.65    -0.074 C 
HETATM   28  C26 8UH n1621     -34.013 128.809   6.733  1.00 60.28    -0.048 C 
HETATM   29  C27 8UH n1621     -34.579 129.587   7.857  1.00 57.11     0.009 C 
HETATM   30  C28 8UH n1621     -35.462 130.557   7.662  1.00 53.31     0.007 C 
HETATM   31  C29 8UH n1621     -36.037 131.287   8.790  1.00 54.19    -0.062 C 
HETATM   32  C30 8UH n1621     -37.068 132.081   8.499  1.00 54.84     0.007 C 
HETATM   33  C31 8UH n1621     -37.776 132.885   9.474  1.00 51.40     0.001 C 
HETATM   34  C32 8UH n1621     -38.192 134.055   9.023  1.00 48.08     0.007 C 
HETATM   35  C33 8UH n1621     -38.922 134.998   9.870  1.00 45.58    -0.062 C 
HETATM   36  C34 8UH n1621     -39.260 136.180   9.353  1.00 47.58     0.007 C 
HETATM   37  C35 8UH n1621     -39.999 137.181  10.099  1.00 48.15     0.001 C 
HETATM   38  C36 8UH n1621     -34.135 126.432   7.543  1.00 59.48     0.020 C 
HETATM   39  C37 8UH n1621     -36.101 127.538   6.584  1.00 57.14     0.020 C 
HETATM   40  C38 8UH n1621     -32.117 130.368   6.502  1.00 65.36     0.044 C 
HETATM   41  C39 8UH n1621     -35.499 131.100  10.173  1.00 53.01     0.048 C 
HETATM   42  C40 8UH n1621     -39.263 134.619  11.269  1.00 46.34     0.048 C 
HETATM   43  O23 8UH n1621     -32.105 126.082   4.489  1.00 51.54    -0.395 OA
ATOM     44  H23 8UH n1621     -31.258 126.301   4.122  1.00  0.00     0.210 HD
ENDROOT
TORSDOF 12
BEGIN_RES PHE A  61
REMARK  2 active torsions:
REMARK  status: ('A' for Active; 'I' for Inactive)
REMARK    1  A    between atoms: CA   and  CB  
REMARK    2  A    between atoms: CB   and  CG  
ROOT
ATOM      1  CA  PHE A  61     -36.237 128.293  12.768  1.00 39.40     0.164 C 
ENDROOT
BRANCH   1   2
ATOM      2  CB  PHE A  61     -36.813 128.951  11.509  1.00 39.41     0.058 C 
BRANCH   2   3
ATOM      3  CG  PHE A  61     -37.093 127.992  10.376  1.00 39.01    -0.020 A 
ATOM      4  CD2 PHE A  61     -36.378 126.812  10.250  1.00 40.32    -0.004 A 
ATOM      5  CE2 PHE A  61     -36.635 125.932   9.206  1.00 40.20    -0.000 A 
ATOM      6  CZ  PHE A  61     -37.610 126.221   8.279  1.00 40.34    -0.000 A 
ATOM      7  CE1 PHE A  61     -38.331 127.390   8.391  1.00 41.51    -0.000 A 
ATOM      8  CD1 PHE A  61     -38.070 128.272   9.432  1.00 39.94    -0.004 A 
ENDBRANCH   2   3
ENDBRANCH   1   2
END_RES PHE A  61
BEGIN_RES VAL A 134
REMARK  1 active torsions:
REMARK  status: ('A' for Active; 'I' for Inactive)
REMARK    3  A    between atoms: CA   and  CB  
ROOT
ATOM      9  CA  VAL A 134     -29.766 132.051   9.815  1.00 40.75     0.159 C 
ENDROOT
BRANCH   9  10
ATOM     10  CB  VAL A 134     -30.864 132.765   9.009  1.00 40.76     0.029 C 
ATOM     11  CG1 VAL A 134     -30.845 132.313   7.556  1.00 41.76     0.002 C 
ATOM     12  CG2 VAL A 134     -32.239 132.553   9.623  1.00 40.56     0.002 C 
ENDBRANCH   9  10
END_RES VAL A 134
BEGIN_RES TYR A 338
REMARK  3 active torsions:
REMARK  status: ('A' for Active; 'I' for Inactive)
REMARK    4  A    between atoms: CA   and  CB  
REMARK    5  A    between atoms: CB   and  CG  
REMARK    6  A    between atoms: CZ   and  OH  
ROOT
ATOM     13  CA  TYR A 338     -41.631 124.950   6.058  1.00 38.23     0.164 C 
ENDROOT
BRANCH  13  14
ATOM     14  CB  TYR A 338     -41.621 126.456   6.339  1.00 39.15     0.058 C 
BRANCH  14  15
ATOM     15  CG  TYR A 338     -40.420 127.213   5.819  1.00 39.03    -0.020 A 
ATOM     16  CD2 TYR A 338     -40.259 128.556   6.110  1.00 40.65    -0.002 A 
ATOM     17  CE2 TYR A 338     -39.178 129.285   5.637  1.00 40.91     0.024 A 
ATOM     18  CZ  TYR A 338     -38.226 128.667   4.849  1.00 42.33     0.089 A 
ATOM     19  CE1 TYR A 338     -38.363 127.323   4.548  1.00 40.63     0.024 A 
ATOM     20  CD1 TYR A 338     -39.458 126.615   5.020  1.00 39.27    -0.002 A 
BRANCH  18  21
ATOM     21  OH  TYR A 338     -37.154 129.374   4.380  1.00 43.36    -0.359 OA
ATOM     22  HH  TYR A 338     -37.219 129.862   3.568  1.00  0.00     0.217 HD
ENDBRANCH  18  21
ENDBRANCH  14  15
ENDBRANCH  13  14
END_RES TYR A 338
ENDMDL
MODEL 3
REMARK VINA RESULT:    -6.822      1.345     16.660
REMARK INTER + INTRA:          -9.871
REMARK INTER:                  -9.359
REMARK INTRA:                  -0.512
REMARK UNBOUND:                -3.048
REMARK  0 active torsions:
REMARK  status: ('A' for Active; 'I' for Inactive)
REMARK       I    between atoms: C3_3  and  O3_21 
REMARK       I    between atoms: C6_6  and  C7_7 
REMARK       I    between atoms: C8_8  and  C9_9 
REMARK       I    between atoms: C10_10  and  C11_11 
REMARK       I    between atoms: C12_12  and  C13_13 
REMARK       I    between atoms: C14_14  and  C15_15 
REMARK       I    between atoms: C23_25  and  O23_43 
REMARK       I    between atoms: C26_28  and  C27_29 
REMARK       I    between atoms: C28_30  and  C29_31 
REMARK       I    between atoms: C30_32  and  C31_33 
REMARK       I    between atoms: C32_34  and  C33_35 
REMARK       I    between atoms: C34_36  and  C35_37 
ROOT
HETATM    1  C1  8UH n1621     -50.764 144.714   9.417  1.00 48.43    -0.018 C 
HETATM    2  C2  8UH n1621     -51.848 145.003  10.446  1.00 44.61     0.045 C 
HETATM    3  C3  8UH n1621     -51.432 145.838  11.641  1.00 44.41     0.123 C 
HETATM    4  C4  8UH n1621     -50.531 146.972  11.217  1.00 41.53     0.066 C 
HETATM    5  C5  8UH n1621     -49.317 146.379  10.576  1.00 37.72    -0.074 C 
HETATM    6  C6  8UH n1621     -49.446 145.433   9.646  1.00 43.52    -0.048 C 
HETATM    7  C7  8UH n1621     -48.319 145.054   8.763  1.00 44.60     0.009 C 
HETATM    8  C8  8UH n1621     -47.367 144.214   9.151  1.00 43.22     0.007 C 
HETATM    9  C9  8UH n1621     -46.291 143.821   8.243  1.00 45.04    -0.062 C 
HETATM   10  C10 8UH n1621     -45.546 142.807   8.661  1.00 43.71     0.007 C 
HETATM   11  C11 8UH n1621     -44.464 142.206   7.918  1.00 42.87     0.001 C 
HETATM   12  C12 8UH n1621     -43.988 141.137   8.523  1.00 44.70     0.007 C 
HETATM   13  C13 8UH n1621     -42.940 140.294   7.954  1.00 42.63    -0.062 C 
HETATM   14  C14 8UH n1621     -42.599 139.209   8.651  1.00 42.62     0.007 C 
HETATM   15  C15 8UH n1621     -41.602 138.284   8.155  1.00 44.33     0.001 C 
HETATM   16  C16 8UH n1621     -51.379 145.048   8.062  1.00 47.48     0.020 C 
HETATM   17  C17 8UH n1621     -50.409 143.239   9.460  1.00 54.25     0.020 C 
HETATM   18  C18 8UH n1621     -48.146 147.304  10.623  1.00 37.77     0.044 C 
HETATM   19  C19 8UH n1621     -46.078 144.506   6.931  1.00 46.17     0.048 C 
HETATM   20  C20 8UH n1621     -42.335 140.621   6.624  1.00 40.87     0.048 C 
HETATM   21  O3  8UH n1621     -52.600 146.384  12.253  1.00 48.83    -0.395 OA
ATOM     22  H3  8UH n1621     -52.339 146.907  13.002  1.00  0.00     0.210 HD
HETATM   23  C21 8UH n1621     -34.053 128.194   7.080  1.00 57.46    -0.018 C 
HETATM   24  C22 8UH n1621     -33.441 127.631   5.806  1.00 54.62     0.045 C 
HETATM   25  C23 8UH n1621     -32.066 128.145   5.371  1.00 54.91     0.123 C 
HETATM   26  C24 8UH n1621     -31.563 129.389   6.088  1.00 56.99     0.066 C 
HETATM   27  C25 8UH n1621     -32.700 130.221   6.615  1.00 60.65    -0.074 C 
HETATM   28  C26 8UH n1621     -33.723 129.658   7.261  1.00 60.28    -0.048 C 
HETATM   29  C27 8UH n1621     -34.556 130.428   8.210  1.00 57.11     0.009 C 
HETATM   30  C28 8UH n1621     -35.530 131.228   7.798  1.00 53.31     0.007 C 
HETATM   31  C29 8UH n1621     -36.365 131.950   8.756  1.00 54.19    -0.062 C 
HETATM   32  C30 8UH n1621     -37.444 132.545   8.247  1.00 54.84     0.007 C 
HETATM   33  C31 8UH n1621     -38.398 133.306   9.029  1.00 51.40     0.001 C 
HETATM   34  C32 8UH n1621     -38.906 134.355   8.406  1.00 48.08     0.007 C 
HETATM   35  C33 8UH n1621     -39.881 135.238   9.043  1.00 45.58    -0.062 C 
HETATM   36  C34 8UH n1621     -40.303 136.306   8.365  1.00 47.58     0.007 C 
HETATM   37  C35 8UH n1621     -41.282 137.237   8.897  1.00 48.15     0.001 C 
HETATM   38  C36 8UH n1621     -33.622 127.367   8.290  1.00 59.48     0.020 C 
HETATM   39  C37 8UH n1621     -35.561 128.068   6.965  1.00 57.14     0.020 C 
HETATM   40  C38 8UH n1621     -32.057 131.471   7.126  1.00 65.36     0.044 C 
HETATM   41  C39 8UH n1621     -36.018 131.964  10.211  1.00 53.01     0.048 C 
HETATM   42  C40 8UH n1621     -40.369 134.928  10.416  1.00 46.34     0.048 C 
HETATM   43  O23 8UH n1621     -31.131 127.088   5.591  1.00 51.54    -0.395 OA
ATOM     44  H23 8UH n1621     -30.278 127.407   5.321  1.00  0.00     0.210 HD
ENDROOT
TORSDOF 12
BEGIN_RES PHE A  61
REMARK  2 active torsions:
REMARK  status: ('A' for Active; 'I' for Inactive)
REMARK    1  A    between atoms: CA   and  CB  
REMARK    2  A    between atoms: CB   and  CG  
ROOT
ATOM      1  CA  PHE A  61     -36.237 128.293  12.768  1.00 39.40     0.164 C 
ENDROOT
BRANCH   1   2
ATOM      2  CB  PHE A  61     -36.813 128.951  11.509  1.00 39.41     0.058 C 
BRANCH   2   3
ATOM      3  CG  PHE A  61     -37.027 128.004  10.352  1.00 39.01    -0.020 A 
ATOM      4  CD2 PHE A  61     -37.981 128.270   9.382  1.00 40.32    -0.004 A 
ATOM      5  CE2 PHE A  61     -38.179 127.396   8.321  1.00 40.20    -0.000 A 
ATOM      6  CZ  PHE A  61     -37.424 126.250   8.215  1.00 40.34    -0.000 A 
ATOM      7  CE1 PHE A  61     -36.471 125.973   9.169  1.00 41.51    -0.000 A 
ATOM      8  CD1 PHE A  61     -36.277 126.843  10.234  1.00 39.94    -0.004 A 
ENDBRANCH   2   3
ENDBRANCH   1   2
END_RES PHE A  61
BEGIN_RES VAL A 134
REMARK  1 active torsions:
REMARK  status: ('A' for Active; 'I' for Inactive)
REMARK    3  A    between atoms: CA   and  CB  
ROOT
ATOM      9  CA  VAL A 134     -29.766 132.051   9.815  1.00 40.75     0.159 C 
ENDROOT
BRANCH   9  10
ATOM     10  CB  VAL A 134     -30.864 132.765   9.009  1.00 40.76     0.029 C 
ATOM     11  CG1 VAL A 134     -32.149 132.863   9.819  1.00 41.76     0.002 C 
ATOM     12  CG2 VAL A 134     -30.413 134.141   8.542  1.00 40.56     0.002 C 
ENDBRANCH   9  10
END_RES VAL A 134
BEGIN_RES TYR A 338
REMARK  3 active torsions:
REMARK  status: ('A' for Active; 'I' for Inactive)
REMARK    4  A    between atoms: CA   and  CB  
REMARK    5  A    between atoms: CB   and  CG  
REMARK    6  A    between atoms: CZ   and  OH  
ROOT
ATOM     13  CA  TYR A 338     -41.631 124.950   6.058  1.00 38.23     0.164 C 
ENDROOT
BRANCH  13  14
ATOM     14  CB  TYR A 338     -41.621 126.456   6.339  1.00 39.15     0.058 C 
BRANCH  14  15
ATOM     15  CG  TYR A 338     -40.413 127.210   5.832  1.00 39.03    -0.020 A 
ATOM     16  CD2 TYR A 338     -39.432 126.556   5.106  1.00 40.65    -0.002 A 
ATOM     17  CE2 TYR A 338     -38.304 127.212   4.640  1.00 40.91     0.024 A 
ATOM     18  CZ  TYR A 338     -38.137 128.559   4.900  1.00 42.33     0.089 A 
ATOM     19  CE1 TYR A 338     -39.106 129.236   5.619  1.00 40.63     0.024 A 
ATOM     20  CD1 TYR A 338     -40.221 128.559   6.088  1.00 39.27    -0.002 A 
BRANCH  18  21
ATOM     21  OH  TYR A 338     -37.031 129.218   4.441  1.00 43.36    -0.359 OA
ATOM     22  HH  TYR A 338     -36.223 128.745   4.279  1.00  0.00     0.217 HD
ENDBRANCH  18  21
ENDBRANCH  14  15
ENDBRANCH  13  14
END_RES TYR A 338
ENDMDL
