MODEL 1
REMARK VINA RESULT:   -10.872      0.000      0.000
REMARK INTER + INTRA:         -13.768
REMARK INTER:                 -10.872
REMARK INTRA:                  -2.896
REMARK UNBOUND:                -2.896
REMARK  0 active torsions:
REMARK  status: ('A' for Active; 'I' for Inactive)
REMARK       I    between atoms: C3_3  and  O3_21 
REMARK       I    between atoms: C6_6  and  C7_7 
REMARK       I    between atoms: C8_8  and  C9_9 
REMARK       I    between atoms: C10_10  and  C11_11 
REMARK       I    between atoms: C12_12  and  C13_13 
REMARK       I    between atoms: C14_14  and  C15_15 
REMARK       I    between atoms: C23_25  and  O23_43 
REMARK       I    between atoms: C26_28  and  C27_29 
REMARK       I    between atoms: C28_30  and  C29_31 
REMARK       I    between atoms: C30_32  and  C31_33 
REMARK       I    between atoms: C32_34  and  C33_35 
REMARK       I    between atoms: C34_36  and  C35_37 
ROOT
HETATM    1  C1  8UH X1620     -33.737 129.304   7.066  1.00 33.88    -0.022 C 
HETATM    2  C2  8UH X1620     -32.943 130.059   6.010  1.00 33.88     0.045 C 
HETATM    3  C3  8UH X1620     -32.126 131.216   6.547  1.00 33.88     0.119 C 
HETATM    4  C4  8UH X1620     -31.224 130.660   7.628  1.00 33.88     0.040 C 
HETATM    5  C5  8UH X1620     -32.068 130.081   8.735  1.00 33.88     0.013 C 
HETATM    6  C6  8UH X1620     -33.329 129.715   8.480  1.00 33.88    -0.068 C 
HETATM    7  C7  8UH X1620     -34.399 130.006   9.442  1.00 33.88     0.004 C 
HETATM    8  C8  8UH X1620     -34.958 131.171   9.091  1.00 33.88     0.007 C 
HETATM    9  C9  8UH X1620     -36.041 131.828   9.870  1.00 33.88    -0.062 C 
HETATM   10  C10 8UH X1620     -36.496 133.008   9.385  1.00 33.88     0.007 C 
HETATM   11  C11 8UH X1620     -37.577 133.774   9.995  1.00 33.88     0.001 C 
HETATM   12  C12 8UH X1620     -38.006 134.894   9.433  1.00 33.88     0.007 C 
HETATM   13  C13 8UH X1620     -39.147 135.636  10.000  1.00 33.88    -0.062 C 
HETATM   14  C14 8UH X1620     -39.598 136.664   9.264  1.00 33.88     0.007 C 
HETATM   15  C15 8UH X1620     -40.756 137.493   9.596  1.00 33.88     0.001 C 
HETATM   16  C16 8UH X1620     -33.564 127.828   6.712  1.00 33.88     0.019 C 
HETATM   17  C17 8UH X1620     -35.201 129.691   6.870  1.00 33.88     0.019 C 
HETATM   18  C18 8UH X1620     -31.693 131.034   9.841  1.00 33.88     0.015 C 
HETATM   19  C19 8UH X1620     -36.594 131.179  11.120  1.00 33.88     0.048 C 
HETATM   20  C20 8UH X1620     -39.785 135.164  11.280  1.00 33.88     0.048 C 
HETATM   21  O3  8UH X1620     -31.345 131.717   5.457  1.00 33.88    -0.396 OA
ATOM     22  H3  8UH X1620     -30.832 132.443   5.794  1.00  0.00     0.210 HD
HETATM   23  C21 8UH X1620     -50.679 144.944   8.711  1.00 32.28    -0.018 C 
HETATM   24  C22 8UH X1620     -51.787 145.161   9.727  1.00 32.10     0.045 C 
HETATM   25  C23 8UH X1620     -51.404 145.843  11.020  1.00 30.03     0.123 C 
HETATM   26  C24 8UH X1620     -50.491 147.017  10.798  1.00 27.01     0.066 C 
HETATM   27  C25 8UH X1620     -49.311 146.642   9.959  1.00 26.85    -0.074 C 
HETATM   28  C26 8UH X1620     -49.378 145.671   9.033  1.00 32.38    -0.048 C 
HETATM   29  C27 8UH X1620     -48.154 145.289   8.285  1.00 31.45     0.009 C 
HETATM   30  C28 8UH X1620     -47.376 144.295   8.710  1.00 30.07     0.007 C 
HETATM   31  C29 8UH X1620     -46.146 143.859   8.025  1.00 33.88    -0.062 C 
HETATM   32  C30 8UH X1620     -45.552 142.766   8.552  1.00 33.88     0.007 C 
HETATM   33  C31 8UH X1620     -44.346 142.116   8.034  1.00 33.88     0.001 C 
HETATM   34  C32 8UH X1620     -43.884 141.038   8.676  1.00 33.88     0.007 C 
HETATM   35  C33 8UH X1620     -42.677 140.303   8.234  1.00 33.88    -0.062 C 
HETATM   36  C34 8UH X1620     -42.263 139.283   9.013  1.00 33.88     0.007 C 
HETATM   37  C35 8UH X1620     -41.098 138.446   8.732  1.00 33.88     0.001 C 
HETATM   38  C36 8UH X1620     -51.291 145.373   7.381  1.00 30.09     0.020 C 
HETATM   39  C37 8UH X1620     -50.370 143.455   8.655  1.00 35.00     0.020 C 
HETATM   40  C38 8UH X1620     -48.032 147.304  10.373  1.00 25.72     0.044 C 
HETATM   41  C39 8UH X1620     -45.656 144.573   6.788  1.00 33.88     0.048 C 
HETATM   42  C40 8UH X1620     -42.013 140.695   6.940  1.00 33.88     0.048 C 
HETATM   43  O23 8UH X1620     -52.593 146.349  11.630  1.00 33.60    -0.395 OA
ATOM     44  H23 8UH X1620     -52.353 146.778  12.443  1.00  0.00     0.210 HD
ENDROOT
TORSDOF 12
BEGIN_RES PHE A  61
REMARK  2 active torsions:
REMARK  status: ('A' for Active; 'I' for Inactive)
REMARK    1  A    between atoms: CA   and  CB  
REMARK    2  A    between atoms: CB   and  CG  
ROOT
ATOM      1  CA  PHE A  61     -36.237 128.293  12.768  1.00 39.40     0.164 C 
ENDROOT
BRANCH   1   2
ATOM      2  CB  PHE A  61     -36.813 128.951  11.509  1.00 39.41     0.058 C 
BRANCH   2   3
ATOM      3  CG  PHE A  61     -36.733 128.097  10.266  1.00 39.01    -0.020 A 
ATOM      4  CD2 PHE A  61     -37.745 128.120   9.320  1.00 40.32    -0.004 A 
ATOM      5  CE2 PHE A  61     -37.672 127.331   8.179  1.00 40.20    -0.000 A 
ATOM      6  CZ  PHE A  61     -36.584 126.515   7.969  1.00 40.34    -0.000 A 
ATOM      7  CE1 PHE A  61     -35.568 126.483   8.898  1.00 41.51    -0.000 A 
ATOM      8  CD1 PHE A  61     -35.644 127.266  10.042  1.00 39.94    -0.004 A 
ENDBRANCH   2   3
ENDBRANCH   1   2
END_RES PHE A  61
BEGIN_RES VAL A 134
REMARK  1 active torsions:
REMARK  status: ('A' for Active; 'I' for Inactive)
REMARK    3  A    between atoms: CA   and  CB  
ROOT
ATOM      9  CA  VAL A 134     -29.766 132.051   9.815  1.00 40.75     0.159 C 
ENDROOT
BRANCH   9  10
ATOM     10  CB  VAL A 134     -30.864 132.765   9.009  1.00 40.76     0.029 C 
ATOM     11  CG1 VAL A 134     -31.942 133.311   9.934  1.00 41.76     0.002 C 
ATOM     12  CG2 VAL A 134     -30.290 133.870   8.136  1.00 40.56     0.002 C 
ENDBRANCH   9  10
END_RES VAL A 134
BEGIN_RES TYR A 338
REMARK  3 active torsions:
REMARK  status: ('A' for Active; 'I' for Inactive)
REMARK    4  A    between atoms: CA   and  CB  
REMARK    5  A    between atoms: CB   and  CG  
REMARK    6  A    between atoms: CZ   and  OH  
ROOT
ATOM     13  CA  TYR A 338     -41.631 124.950   6.058  1.00 38.23     0.164 C 
ENDROOT
BRANCH  13  14
ATOM     14  CB  TYR A 338     -41.621 126.456   6.339  1.00 39.15     0.058 C 
BRANCH  14  15
ATOM     15  CG  TYR A 338     -40.400 127.205   5.857  1.00 39.03    -0.020 A 
ATOM     16  CD2 TYR A 338     -40.225 128.541   6.179  1.00 40.65    -0.002 A 
ATOM     17  CE2 TYR A 338     -39.125 129.262   5.741  1.00 40.91     0.024 A 
ATOM     18  CZ  TYR A 338     -38.167 128.646   4.959  1.00 42.33     0.089 A 
ATOM     19  CE1 TYR A 338     -38.317 127.311   4.629  1.00 40.63     0.024 A 
ATOM     20  CD1 TYR A 338     -39.430 126.610   5.065  1.00 39.27    -0.002 A 
BRANCH  18  21
ATOM     21  OH  TYR A 338     -37.076 129.347   4.526  1.00 43.36    -0.359 OA
ATOM     22  HH  TYR A 338     -37.125 130.289   4.409  1.00  0.00     0.217 HD
ENDBRANCH  18  21
ENDBRANCH  14  15
ENDBRANCH  13  14
END_RES TYR A 338
ENDMDL
MODEL 2
REMARK VINA RESULT:    -9.693      1.156     16.251
REMARK INTER + INTRA:         -12.590
REMARK INTER:                 -12.286
REMARK INTRA:                  -0.303
REMARK UNBOUND:                -2.896
REMARK  0 active torsions:
REMARK  status: ('A' for Active; 'I' for Inactive)
REMARK       I    between atoms: C3_3  and  O3_21 
REMARK       I    between atoms: C6_6  and  C7_7 
REMARK       I    between atoms: C8_8  and  C9_9 
REMARK       I    between atoms: C10_10  and  C11_11 
REMARK       I    between atoms: C12_12  and  C13_13 
REMARK       I    between atoms: C14_14  and  C15_15 
REMARK       I    between atoms: C23_25  and  O23_43 
REMARK       I    between atoms: C26_28  and  C27_29 
REMARK       I    between atoms: C28_30  and  C29_31 
REMARK       I    between atoms: C30_32  and  C31_33 
REMARK       I    between atoms: C32_34  and  C33_35 
REMARK       I    between atoms: C34_36  and  C35_37 
ROOT
HETATM    1  C1  8UH X1620     -50.022 144.734  10.134  1.00 33.88    -0.022 C 
HETATM    2  C2  8UH X1620     -49.938 144.742  11.654  1.00 33.88     0.045 C 
HETATM    3  C3  8UH X1620     -48.740 145.479  12.213  1.00 33.88     0.119 C 
HETATM    4  C4  8UH X1620     -48.779 146.884  11.653  1.00 33.88     0.040 C 
HETATM    5  C5  8UH X1620     -48.680 146.826  10.150  1.00 33.88     0.013 C 
HETATM    6  C6  8UH X1620     -49.016 145.701   9.510  1.00 33.88    -0.068 C 
HETATM    7  C7  8UH X1620     -48.209 145.213   8.384  1.00 33.88     0.004 C 
HETATM    8  C8  8UH X1620     -47.314 144.343   8.870  1.00 33.88     0.007 C 
HETATM    9  C9  8UH X1620     -46.275 143.684   8.036  1.00 33.88    -0.062 C 
HETATM   10  C10 8UH X1620     -45.441 142.833   8.680  1.00 33.88     0.007 C 
HETATM   11  C11 8UH X1620     -44.387 142.072   8.018  1.00 33.88     0.001 C 
HETATM   12  C12 8UH X1620     -43.645 141.216   8.704  1.00 33.88     0.007 C 
HETATM   13  C13 8UH X1620     -42.629 140.388   8.030  1.00 33.88    -0.062 C 
HETATM   14  C14 8UH X1620     -42.049 139.445   8.791  1.00 33.88     0.007 C 
HETATM   15  C15 8UH X1620     -41.067 138.468   8.317  1.00 33.88     0.001 C 
HETATM   16  C16 8UH X1620     -51.494 144.987   9.816  1.00 33.88     0.019 C 
HETATM   17  C17 8UH X1620     -49.655 143.322   9.684  1.00 33.88     0.019 C 
HETATM   18  C18 8UH X1620     -47.348 147.509   9.974  1.00 33.88     0.015 C 
HETATM   19  C19 8UH X1620     -46.192 143.957   6.549  1.00 33.88     0.048 C 
HETATM   20  C20 8UH X1620     -42.370 140.569   6.558  1.00 33.88     0.048 C 
HETATM   21  O3  8UH X1620     -48.893 145.507  13.636  1.00 33.88    -0.396 OA
ATOM     22  H3  8UH X1620     -48.141 145.970  13.987  1.00  0.00     0.210 HD
HETATM   23  C21 8UH X1620     -34.158 128.192   7.120  1.00 32.28    -0.018 C 
HETATM   24  C22 8UH X1620     -33.386 127.714   5.903  1.00 32.10     0.045 C 
HETATM   25  C23 8UH X1620     -32.201 128.547   5.475  1.00 30.03     0.123 C 
HETATM   26  C24 8UH X1620     -31.360 128.988   6.642  1.00 27.01     0.066 C 
HETATM   27  C25 8UH X1620     -32.191 129.645   7.698  1.00 26.85    -0.074 C 
HETATM   28  C26 8UH X1620     -33.478 129.316   7.896  1.00 32.38    -0.048 C 
HETATM   29  C27 8UH X1620     -34.275 130.058   8.905  1.00 31.45     0.009 C 
HETATM   30  C28 8UH X1620     -35.003 131.117   8.557  1.00 30.07     0.007 C 
HETATM   31  C29 8UH X1620     -35.817 131.905   9.500  1.00 33.88    -0.062 C 
HETATM   32  C30 8UH X1620     -36.566 132.878   8.938  1.00 33.88     0.007 C 
HETATM   33  C31 8UH X1620     -37.485 133.769   9.651  1.00 33.88     0.001 C 
HETATM   34  C32 8UH X1620     -38.154 134.684   8.943  1.00 33.88     0.007 C 
HETATM   35  C33 8UH X1620     -39.111 135.629   9.563  1.00 33.88    -0.062 C 
HETATM   36  C34 8UH X1620     -39.660 136.560   8.757  1.00 33.88     0.007 C 
HETATM   37  C35 8UH X1620     -40.624 137.569   9.193  1.00 33.88     0.001 C 
HETATM   38  C36 8UH X1620     -34.373 126.934   7.956  1.00 30.09     0.020 C 
HETATM   39  C37 8UH X1620     -35.510 128.711   6.652  1.00 35.00     0.020 C 
HETATM   40  C38 8UH X1620     -31.522 130.808   8.365  1.00 25.72     0.044 C 
HETATM   41  C39 8UH X1620     -35.831 131.573  10.973  1.00 33.88     0.048 C 
HETATM   42  C40 8UH X1620     -39.448 135.478  11.023  1.00 33.88     0.048 C 
HETATM   43  O23 8UH X1620     -31.365 127.744   4.639  1.00 33.60    -0.395 OA
ATOM     44  H23 8UH X1620     -30.620 128.268   4.370  1.00  0.00     0.210 HD
ENDROOT
TORSDOF 12
BEGIN_RES PHE A  61
REMARK  2 active torsions:
REMARK  status: ('A' for Active; 'I' for Inactive)
REMARK    1  A    between atoms: CA   and  CB  
REMARK    2  A    between atoms: CB   and  CG  
ROOT
ATOM      1  CA  PHE A  61     -36.237 128.293  12.768  1.00 39.40     0.164 C 
ENDROOT
BRANCH   1   2
ATOM      2  CB  PHE A  61     -36.813 128.951  11.509  1.00 39.41     0.058 C 
BRANCH   2   3
ATOM      3  CG  PHE A  61     -37.034 128.003  10.355  1.00 39.01    -0.020 A 
ATOM      4  CD2 PHE A  61     -36.307 126.827  10.250  1.00 40.32    -0.004 A 
ATOM      5  CE2 PHE A  61     -36.510 125.957   9.186  1.00 40.20    -0.000 A 
ATOM      6  CZ  PHE A  61     -37.443 126.251   8.218  1.00 40.34    -0.000 A 
ATOM      7  CE1 PHE A  61     -38.175 127.414   8.309  1.00 41.51    -0.000 A 
ATOM      8  CD1 PHE A  61     -37.968 128.287   9.369  1.00 39.94    -0.004 A 
ENDBRANCH   2   3
ENDBRANCH   1   2
END_RES PHE A  61
BEGIN_RES VAL A 134
REMARK  1 active torsions:
REMARK  status: ('A' for Active; 'I' for Inactive)
REMARK    3  A    between atoms: CA   and  CB  
ROOT
ATOM      9  CA  VAL A 134     -29.766 132.051   9.815  1.00 40.75     0.159 C 
ENDROOT
BRANCH   9  10
ATOM     10  CB  VAL A 134     -30.864 132.765   9.009  1.00 40.76     0.029 C 
ATOM     11  CG1 VAL A 134     -32.104 132.983   9.864  1.00 41.76     0.002 C 
ATOM     12  CG2 VAL A 134     -30.369 134.081   8.430  1.00 40.56     0.002 C 
ENDBRANCH   9  10
END_RES VAL A 134
BEGIN_RES TYR A 338
REMARK  3 active torsions:
REMARK  status: ('A' for Active; 'I' for Inactive)
REMARK    4  A    between atoms: CA   and  CB  
REMARK    5  A    between atoms: CB   and  CG  
REMARK    6  A    between atoms: CZ   and  OH  
ROOT
ATOM     13  CA  TYR A 338     -41.631 124.950   6.058  1.00 38.23     0.164 C 
ENDROOT
BRANCH  13  14
ATOM     14  CB  TYR A 338     -41.621 126.456   6.339  1.00 39.15     0.058 C 
BRANCH  14  15
ATOM     15  CG  TYR A 338     -40.415 127.211   5.830  1.00 39.03    -0.020 A 
ATOM     16  CD2 TYR A 338     -40.263 128.558   6.106  1.00 40.65    -0.002 A 
ATOM     17  CE2 TYR A 338     -39.177 129.285   5.642  1.00 40.91     0.024 A 
ATOM     18  CZ  TYR A 338     -38.210 128.661   4.878  1.00 42.33     0.089 A 
ATOM     19  CE1 TYR A 338     -38.337 127.313   4.592  1.00 40.63     0.024 A 
ATOM     20  CD1 TYR A 338     -39.437 126.607   5.054  1.00 39.27    -0.002 A 
BRANCH  18  21
ATOM     21  OH  TYR A 338     -37.133 129.366   4.418  1.00 43.36    -0.359 OA
ATOM     22  HH  TYR A 338     -36.776 130.085   4.928  1.00  0.00     0.217 HD
ENDBRANCH  18  21
ENDBRANCH  14  15
ENDBRANCH  13  14
END_RES TYR A 338
ENDMDL
