MODEL 1
REMARK VINA RESULT:    -9.599      0.000      0.000
REMARK INTER + INTRA:         -12.884
REMARK INTER:                  -9.599
REMARK INTRA:                  -3.285
REMARK UNBOUND:                -3.285
REMARK  0 active torsions:
REMARK  status: ('A' for Active; 'I' for Inactive)
REMARK       I    between atoms: C3_3  and  O3_21 
REMARK       I    between atoms: C6_6  and  C7_7 
REMARK       I    between atoms: C8_8  and  C9_9 
REMARK       I    between atoms: C10_10  and  C11_11 
REMARK       I    between atoms: C12_12  and  C13_13 
REMARK       I    between atoms: C14_14  and  C15_15 
REMARK       I    between atoms: C23_25  and  O23_43 
REMARK       I    between atoms: C26_28  and  C27_29 
REMARK       I    between atoms: C28_30  and  C29_31 
REMARK       I    between atoms: C30_32  and  C31_33 
REMARK       I    between atoms: C32_34  and  C33_35 
REMARK       I    between atoms: C34_36  and  C35_37 
ROOT
HETATM    1  C1  8UH N1621     -34.356 127.010   6.301  1.00 51.88    -0.018 C 
HETATM    2  C2  8UH N1621     -33.956 126.443   4.945  1.00 51.88     0.045 C 
HETATM    3  C3  8UH N1621     -32.785 127.101   4.250  1.00 51.88     0.123 C 
HETATM    4  C4  8UH N1621     -31.709 127.425   5.258  1.00 51.88     0.066 C 
HETATM    5  C5  8UH N1621     -32.269 128.351   6.295  1.00 51.88    -0.074 C 
HETATM    6  C6  8UH N1621     -33.469 128.121   6.831  1.00 51.88    -0.048 C 
HETATM    7  C7  8UH N1621     -34.000 128.924   7.965  1.00 51.88     0.009 C 
HETATM    8  C8  8UH N1621     -34.608 130.098   7.785  1.00 51.88     0.007 C 
HETATM    9  C9  8UH N1621     -35.189 130.901   8.869  1.00 51.88    -0.062 C 
HETATM   10  C10 8UH N1621     -36.086 131.805   8.476  1.00 51.88     0.007 C 
HETATM   11  C11 8UH N1621     -36.847 132.703   9.330  1.00 51.88     0.001 C 
HETATM   12  C12 8UH N1621     -37.697 133.485   8.677  1.00 51.88     0.007 C 
HETATM   13  C13 8UH N1621     -38.597 134.423   9.359  1.00 51.88    -0.062 C 
HETATM   14  C14 8UH N1621     -39.403 135.191   8.615  1.00 51.88     0.007 C 
HETATM   15  C15 8UH N1621     -40.348 136.115   9.228  1.00 51.88     0.001 C 
HETATM   16  C16 8UH N1621     -34.436 125.850   7.280  1.00 51.88     0.020 C 
HETATM   17  C17 8UH N1621     -35.748 127.579   6.153  1.00 51.88     0.020 C 
HETATM   18  C18 8UH N1621     -31.294 129.330   6.873  1.00 51.88     0.044 C 
HETATM   19  C19 8UH N1621     -34.810 130.710  10.304  1.00 51.88     0.048 C 
HETATM   20  C20 8UH N1621     -38.630 134.471  10.855  1.00 51.88     0.048 C 
HETATM   21  O3  8UH N1621     -32.240 126.182   3.299  1.00 51.88    -0.395 OA
ATOM     22  H3  8UH N1621     -31.504 126.596   2.862  1.00  0.00     0.210 HD
HETATM   23  C21 8UH N1621     -49.827 144.935  10.324  1.00 23.07    -0.018 C 
HETATM   24  C22 8UH N1621     -50.709 145.545  11.430  1.00 21.39     0.045 C 
HETATM   25  C23 8UH N1621     -50.027 145.994  12.718  1.00 23.10     0.123 C 
HETATM   26  C24 8UH N1621     -48.573 146.442  12.545  1.00 23.25     0.066 C 
HETATM   27  C25 8UH N1621     -47.723 145.692  11.568  1.00 22.57    -0.074 C 
HETATM   28  C26 8UH N1621     -48.279 144.986  10.526  1.00 22.63    -0.048 C 
HETATM   29  C27 8UH N1621     -47.444 144.252   9.565  1.00 23.01     0.009 C 
HETATM   30  C28 8UH N1621     -46.861 143.056   9.777  1.00 21.85     0.007 C 
HETATM   31  C29 8UH N1621     -45.944 142.376   8.896  1.00 51.88    -0.062 C 
HETATM   32  C30 8UH N1621     -45.541 141.145   9.230  1.00 51.88     0.007 C 
HETATM   33  C31 8UH N1621     -44.622 140.330   8.445  1.00 51.88     0.001 C 
HETATM   34  C32 8UH N1621     -43.801 139.523   9.114  1.00 51.88     0.007 C 
HETATM   35  C33 8UH N1621     -42.837 138.653   8.426  1.00 51.88    -0.062 C 
HETATM   36  C34 8UH N1621     -42.026 137.844   9.125  1.00 51.88     0.007 C 
HETATM   37  C35 8UH N1621     -41.066 136.951   8.481  1.00 51.88     0.001 C 
HETATM   38  C36 8UH N1621     -50.218 145.755   9.081  1.00 21.40     0.020 C 
HETATM   39  C37 8UH N1621     -50.295 143.479  10.108  1.00 21.74     0.020 C 
HETATM   40  C38 8UH N1621     -46.295 145.886  11.938  1.00 21.99     0.044 C 
HETATM   41  C39 8UH N1621     -45.475 143.058   7.648  1.00 51.88     0.048 C 
HETATM   42  C40 8UH N1621     -42.786 138.691   6.940  1.00 51.88     0.048 C 
HETATM   43  O23 8UH N1621     -50.781 147.017  13.341  1.00 24.94    -0.395 OA
ATOM     44  H23 8UH N1621     -50.356 147.296  14.144  1.00  0.00     0.210 HD
ENDROOT
TORSDOF 12
BEGIN_RES PHE A  61
REMARK  2 active torsions:
REMARK  status: ('A' for Active; 'I' for Inactive)
REMARK    1  A    between atoms: CA   and  CB  
REMARK    2  A    between atoms: CB   and  CG  
ROOT
ATOM      1  CA  PHE A  61     -36.237 128.293  12.768  1.00 39.40     0.164 C 
ENDROOT
BRANCH   1   2
ATOM      2  CB  PHE A  61     -36.813 128.951  11.509  1.00 39.41     0.058 C 
BRANCH   2   3
ATOM      3  CG  PHE A  61     -37.027 128.004  10.352  1.00 39.01    -0.020 A 
ATOM      4  CD2 PHE A  61     -36.279 126.843  10.235  1.00 40.32    -0.004 A 
ATOM      5  CE2 PHE A  61     -36.475 125.975   9.169  1.00 40.20    -0.000 A 
ATOM      6  CZ  PHE A  61     -37.422 126.255   8.211  1.00 40.34    -0.000 A 
ATOM      7  CE1 PHE A  61     -38.175 127.403   8.314  1.00 41.51    -0.000 A 
ATOM      8  CD1 PHE A  61     -37.975 128.275   9.376  1.00 39.94    -0.004 A 
ENDBRANCH   2   3
ENDBRANCH   1   2
END_RES PHE A  61
BEGIN_RES VAL A 134
REMARK  1 active torsions:
REMARK  status: ('A' for Active; 'I' for Inactive)
REMARK    3  A    between atoms: CA   and  CB  
ROOT
ATOM      9  CA  VAL A 134     -29.766 132.051   9.815  1.00 40.75     0.159 C 
ENDROOT
BRANCH   9  10
ATOM     10  CB  VAL A 134     -30.864 132.765   9.009  1.00 40.76     0.029 C 
ATOM     11  CG1 VAL A 134     -31.179 131.999   7.733  1.00 41.76     0.002 C 
ATOM     12  CG2 VAL A 134     -32.122 132.975   9.838  1.00 40.56     0.002 C 
ENDBRANCH   9  10
END_RES VAL A 134
BEGIN_RES TYR A 338
REMARK  3 active torsions:
REMARK  status: ('A' for Active; 'I' for Inactive)
REMARK    4  A    between atoms: CA   and  CB  
REMARK    5  A    between atoms: CB   and  CG  
REMARK    6  A    between atoms: CZ   and  OH  
ROOT
ATOM     13  CA  TYR A 338     -41.631 124.950   6.058  1.00 38.23     0.164 C 
ENDROOT
BRANCH  13  14
ATOM     14  CB  TYR A 338     -41.621 126.456   6.339  1.00 39.15     0.058 C 
BRANCH  14  15
ATOM     15  CG  TYR A 338     -40.420 127.212   5.819  1.00 39.03    -0.020 A 
ATOM     16  CD2 TYR A 338     -40.249 128.552   6.125  1.00 40.65    -0.002 A 
ATOM     17  CE2 TYR A 338     -39.169 129.280   5.653  1.00 40.91     0.024 A 
ATOM     18  CZ  TYR A 338     -38.225 128.667   4.851  1.00 42.33     0.089 A 
ATOM     19  CE1 TYR A 338     -38.371 127.327   4.535  1.00 40.63     0.024 A 
ATOM     20  CD1 TYR A 338     -39.466 126.620   5.006  1.00 39.27    -0.002 A 
BRANCH  18  21
ATOM     21  OH  TYR A 338     -37.153 129.374   4.383  1.00 43.36    -0.359 OA
ATOM     22  HH  TYR A 338     -36.805 129.201   3.516  1.00  0.00     0.217 HD
ENDBRANCH  18  21
ENDBRANCH  14  15
ENDBRANCH  13  14
END_RES TYR A 338
ENDMDL
MODEL 2
REMARK VINA RESULT:    -9.301      1.848     16.794
REMARK INTER + INTRA:         -12.586
REMARK INTER:                 -10.479
REMARK INTRA:                  -2.107
REMARK UNBOUND:                -3.285
REMARK  0 active torsions:
REMARK  status: ('A' for Active; 'I' for Inactive)
REMARK       I    between atoms: C3_3  and  O3_21 
REMARK       I    between atoms: C6_6  and  C7_7 
REMARK       I    between atoms: C8_8  and  C9_9 
REMARK       I    between atoms: C10_10  and  C11_11 
REMARK       I    between atoms: C12_12  and  C13_13 
REMARK       I    between atoms: C14_14  and  C15_15 
REMARK       I    between atoms: C23_25  and  O23_43 
REMARK       I    between atoms: C26_28  and  C27_29 
REMARK       I    between atoms: C28_30  and  C29_31 
REMARK       I    between atoms: C30_32  and  C31_33 
REMARK       I    between atoms: C32_34  and  C33_35 
REMARK       I    between atoms: C34_36  and  C35_37 
ROOT
HETATM    1  C1  8UH N1621     -47.435 146.031  13.041  1.00 51.88    -0.018 C 
HETATM    2  C2  8UH N1621     -48.121 146.247  14.383  1.00 51.88     0.045 C 
HETATM    3  C3  8UH N1621     -47.302 146.912  15.468  1.00 51.88     0.123 C 
HETATM    4  C4  8UH N1621     -46.479 148.030  14.875  1.00 51.88     0.066 C 
HETATM    5  C5  8UH N1621     -45.570 147.467  13.824  1.00 51.88    -0.074 C 
HETATM    6  C6  8UH N1621     -46.029 146.591  12.929  1.00 51.88    -0.048 C 
HETATM    7  C7  8UH N1621     -45.206 146.121  11.783  1.00 51.88     0.009 C 
HETATM    8  C8  8UH N1621     -44.325 145.125  11.898  1.00 51.88     0.007 C 
HETATM    9  C9  8UH N1621     -43.527 144.597  10.783  1.00 51.88    -0.062 C 
HETATM   10  C10 8UH N1621     -43.025 143.378  10.983  1.00 51.88     0.007 C 
HETATM   11  C11 8UH N1621     -42.238 142.597  10.044  1.00 51.88     0.001 C 
HETATM   12  C12 8UH N1621     -41.889 141.397  10.490  1.00 51.88     0.007 C 
HETATM   13  C13 8UH N1621     -41.141 140.433   9.675  1.00 51.88    -0.062 C 
HETATM   14  C14 8UH N1621     -40.811 139.255  10.220  1.00 51.88     0.007 C 
HETATM   15  C15 8UH N1621     -40.102 138.238   9.455  1.00 51.88     0.001 C 
HETATM   16  C16 8UH N1621     -48.345 146.598  11.963  1.00 51.88     0.020 C 
HETATM   17  C17 8UH N1621     -47.344 144.539  12.822  1.00 51.88     0.020 C 
HETATM   18  C18 8UH N1621     -44.252 148.163  13.679  1.00 51.88     0.044 C 
HETATM   19  C19 8UH N1621     -43.303 145.365   9.519  1.00 51.88     0.048 C 
HETATM   20  C20 8UH N1621     -40.803 140.761   8.254  1.00 51.88     0.048 C 
HETATM   21  O3  8UH N1621     -48.192 147.480  16.432  1.00 51.88    -0.395 OA
ATOM     22  H3  8UH N1621     -47.678 147.897  17.114  1.00  0.00     0.210 HD
HETATM   23  C21 8UH N1621     -34.431 126.922   6.517  1.00 23.07    -0.018 C 
HETATM   24  C22 8UH N1621     -33.898 126.191   5.270  1.00 21.39     0.045 C 
HETATM   25  C23 8UH N1621     -33.018 126.980   4.306  1.00 23.10     0.123 C 
HETATM   26  C24 8UH N1621     -32.206 128.102   4.959  1.00 23.25     0.066 C 
HETATM   27  C25 8UH N1621     -32.854 128.883   6.058  1.00 22.57    -0.074 C 
HETATM   28  C26 8UH N1621     -33.887 128.358   6.799  1.00 22.63    -0.048 C 
HETATM   29  C27 8UH N1621     -34.521 129.125   7.882  1.00 23.01     0.009 C 
HETATM   30  C28 8UH N1621     -35.424 130.112   7.726  1.00 21.85     0.007 C 
HETATM   31  C29 8UH N1621     -35.968 130.954   8.763  1.00 51.88    -0.062 C 
HETATM   32  C30 8UH N1621     -36.931 131.822   8.434  1.00 51.88     0.007 C 
HETATM   33  C31 8UH N1621     -37.580 132.735   9.366  1.00 51.88     0.001 C 
HETATM   34  C32 8UH N1621     -37.958 133.921   8.892  1.00 51.88     0.007 C 
HETATM   35  C33 8UH N1621     -38.626 134.919   9.740  1.00 51.88    -0.062 C 
HETATM   36  C34 8UH N1621     -39.001 136.104   9.235  1.00 51.88     0.007 C 
HETATM   37  C35 8UH N1621     -39.683 137.116  10.037  1.00 51.88     0.001 C 
HETATM   38  C36 8UH N1621     -34.031 125.978   7.666  1.00 21.40     0.020 C 
HETATM   39  C37 8UH N1621     -35.973 126.938   6.421  1.00 21.74     0.020 C 
HETATM   40  C38 8UH N1621     -32.178 130.204   6.161  1.00 21.99     0.044 C 
HETATM   41  C39 8UH N1621     -35.445 130.835  10.161  1.00 51.88     0.048 C 
HETATM   42  C40 8UH N1621     -38.876 134.580  11.167  1.00 51.88     0.048 C 
HETATM   43  O23 8UH N1621     -32.158 126.105   3.600  1.00 24.94    -0.395 OA
ATOM     44  H23 8UH N1621     -31.609 126.596   2.999  1.00  0.00     0.210 HD
ENDROOT
TORSDOF 12
BEGIN_RES PHE A  61
REMARK  2 active torsions:
REMARK  status: ('A' for Active; 'I' for Inactive)
REMARK    1  A    between atoms: CA   and  CB  
REMARK    2  A    between atoms: CB   and  CG  
ROOT
ATOM      1  CA  PHE A  61     -36.237 128.293  12.768  1.00 39.40     0.164 C 
ENDROOT
BRANCH   1   2
ATOM      2  CB  PHE A  61     -36.813 128.951  11.509  1.00 39.41     0.058 C 
BRANCH   2   3
ATOM      3  CG  PHE A  61     -37.101 127.991  10.379  1.00 39.01    -0.020 A 
ATOM      4  CD2 PHE A  61     -36.383 126.813  10.246  1.00 40.32    -0.004 A 
ATOM      5  CE2 PHE A  61     -36.647 125.933   9.204  1.00 40.20    -0.000 A 
ATOM      6  CZ  PHE A  61     -37.633 126.218   8.287  1.00 40.34    -0.000 A 
ATOM      7  CE1 PHE A  61     -38.357 127.383   8.407  1.00 41.51    -0.000 A 
ATOM      8  CD1 PHE A  61     -38.089 128.267   9.445  1.00 39.94    -0.004 A 
ENDBRANCH   2   3
ENDBRANCH   1   2
END_RES PHE A  61
BEGIN_RES VAL A 134
REMARK  1 active torsions:
REMARK  status: ('A' for Active; 'I' for Inactive)
REMARK    3  A    between atoms: CA   and  CB  
ROOT
ATOM      9  CA  VAL A 134     -29.766 132.051   9.815  1.00 40.75     0.159 C 
ENDROOT
BRANCH   9  10
ATOM     10  CB  VAL A 134     -30.864 132.765   9.009  1.00 40.76     0.029 C 
ATOM     11  CG1 VAL A 134     -30.851 132.307   7.558  1.00 41.76     0.002 C 
ATOM     12  CG2 VAL A 134     -32.238 132.560   9.628  1.00 40.56     0.002 C 
ENDBRANCH   9  10
END_RES VAL A 134
BEGIN_RES TYR A 338
REMARK  3 active torsions:
REMARK  status: ('A' for Active; 'I' for Inactive)
REMARK    4  A    between atoms: CA   and  CB  
REMARK    5  A    between atoms: CB   and  CG  
REMARK    6  A    between atoms: CZ   and  OH  
ROOT
ATOM     13  CA  TYR A 338     -41.631 124.950   6.058  1.00 38.23     0.164 C 
ENDROOT
BRANCH  13  14
ATOM     14  CB  TYR A 338     -41.621 126.456   6.339  1.00 39.15     0.058 C 
BRANCH  14  15
ATOM     15  CG  TYR A 338     -40.415 127.211   5.829  1.00 39.03    -0.020 A 
ATOM     16  CD2 TYR A 338     -40.236 128.545   6.150  1.00 40.65    -0.002 A 
ATOM     17  CE2 TYR A 338     -39.150 129.272   5.688  1.00 40.91     0.024 A 
ATOM     18  CZ  TYR A 338     -38.210 128.661   4.879  1.00 42.33     0.089 A 
ATOM     19  CE1 TYR A 338     -38.364 127.327   4.548  1.00 40.63     0.024 A 
ATOM     20  CD1 TYR A 338     -39.464 126.621   5.010  1.00 39.27    -0.002 A 
BRANCH  18  21
ATOM     21  OH  TYR A 338     -37.132 129.367   4.421  1.00 43.36    -0.359 OA
ATOM     22  HH  TYR A 338     -36.324 129.387   4.919  1.00  0.00     0.217 HD
ENDBRANCH  18  21
ENDBRANCH  14  15
ENDBRANCH  13  14
END_RES TYR A 338
ENDMDL
MODEL 3
REMARK VINA RESULT:    -8.354      1.615     16.857
REMARK INTER + INTRA:         -11.639
REMARK INTER:                 -11.346
REMARK INTRA:                  -0.293
REMARK UNBOUND:                -3.285
REMARK  0 active torsions:
REMARK  status: ('A' for Active; 'I' for Inactive)
REMARK       I    between atoms: C3_3  and  O3_21 
REMARK       I    between atoms: C6_6  and  C7_7 
REMARK       I    between atoms: C8_8  and  C9_9 
REMARK       I    between atoms: C10_10  and  C11_11 
REMARK       I    between atoms: C12_12  and  C13_13 
REMARK       I    between atoms: C14_14  and  C15_15 
REMARK       I    between atoms: C23_25  and  O23_43 
REMARK       I    between atoms: C26_28  and  C27_29 
REMARK       I    between atoms: C28_30  and  C29_31 
REMARK       I    between atoms: C30_32  and  C31_33 
REMARK       I    between atoms: C32_34  and  C33_35 
REMARK       I    between atoms: C34_36  and  C35_37 
ROOT
HETATM    1  C1  8UH N1621     -48.720 146.056  12.403  1.00 51.88    -0.018 C 
HETATM    2  C2  8UH N1621     -49.601 146.176  13.639  1.00 51.88     0.045 C 
HETATM    3  C3  8UH N1621     -48.977 146.812  14.862  1.00 51.88     0.123 C 
HETATM    4  C4  8UH N1621     -48.128 147.990  14.448  1.00 51.88     0.066 C 
HETATM    5  C5  8UH N1621     -47.053 147.517  13.517  1.00 51.88    -0.074 C 
HETATM    6  C6  8UH N1621     -47.338 146.673  12.524  1.00 51.88    -0.048 C 
HETATM    7  C7  8UH N1621     -46.339 146.295  11.490  1.00 51.88     0.009 C 
HETATM    8  C8  8UH N1621     -45.440 145.328  11.686  1.00 51.88     0.007 C 
HETATM    9  C9  8UH N1621     -44.467 144.890  10.676  1.00 51.88    -0.062 C 
HETATM   10  C10 8UH N1621     -43.946 143.682  10.890  1.00 51.88     0.007 C 
HETATM   11  C11 8UH N1621     -42.997 142.982  10.040  1.00 51.88     0.001 C 
HETATM   12  C12 8UH N1621     -42.663 141.774  10.476  1.00 51.88     0.007 C 
HETATM   13  C13 8UH N1621     -41.763 140.882   9.735  1.00 51.88    -0.062 C 
HETATM   14  C14 8UH N1621     -41.463 139.691  10.266  1.00 51.88     0.007 C 
HETATM   15  C15 8UH N1621     -40.606 138.742   9.566  1.00 51.88     0.001 C 
HETATM   16  C16 8UH N1621     -49.489 146.645  11.231  1.00 51.88     0.020 C 
HETATM   17  C17 8UH N1621     -48.531 144.582  12.130  1.00 51.88     0.020 C 
HETATM   18  C18 8UH N1621     -45.760 148.268  13.599  1.00 51.88     0.044 C 
HETATM   19  C19 8UH N1621     -44.098 145.731   9.496  1.00 51.88     0.048 C 
HETATM   20  C20 8UH N1621     -41.239 141.297   8.395  1.00 51.88     0.048 C 
HETATM   21  O3  8UH N1621     -50.022 147.295  15.712  1.00 51.88    -0.395 OA
ATOM     22  H3  8UH N1621     -49.630 147.694  16.480  1.00  0.00     0.210 HD
HETATM   23  C21 8UH N1621     -34.073 127.817   6.962  1.00 23.07    -0.018 C 
HETATM   24  C22 8UH N1621     -33.333 127.174   5.773  1.00 21.39     0.045 C 
HETATM   25  C23 8UH N1621     -32.359 128.044   4.986  1.00 23.10     0.123 C 
HETATM   26  C24 8UH N1621     -31.701 129.160   5.802  1.00 23.25     0.066 C 
HETATM   27  C25 8UH N1621     -32.534 129.857   6.831  1.00 22.57    -0.074 C 
HETATM   28  C26 8UH N1621     -33.640 129.256   7.387  1.00 22.63    -0.048 C 
HETATM   29  C27 8UH N1621     -34.457 129.939   8.401  1.00 23.01     0.009 C 
HETATM   30  C28 8UH N1621     -35.370 130.900   8.161  1.00 21.85     0.007 C 
HETATM   31  C29 8UH N1621     -36.095 131.665   9.146  1.00 51.88    -0.062 C 
HETATM   32  C30 8UH N1621     -37.039 132.512   8.720  1.00 51.88     0.007 C 
HETATM   33  C31 8UH N1621     -37.856 133.350   9.589  1.00 51.88     0.001 C 
HETATM   34  C32 8UH N1621     -38.213 134.544   9.121  1.00 51.88     0.007 C 
HETATM   35  C33 8UH N1621     -39.040 135.470   9.908  1.00 51.88    -0.062 C 
HETATM   36  C34 8UH N1621     -39.391 136.665   9.409  1.00 51.88     0.007 C 
HETATM   37  C35 8UH N1621     -40.226 137.608  10.150  1.00 51.88     0.001 C 
HETATM   38  C36 8UH N1621     -33.801 126.829   8.111  1.00 21.40     0.020 C 
HETATM   39  C37 8UH N1621     -35.584 127.780   6.642  1.00 21.74     0.020 C 
HETATM   40  C38 8UH N1621     -31.940 131.195   7.093  1.00 21.99     0.044 C 
HETATM   41  C39 8UH N1621     -35.775 131.491  10.598  1.00 51.88     0.048 C 
HETATM   42  C40 8UH N1621     -39.478 135.047  11.265  1.00 51.88     0.048 C 
HETATM   43  O23 8UH N1621     -31.368 127.240   4.373  1.00 24.94    -0.395 OA
ATOM     44  H23 8UH N1621     -30.762 127.782   3.883  1.00  0.00     0.210 HD
ENDROOT
TORSDOF 12
BEGIN_RES PHE A  61
REMARK  2 active torsions:
REMARK  status: ('A' for Active; 'I' for Inactive)
REMARK    1  A    between atoms: CA   and  CB  
REMARK    2  A    between atoms: CB   and  CG  
ROOT
ATOM      1  CA  PHE A  61     -36.237 128.293  12.768  1.00 39.40     0.164 C 
ENDROOT
BRANCH   1   2
ATOM      2  CB  PHE A  61     -36.813 128.951  11.509  1.00 39.41     0.058 C 
BRANCH   2   3
ATOM      3  CG  PHE A  61     -37.041 128.002  10.357  1.00 39.01    -0.020 A 
ATOM      4  CD2 PHE A  61     -36.312 126.827  10.248  1.00 40.32    -0.004 A 
ATOM      5  CE2 PHE A  61     -36.521 125.956   9.186  1.00 40.20    -0.000 A 
ATOM      6  CZ  PHE A  61     -37.461 126.247   8.224  1.00 40.34    -0.000 A 
ATOM      7  CE1 PHE A  61     -38.194 127.409   8.319  1.00 41.51    -0.000 A 
ATOM      8  CD1 PHE A  61     -37.982 128.283   9.377  1.00 39.94    -0.004 A 
ENDBRANCH   2   3
ENDBRANCH   1   2
END_RES PHE A  61
BEGIN_RES VAL A 134
REMARK  1 active torsions:
REMARK  status: ('A' for Active; 'I' for Inactive)
REMARK    3  A    between atoms: CA   and  CB  
ROOT
ATOM      9  CA  VAL A 134     -29.766 132.051   9.815  1.00 40.75     0.159 C 
ENDROOT
BRANCH   9  10
ATOM     10  CB  VAL A 134     -30.864 132.765   9.009  1.00 40.76     0.029 C 
ATOM     11  CG1 VAL A 134     -32.119 132.943   9.850  1.00 41.76     0.002 C 
ATOM     12  CG2 VAL A 134     -30.383 134.102   8.467  1.00 40.56     0.002 C 
ENDBRANCH   9  10
END_RES VAL A 134
BEGIN_RES TYR A 338
REMARK  3 active torsions:
REMARK  status: ('A' for Active; 'I' for Inactive)
REMARK    4  A    between atoms: CA   and  CB  
REMARK    5  A    between atoms: CB   and  CG  
REMARK    6  A    between atoms: CZ   and  OH  
ROOT
ATOM     13  CA  TYR A 338     -41.631 124.950   6.058  1.00 38.23     0.164 C 
ENDROOT
BRANCH  13  14
ATOM     14  CB  TYR A 338     -41.621 126.456   6.339  1.00 39.15     0.058 C 
BRANCH  14  15
ATOM     15  CG  TYR A 338     -40.413 127.210   5.832  1.00 39.03    -0.020 A 
ATOM     16  CD2 TYR A 338     -40.253 128.554   6.123  1.00 40.65    -0.002 A 
ATOM     17  CE2 TYR A 338     -39.166 129.280   5.661  1.00 40.91     0.024 A 
ATOM     18  CZ  TYR A 338     -38.206 128.660   4.885  1.00 42.33     0.089 A 
ATOM     19  CE1 TYR A 338     -38.342 127.316   4.584  1.00 40.63     0.024 A 
ATOM     20  CD1 TYR A 338     -39.443 126.610   5.044  1.00 39.27    -0.002 A 
BRANCH  18  21
ATOM     21  OH  TYR A 338     -37.128 129.365   4.427  1.00 43.36    -0.359 OA
ATOM     22  HH  TYR A 338     -36.403 129.564   5.008  1.00  0.00     0.217 HD
ENDBRANCH  18  21
ENDBRANCH  14  15
ENDBRANCH  13  14
END_RES TYR A 338
ENDMDL
