MODEL 1
REMARK VINA RESULT:   -11.769      0.000      0.000
REMARK INTER + INTRA:         -11.915
REMARK INTER:                 -11.769
REMARK INTRA:                  -0.146
REMARK UNBOUND:                -0.146
REMARK  0 active torsions:
REMARK  status: ('A' for Active; 'I' for Inactive)
REMARK       I    between atoms: C3_3  and  O3_21 
REMARK       I    between atoms: C6_6  and  C7_7 
REMARK       I    between atoms: C8_8  and  C9_9 
REMARK       I    between atoms: C10_10  and  C11_11 
REMARK       I    between atoms: C12_12  and  C13_13 
REMARK       I    between atoms: C14_14  and  C15_15 
REMARK       I    between atoms: C23_25  and  O23_43 
REMARK       I    between atoms: C26_28  and  C27_29 
REMARK       I    between atoms: C28_30  and  C29_31 
REMARK       I    between atoms: C30_32  and  C31_33 
REMARK       I    between atoms: C32_34  and  C33_35 
REMARK       I    between atoms: C34_36  and  C35_37 
ROOT
HETATM    1  C1  8UH X1621     -34.182 127.894   6.827  1.00 31.86    -0.018 C 
HETATM    2  C2  8UH X1621     -33.652 127.695   5.404  1.00 31.86     0.045 C 
HETATM    3  C3  8UH X1621     -32.359 128.418   5.042  1.00 31.86     0.123 C 
HETATM    4  C4  8UH X1621     -31.583 128.842   6.281  1.00 31.86     0.066 C 
HETATM    5  C5  8UH X1621     -32.518 129.668   7.112  1.00 31.86    -0.074 C 
HETATM    6  C6  8UH X1621     -33.649 129.114   7.546  1.00 31.86    -0.048 C 
HETATM    7  C7  8UH X1621     -34.504 129.748   8.572  1.00 31.86     0.009 C 
HETATM    8  C8  8UH X1621     -34.561 131.082   8.638  1.00 31.86     0.007 C 
HETATM    9  C9  8UH X1621     -35.592 131.701   9.501  1.00 31.86    -0.062 C 
HETATM   10  C10 8UH X1621     -35.990 132.947   9.174  1.00 31.86     0.007 C 
HETATM   11  C11 8UH X1621     -37.111 133.628   9.820  1.00 31.86     0.001 C 
HETATM   12  C12 8UH X1621     -37.611 134.729   9.263  1.00 31.86     0.007 C 
HETATM   13  C13 8UH X1621     -38.801 135.406   9.825  1.00 31.86    -0.062 C 
HETATM   14  C14 8UH X1621     -39.324 136.427   9.114  1.00 31.86     0.007 C 
HETATM   15  C15 8UH X1621     -40.511 137.184   9.516  1.00 31.86     0.001 C 
HETATM   16  C16 8UH X1621     -33.755 126.707   7.688  1.00 31.86     0.020 C 
HETATM   17  C17 8UH X1621     -35.702 127.911   6.764  1.00 31.86     0.020 C 
HETATM   18  C18 8UH X1621     -31.610 130.448   8.021  1.00 31.86     0.044 C 
HETATM   19  C19 8UH X1621     -36.215 130.903  10.624  1.00 31.86     0.048 C 
HETATM   20  C20 8UH X1621     -39.379 134.906  11.126  1.00 31.86     0.048 C 
HETATM   21  O3  8UH X1621     -31.587 127.497   4.275  1.00 31.86    -0.395 OA
ATOM     22  H3  8UH X1621     -32.071 127.233   3.502  1.00  0.00     0.210 HD
HETATM   23  C21 8UH X1621     -49.819 146.434   9.566  1.00 27.99    -0.018 C 
HETATM   24  C22 8UH X1621     -51.238 146.267  10.124  1.00 27.99     0.045 C 
HETATM   25  C23 8UH X1621     -51.341 145.465  11.414  1.00 27.99     0.123 C 
HETATM   26  C24 8UH X1621     -50.198 145.865  12.326  1.00 27.99     0.066 C 
HETATM   27  C25 8UH X1621     -48.952 145.389  11.639  1.00 27.99    -0.074 C 
HETATM   28  C26 8UH X1621     -48.713 145.779  10.382  1.00 27.99    -0.048 C 
HETATM   29  C27 8UH X1621     -47.477 145.397   9.661  1.00 27.99     0.009 C 
HETATM   30  C28 8UH X1621     -46.982 144.172   9.875  1.00 27.99     0.007 C 
HETATM   31  C29 8UH X1621     -45.899 143.654   8.995  1.00 31.86    -0.062 C 
HETATM   32  C30 8UH X1621     -45.408 142.440   9.321  1.00 31.86     0.007 C 
HETATM   33  C31 8UH X1621     -44.309 141.782   8.615  1.00 31.86     0.001 C 
HETATM   34  C32 8UH X1621     -43.813 140.649   9.108  1.00 31.86     0.007 C 
HETATM   35  C33 8UH X1621     -42.652 139.974   8.490  1.00 31.86    -0.062 C 
HETATM   36  C34 8UH X1621     -42.136 138.923   9.161  1.00 31.86     0.007 C 
HETATM   37  C35 8UH X1621     -40.957 138.164   8.737  1.00 31.86     0.001 C 
HETATM   38  C36 8UH X1621     -49.470 147.923   9.627  1.00 27.99     0.020 C 
HETATM   39  C37 8UH X1621     -49.813 145.957   8.115  1.00 27.99     0.020 C 
HETATM   40  C38 8UH X1621     -47.855 145.139  12.639  1.00 27.99     0.044 C 
HETATM   41  C39 8UH X1621     -45.426 144.477   7.823  1.00 31.86     0.048 C 
HETATM   42  C40 8UH X1621     -42.084 140.512   7.203  1.00 31.86     0.048 C 
HETATM   43  O23 8UH X1621     -52.600 145.713  12.054  1.00 27.99    -0.395 OA
ATOM     44  H23 8UH X1621     -53.316 145.462  11.482  1.00  0.00     0.210 HD
ENDROOT
TORSDOF 12
BEGIN_RES PHE A  61
REMARK  2 active torsions:
REMARK  status: ('A' for Active; 'I' for Inactive)
REMARK    1  A    between atoms: CA   and  CB  
REMARK    2  A    between atoms: CB   and  CG  
ROOT
ATOM      1  CA  PHE A  61     -36.237 128.293  12.768  1.00 39.40     0.164 C 
ENDROOT
BRANCH   1   2
ATOM      2  CB  PHE A  61     -36.813 128.951  11.509  1.00 39.41     0.058 C 
BRANCH   2   3
ATOM      3  CG  PHE A  61     -37.048 128.000  10.360  1.00 39.01    -0.020 A 
ATOM      4  CD2 PHE A  61     -36.274 126.860  10.210  1.00 40.32    -0.004 A 
ATOM      5  CE2 PHE A  61     -36.490 125.988   9.150  1.00 40.20    -0.000 A 
ATOM      6  CZ  PHE A  61     -37.483 126.243   8.232  1.00 40.34    -0.000 A 
ATOM      7  CE1 PHE A  61     -38.262 127.370   8.368  1.00 41.51    -0.000 A 
ATOM      8  CD1 PHE A  61     -38.042 128.246   9.424  1.00 39.94    -0.004 A 
ENDBRANCH   2   3
ENDBRANCH   1   2
END_RES PHE A  61
BEGIN_RES VAL A 134
REMARK  1 active torsions:
REMARK  status: ('A' for Active; 'I' for Inactive)
REMARK    3  A    between atoms: CA   and  CB  
ROOT
ATOM      9  CA  VAL A 134     -29.766 132.051   9.815  1.00 40.75     0.159 C 
ENDROOT
BRANCH   9  10
ATOM     10  CB  VAL A 134     -30.864 132.765   9.009  1.00 40.76     0.029 C 
ATOM     11  CG1 VAL A 134     -32.085 133.028   9.878  1.00 41.76     0.002 C 
ATOM     12  CG2 VAL A 134     -30.355 134.057   8.388  1.00 40.56     0.002 C 
ENDBRANCH   9  10
END_RES VAL A 134
BEGIN_RES TYR A 338
REMARK  3 active torsions:
REMARK  status: ('A' for Active; 'I' for Inactive)
REMARK    4  A    between atoms: CA   and  CB  
REMARK    5  A    between atoms: CB   and  CG  
REMARK    6  A    between atoms: CZ   and  OH  
ROOT
ATOM     13  CA  TYR A 338     -41.631 124.950   6.058  1.00 38.23     0.164 C 
ENDROOT
BRANCH  13  14
ATOM     14  CB  TYR A 338     -41.621 126.456   6.339  1.00 39.15     0.058 C 
BRANCH  14  15
ATOM     15  CG  TYR A 338     -40.418 127.212   5.822  1.00 39.03    -0.020 A 
ATOM     16  CD2 TYR A 338     -40.242 128.549   6.137  1.00 40.65    -0.002 A 
ATOM     17  CE2 TYR A 338     -39.160 129.277   5.668  1.00 40.91     0.024 A 
ATOM     18  CZ  TYR A 338     -38.221 128.665   4.860  1.00 42.33     0.089 A 
ATOM     19  CE1 TYR A 338     -38.372 127.329   4.535  1.00 40.63     0.024 A 
ATOM     20  CD1 TYR A 338     -39.468 126.621   5.003  1.00 39.27    -0.002 A 
BRANCH  18  21
ATOM     21  OH  TYR A 338     -37.147 129.372   4.395  1.00 43.36    -0.359 OA
ATOM     22  HH  TYR A 338     -36.859 130.159   4.843  1.00  0.00     0.217 HD
ENDBRANCH  18  21
ENDBRANCH  14  15
ENDBRANCH  13  14
END_RES TYR A 338
ENDMDL
MODEL 2
REMARK VINA RESULT:   -10.596      1.783     16.785
REMARK INTER + INTRA:         -10.741
REMARK INTER:                  -8.105
REMARK INTRA:                  -2.636
REMARK UNBOUND:                -0.146
REMARK  0 active torsions:
REMARK  status: ('A' for Active; 'I' for Inactive)
REMARK       I    between atoms: C3_3  and  O3_21 
REMARK       I    between atoms: C6_6  and  C7_7 
REMARK       I    between atoms: C8_8  and  C9_9 
REMARK       I    between atoms: C10_10  and  C11_11 
REMARK       I    between atoms: C12_12  and  C13_13 
REMARK       I    between atoms: C14_14  and  C15_15 
REMARK       I    between atoms: C23_25  and  O23_43 
REMARK       I    between atoms: C26_28  and  C27_29 
REMARK       I    between atoms: C28_30  and  C29_31 
REMARK       I    between atoms: C30_32  and  C31_33 
REMARK       I    between atoms: C32_34  and  C33_35 
REMARK       I    between atoms: C34_36  and  C35_37 
ROOT
HETATM    1  C1  8UH X1621     -47.493 147.244   9.709  1.00 31.86    -0.018 C 
HETATM    2  C2  8UH X1621     -48.993 147.030   9.933  1.00 31.86     0.045 C 
HETATM    3  C3  8UH X1621     -49.461 146.875  11.376  1.00 31.86     0.123 C 
HETATM    4  C4  8UH X1621     -48.432 147.407  12.364  1.00 31.86     0.066 C 
HETATM    5  C5  8UH X1621     -47.146 146.694  12.070  1.00 31.86    -0.074 C 
HETATM    6  C6  8UH X1621     -46.606 146.819  10.859  1.00 31.86    -0.048 C 
HETATM    7  C7  8UH X1621     -45.230 146.375  10.552  1.00 31.86     0.009 C 
HETATM    8  C8  8UH X1621     -44.724 145.323  11.202  1.00 31.86     0.007 C 
HETATM    9  C9  8UH X1621     -43.448 144.745  10.723  1.00 31.86    -0.062 C 
HETATM   10  C10 8UH X1621     -43.226 143.445  11.004  1.00 31.86     0.007 C 
HETATM   11  C11 8UH X1621     -42.101 142.687  10.461  1.00 31.86     0.001 C 
HETATM   12  C12 8UH X1621     -42.102 141.359  10.561  1.00 31.86     0.007 C 
HETATM   13  C13 8UH X1621     -41.034 140.537   9.950  1.00 31.86    -0.062 C 
HETATM   14  C14 8UH X1621     -41.194 139.197   9.975  1.00 31.86     0.007 C 
HETATM   15  C15 8UH X1621     -40.245 138.246   9.394  1.00 31.86     0.001 C 
HETATM   16  C16 8UH X1621     -47.223 148.736   9.530  1.00 31.86     0.020 C 
HETATM   17  C17 8UH X1621     -47.105 146.534   8.422  1.00 31.86     0.020 C 
HETATM   18  C18 8UH X1621     -46.338 146.862  13.327  1.00 31.86     0.044 C 
HETATM   19  C19 8UH X1621     -42.513 145.578   9.876  1.00 31.86     0.048 C 
HETATM   20  C20 8UH X1621     -39.855 141.230   9.312  1.00 31.86     0.048 C 
HETATM   21  O3  8UH X1621     -50.672 147.619  11.487  1.00 31.86    -0.395 OA
ATOM     22  H3  8UH X1621     -51.314 147.286  10.870  1.00  0.00     0.210 HD
HETATM   23  C21 8UH X1621     -34.527 126.848   6.298  1.00 27.99    -0.018 C 
HETATM   24  C22 8UH X1621     -33.667 126.592   5.053  1.00 27.99     0.045 C 
HETATM   25  C23 8UH X1621     -32.733 127.728   4.661  1.00 27.99     0.123 C 
HETATM   26  C24 8UH X1621     -32.112 128.302   5.920  1.00 27.99     0.066 C 
HETATM   27  C25 8UH X1621     -33.246 128.937   6.672  1.00 27.99    -0.074 C 
HETATM   28  C26 8UH X1621     -34.322 128.200   6.968  1.00 27.99    -0.048 C 
HETATM   29  C27 8UH X1621     -35.452 128.740   7.757  1.00 27.99     0.009 C 
HETATM   30  C28 8UH X1621     -35.798 130.019   7.559  1.00 27.99     0.007 C 
HETATM   31  C29 8UH X1621     -37.072 130.532   8.134  1.00 31.86    -0.062 C 
HETATM   32  C30 8UH X1621     -37.310 131.848   7.949  1.00 31.86     0.007 C 
HETATM   33  C31 8UH X1621     -38.477 132.553   8.479  1.00 31.86     0.001 C 
HETATM   34  C32 8UH X1621     -38.541 133.877   8.354  1.00 31.86     0.007 C 
HETATM   35  C33 8UH X1621     -39.651 134.661   8.936  1.00 31.86    -0.062 C 
HETATM   36  C34 8UH X1621     -39.535 136.004   8.887  1.00 31.86     0.007 C 
HETATM   37  C35 8UH X1621     -40.503 136.944   9.457  1.00 31.86     0.001 C 
HETATM   38  C36 8UH X1621     -34.093 125.850   7.374  1.00 27.99     0.020 C 
HETATM   39  C37 8UH X1621     -35.990 126.612   5.929  1.00 27.99     0.020 C 
HETATM   40  C38 8UH X1621     -32.742 130.041   7.560  1.00 27.99     0.044 C 
HETATM   41  C39 8UH X1621     -37.999 129.592   8.862  1.00 31.86     0.048 C 
HETATM   42  C40 8UH X1621     -40.802 133.939   9.587  1.00 31.86     0.048 C 
HETATM   43  O23 8UH X1621     -31.712 127.248   3.776  1.00 27.99    -0.395 OA
ATOM     44  H23 8UH X1621     -32.101 126.889   2.987  1.00  0.00     0.210 HD
ENDROOT
TORSDOF 12
BEGIN_RES PHE A  61
REMARK  2 active torsions:
REMARK  status: ('A' for Active; 'I' for Inactive)
REMARK    1  A    between atoms: CA   and  CB  
REMARK    2  A    between atoms: CB   and  CG  
ROOT
ATOM      1  CA  PHE A  61     -36.237 128.293  12.768  1.00 39.40     0.164 C 
ENDROOT
BRANCH   1   2
ATOM      2  CB  PHE A  61     -36.813 128.951  11.509  1.00 39.41     0.058 C 
BRANCH   2   3
ATOM      3  CG  PHE A  61     -36.389 130.386  11.305  1.00 39.01    -0.020 A 
ATOM      4  CD2 PHE A  61     -37.230 131.432  11.649  1.00 40.32    -0.004 A 
ATOM      5  CE2 PHE A  61     -36.839 132.752  11.458  1.00 40.20    -0.000 A 
ATOM      6  CZ  PHE A  61     -35.603 133.040  10.925  1.00 40.34    -0.000 A 
ATOM      7  CE1 PHE A  61     -34.755 132.011  10.579  1.00 41.51    -0.000 A 
ATOM      8  CD1 PHE A  61     -35.148 130.691  10.764  1.00 39.94    -0.004 A 
ENDBRANCH   2   3
ENDBRANCH   1   2
END_RES PHE A  61
BEGIN_RES VAL A 134
REMARK  1 active torsions:
REMARK  status: ('A' for Active; 'I' for Inactive)
REMARK    3  A    between atoms: CA   and  CB  
ROOT
ATOM      9  CA  VAL A 134     -29.766 132.051   9.815  1.00 40.75     0.159 C 
ENDROOT
BRANCH   9  10
ATOM     10  CB  VAL A 134     -30.864 132.765   9.009  1.00 40.76     0.029 C 
ATOM     11  CG1 VAL A 134     -31.040 132.113   7.645  1.00 41.76     0.002 C 
ATOM     12  CG2 VAL A 134     -32.183 132.800   9.766  1.00 40.56     0.002 C 
ENDBRANCH   9  10
END_RES VAL A 134
BEGIN_RES TYR A 338
REMARK  3 active torsions:
REMARK  status: ('A' for Active; 'I' for Inactive)
REMARK    4  A    between atoms: CA   and  CB  
REMARK    5  A    between atoms: CB   and  CG  
REMARK    6  A    between atoms: CZ   and  OH  
ROOT
ATOM     13  CA  TYR A 338     -41.631 124.950   6.058  1.00 38.23     0.164 C 
ENDROOT
BRANCH  13  14
ATOM     14  CB  TYR A 338     -41.621 126.456   6.339  1.00 39.15     0.058 C 
BRANCH  14  15
ATOM     15  CG  TYR A 338     -40.404 127.207   5.850  1.00 39.03    -0.020 A 
ATOM     16  CD2 TYR A 338     -40.225 128.540   6.176  1.00 40.65    -0.002 A 
ATOM     17  CE2 TYR A 338     -39.129 129.264   5.732  1.00 40.91     0.024 A 
ATOM     18  CZ  TYR A 338     -38.178 128.650   4.939  1.00 42.33     0.089 A 
ATOM     19  CE1 TYR A 338     -38.331 127.317   4.603  1.00 40.63     0.024 A 
ATOM     20  CD1 TYR A 338     -39.442 126.614   5.047  1.00 39.27    -0.002 A 
BRANCH  18  21
ATOM     21  OH  TYR A 338     -37.090 129.352   4.499  1.00 43.36    -0.359 OA
ATOM     22  HH  TYR A 338     -36.478 129.730   5.120  1.00  0.00     0.217 HD
ENDBRANCH  18  21
ENDBRANCH  14  15
ENDBRANCH  13  14
END_RES TYR A 338
ENDMDL
MODEL 3
REMARK VINA RESULT:   -10.314      2.288      3.482
REMARK INTER + INTRA:         -10.459
REMARK INTER:                  -7.374
REMARK INTRA:                  -3.085
REMARK UNBOUND:                -0.146
REMARK  0 active torsions:
REMARK  status: ('A' for Active; 'I' for Inactive)
REMARK       I    between atoms: C3_3  and  O3_21 
REMARK       I    between atoms: C6_6  and  C7_7 
REMARK       I    between atoms: C8_8  and  C9_9 
REMARK       I    between atoms: C10_10  and  C11_11 
REMARK       I    between atoms: C12_12  and  C13_13 
REMARK       I    between atoms: C14_14  and  C15_15 
REMARK       I    between atoms: C23_25  and  O23_43 
REMARK       I    between atoms: C26_28  and  C27_29 
REMARK       I    between atoms: C28_30  and  C29_31 
REMARK       I    between atoms: C30_32  and  C31_33 
REMARK       I    between atoms: C32_34  and  C33_35 
REMARK       I    between atoms: C34_36  and  C35_37 
ROOT
HETATM    1  C1  8UH X1621     -33.581 130.854   7.585  1.00 31.86    -0.018 C 
HETATM    2  C2  8UH X1621     -32.116 131.099   7.960  1.00 31.86     0.045 C 
HETATM    3  C3  8UH X1621     -31.735 130.897   9.423  1.00 31.86     0.123 C 
HETATM    4  C4  8UH X1621     -32.765 130.056  10.164  1.00 31.86     0.066 C 
HETATM    5  C5  8UH X1621     -34.088 130.735   9.978  1.00 31.86    -0.074 C 
HETATM    6  C6  8UH X1621     -34.556 130.901   8.742  1.00 31.86    -0.048 C 
HETATM    7  C7  8UH X1621     -35.946 131.318   8.466  1.00 31.86     0.009 C 
HETATM    8  C8  8UH X1621     -36.569 132.125   9.331  1.00 31.86     0.007 C 
HETATM    9  C9  8UH X1621     -37.862 132.724   8.931  1.00 31.86    -0.062 C 
HETATM   10  C10 8UH X1621     -38.203 133.886   9.525  1.00 31.86     0.007 C 
HETATM   11  C11 8UH X1621     -39.358 134.685   9.122  1.00 31.86     0.001 C 
HETATM   12  C12 8UH X1621     -39.470 135.936   9.563  1.00 31.86     0.007 C 
HETATM   13  C13 8UH X1621     -40.571 136.818   9.115  1.00 31.86    -0.062 C 
HETATM   14  C14 8UH X1621     -40.521 138.111   9.499  1.00 31.86     0.007 C 
HETATM   15  C15 8UH X1621     -41.515 139.118   9.122  1.00 31.86     0.001 C 
HETATM   16  C16 8UH X1621     -33.719 129.448   7.005  1.00 31.86     0.020 C 
HETATM   17  C17 8UH X1621     -33.962 131.853   6.503  1.00 31.86     0.020 C 
HETATM   18  C18 8UH X1621     -34.941 130.188  11.088  1.00 31.86     0.044 C 
HETATM   19  C19 8UH X1621     -38.683 132.086   7.834  1.00 31.86     0.048 C 
HETATM   20  C20 8UH X1621     -41.655 136.243   8.239  1.00 31.86     0.048 C 
HETATM   21  O3  8UH X1621     -30.474 130.232   9.420  1.00 31.86    -0.395 OA
ATOM     22  H3  8UH X1621     -29.832 130.757   8.957  1.00  0.00     0.210 HD
HETATM   23  C21 8UH X1621     -47.985 150.527   8.712  1.00 27.99    -0.018 C 
HETATM   24  C22 8UH X1621     -48.800 151.046   7.520  1.00 27.99     0.045 C 
HETATM   25  C23 8UH X1621     -49.618 149.996   6.781  1.00 27.99     0.123 C 
HETATM   26  C24 8UH X1621     -50.251 149.070   7.801  1.00 27.99     0.066 C 
HETATM   27  C25 8UH X1621     -49.108 148.334   8.438  1.00 27.99    -0.074 C 
HETATM   28  C26 8UH X1621     -48.112 149.035   8.991  1.00 27.99    -0.048 C 
HETATM   29  C27 8UH X1621     -46.981 148.381   9.688  1.00 27.99     0.009 C 
HETATM   30  C28 8UH X1621     -46.523 147.226   9.188  1.00 27.99     0.007 C 
HETATM   31  C29 8UH X1621     -45.242 146.663   9.697  1.00 31.86    -0.062 C 
HETATM   32  C30 8UH X1621     -44.888 145.463   9.192  1.00 31.86     0.007 C 
HETATM   33  C31 8UH X1621     -43.695 144.721   9.600  1.00 31.86     0.001 C 
HETATM   34  C32 8UH X1621     -43.517 143.484   9.140  1.00 31.86     0.007 C 
HETATM   35  C33 8UH X1621     -42.377 142.649   9.573  1.00 31.86    -0.062 C 
HETATM   36  C34 8UH X1621     -42.380 141.362   9.168  1.00 31.86     0.007 C 
HETATM   37  C35 8UH X1621     -41.368 140.371   9.539  1.00 31.86     0.001 C 
HETATM   38  C36 8UH X1621     -48.552 151.173   9.977  1.00 27.99     0.020 C 
HETATM   39  C37 8UH X1621     -46.529 150.948   8.519  1.00 27.99     0.020 C 
HETATM   40  C38 8UH X1621     -49.563 147.003   8.972  1.00 27.99     0.044 C 
HETATM   41  C39 8UH X1621     -44.431 147.436  10.707  1.00 31.86     0.048 C 
HETATM   42  C40 8UH X1621     -41.322 143.247  10.467  1.00 31.86     0.048 C 
HETATM   43  O23 8UH X1621     -50.630 150.624   5.983  1.00 27.99    -0.395 OA
ATOM     44  H23 8UH X1621     -50.232 151.204   5.344  1.00  0.00     0.210 HD
ENDROOT
TORSDOF 12
BEGIN_RES PHE A  61
REMARK  2 active torsions:
REMARK  status: ('A' for Active; 'I' for Inactive)
REMARK    1  A    between atoms: CA   and  CB  
REMARK    2  A    between atoms: CB   and  CG  
ROOT
ATOM      1  CA  PHE A  61     -36.237 128.293  12.768  1.00 39.40     0.164 C 
ENDROOT
BRANCH   1   2
ATOM      2  CB  PHE A  61     -36.813 128.951  11.509  1.00 39.41     0.058 C 
BRANCH   2   3
ATOM      3  CG  PHE A  61     -36.627 128.148  10.244  1.00 39.01    -0.020 A 
ATOM      4  CD2 PHE A  61     -37.602 128.133   9.260  1.00 40.32    -0.004 A 
ATOM      5  CE2 PHE A  61     -37.431 127.391   8.098  1.00 40.20    -0.000 A 
ATOM      6  CZ  PHE A  61     -36.282 126.659   7.906  1.00 40.34    -0.000 A 
ATOM      7  CE1 PHE A  61     -35.301 126.664   8.873  1.00 41.51    -0.000 A 
ATOM      8  CD1 PHE A  61     -35.475 127.401  10.038  1.00 39.94    -0.004 A 
ENDBRANCH   2   3
ENDBRANCH   1   2
END_RES PHE A  61
BEGIN_RES VAL A 134
REMARK  1 active torsions:
REMARK  status: ('A' for Active; 'I' for Inactive)
REMARK    3  A    between atoms: CA   and  CB  
ROOT
ATOM      9  CA  VAL A 134     -29.766 132.051   9.815  1.00 40.75     0.159 C 
ENDROOT
BRANCH   9  10
ATOM     10  CB  VAL A 134     -30.864 132.765   9.009  1.00 40.76     0.029 C 
ATOM     11  CG1 VAL A 134     -31.839 133.473   9.938  1.00 41.76     0.002 C 
ATOM     12  CG2 VAL A 134     -30.276 133.739   8.000  1.00 40.56     0.002 C 
ENDBRANCH   9  10
END_RES VAL A 134
BEGIN_RES TYR A 338
REMARK  3 active torsions:
REMARK  status: ('A' for Active; 'I' for Inactive)
REMARK    4  A    between atoms: CA   and  CB  
REMARK    5  A    between atoms: CB   and  CG  
REMARK    6  A    between atoms: CZ   and  OH  
ROOT
ATOM     13  CA  TYR A 338     -41.631 124.950   6.058  1.00 38.23     0.164 C 
ENDROOT
BRANCH  13  14
ATOM     14  CB  TYR A 338     -41.621 126.456   6.339  1.00 39.15     0.058 C 
BRANCH  14  15
ATOM     15  CG  TYR A 338     -40.387 127.200   5.883  1.00 39.03    -0.020 A 
ATOM     16  CD2 TYR A 338     -40.213 128.534   6.209  1.00 40.65    -0.002 A 
ATOM     17  CE2 TYR A 338     -39.102 129.252   5.795  1.00 40.91     0.024 A 
ATOM     18  CZ  TYR A 338     -38.130 128.632   5.032  1.00 42.33     0.089 A 
ATOM     19  CE1 TYR A 338     -38.279 127.298   4.697  1.00 40.63     0.024 A 
ATOM     20  CD1 TYR A 338     -39.405 126.602   5.110  1.00 39.27    -0.002 A 
BRANCH  18  21
ATOM     21  OH  TYR A 338     -37.028 129.329   4.621  1.00 43.36    -0.359 OA
ATOM     22  HH  TYR A 338     -36.200 129.230   5.076  1.00  0.00     0.217 HD
ENDBRANCH  18  21
ENDBRANCH  14  15
ENDBRANCH  13  14
END_RES TYR A 338
ENDMDL
