MODEL 1
REMARK VINA RESULT:   -11.430      0.000      0.000
REMARK INTER + INTRA:         -12.366
REMARK INTER:                 -11.430
REMARK INTRA:                  -0.936
REMARK UNBOUND:                -0.936
REMARK  0 active torsions:
REMARK  status: ('A' for Active; 'I' for Inactive)
REMARK       I    between atoms: C3_3  and  O3_21 
REMARK       I    between atoms: C6_6  and  C7_7 
REMARK       I    between atoms: C8_8  and  C9_9 
REMARK       I    between atoms: C10_10  and  C11_11 
REMARK       I    between atoms: C12_12  and  C13_13 
REMARK       I    between atoms: C14_14  and  C15_15 
REMARK       I    between atoms: C23_25  and  O23_43 
REMARK       I    between atoms: C26_28  and  C27_29 
REMARK       I    between atoms: C28_30  and  C29_31 
REMARK       I    between atoms: C30_32  and  C31_33 
REMARK       I    between atoms: C32_34  and  C33_35 
REMARK       I    between atoms: C34_36  and  C35_37 
ROOT
HETATM    1  C1  8UH D3620     -50.568 145.230  10.785  1.00 21.49    -0.018 C 
HETATM    2  C2  8UH D3620     -51.380 145.778  11.979  1.00 21.50     0.045 C 
HETATM    3  C3  8UH D3620     -50.821 146.945  12.801  1.00 22.37     0.123 C 
HETATM    4  C4  8UH D3620     -49.682 147.726  12.139  1.00 21.17     0.066 C 
HETATM    5  C5  8UH D3620     -48.813 147.047  11.131  1.00 19.70    -0.074 C 
HETATM    6  C6  8UH D3620     -49.192 145.886  10.484  1.00 20.41    -0.048 C 
HETATM    7  C7  8UH D3620     -48.328 145.222   9.487  1.00 19.41     0.009 C 
HETATM    8  C8  8UH D3620     -47.260 144.445   9.716  1.00 18.90     0.007 C 
HETATM    9  C9  8UH D3620     -46.324 143.907   8.724  1.00 20.60    -0.062 C 
HETATM   10  C10 8UH D3620     -45.375 143.053   9.163  1.00 18.78     0.007 C 
HETATM   11  C11 8UH D3620     -44.375 142.404   8.372  1.00 19.97     0.001 C 
HETATM   12  C12 8UH D3620     -43.615 141.446   8.931  1.00 23.02     0.007 C 
HETATM   13  C13 8UH D3620     -42.568 140.629   8.315  1.00 23.57    -0.062 C 
HETATM   14  C14 8UH D3620     -42.021 139.650   9.067  1.00 23.43     0.007 C 
HETATM   15  C15 8UH D3620     -41.046 138.677   8.667  1.00 24.57     0.001 C 
HETATM   16  C16 8UH D3620     -51.518 145.445   9.590  1.00 19.84     0.020 C 
HETATM   17  C17 8UH D3620     -50.399 143.704  11.003  1.00 19.63     0.020 C 
HETATM   18  C18 8UH D3620     -47.569 147.851  11.002  1.00 19.29     0.044 C 
HETATM   19  C19 8UH D3620     -46.511 144.300   7.276  1.00 18.57     0.048 C 
HETATM   20  C20 8UH D3620     -42.231 140.889   6.880  1.00 22.43     0.048 C 
HETATM   21  O3  8UH D3620     -51.864 147.830  13.173  1.00 22.38    -0.395 OA
ATOM     22  H3  8UH D3620     -51.517 148.554  13.682  1.00  0.00     0.210 HD
HETATM   23  C21 8UH D3620     -34.047 128.293   6.890  1.00 87.69    -0.018 C 
HETATM   24  C22 8UH D3620     -33.338 127.983   5.586  1.00 87.69     0.045 C 
HETATM   25  C23 8UH D3620     -31.826 128.171   5.569  1.00 87.69     0.123 C 
HETATM   26  C24 8UH D3620     -31.294 129.238   6.514  1.00 87.69     0.066 C 
HETATM   27  C25 8UH D3620     -32.374 130.088   7.131  1.00 87.69    -0.074 C 
HETATM   28  C26 8UH D3620     -33.537 129.566   7.511  1.00 87.69    -0.048 C 
HETATM   29  C27 8UH D3620     -34.343 130.198   8.580  1.00 87.69     0.009 C 
HETATM   30  C28 8UH D3620     -35.138 131.229   8.315  1.00 87.69     0.007 C 
HETATM   31  C29 8UH D3620     -35.997 131.905   9.341  1.00 31.15    -0.062 C 
HETATM   32  C30 8UH D3620     -36.744 132.951   8.929  1.00 29.00     0.007 C 
HETATM   33  C31 8UH D3620     -37.631 133.735   9.733  1.00 26.88     0.001 C 
HETATM   34  C32 8UH D3620     -38.282 134.781   9.215  1.00 27.02     0.007 C 
HETATM   35  C33 8UH D3620     -39.205 135.714   9.871  1.00 27.13    -0.062 C 
HETATM   36  C34 8UH D3620     -39.718 136.715   9.121  1.00 25.88     0.007 C 
HETATM   37  C35 8UH D3620     -40.636 137.740   9.528  1.00 25.96     0.001 C 
HETATM   38  C36 8UH D3620     -33.939 127.120   7.860  1.00 87.69     0.020 C 
HETATM   39  C37 8UH D3620     -35.510 128.503   6.565  1.00 87.69     0.020 C 
HETATM   40  C38 8UH D3620     -31.590 130.982   8.039  1.00 87.69     0.044 C 
HETATM   41  C39 8UH D3620     -35.970 131.405  10.757  1.00 30.08     0.048 C 
HETATM   42  C40 8UH D3620     -39.505 135.499  11.326  1.00 24.80     0.048 C 
HETATM   43  O23 8UH D3620     -31.242 126.921   5.935  1.00 87.69    -0.395 OA
ATOM     44  H23 8UH D3620     -31.575 126.255   5.346  1.00  0.00     0.210 HD
ENDROOT
TORSDOF 12
BEGIN_RES PHE A  61
REMARK  2 active torsions:
REMARK  status: ('A' for Active; 'I' for Inactive)
REMARK    1  A    between atoms: CA   and  CB  
REMARK    2  A    between atoms: CB   and  CG  
ROOT
ATOM      1  CA  PHE A  61     -36.237 128.293  12.768  1.00 39.40     0.164 C 
ENDROOT
BRANCH   1   2
ATOM      2  CB  PHE A  61     -36.813 128.951  11.509  1.00 39.41     0.058 C 
BRANCH   2   3
ATOM      3  CG  PHE A  61     -36.985 128.013  10.338  1.00 39.01    -0.020 A 
ATOM      4  CD2 PHE A  61     -36.169 126.903  10.189  1.00 40.32    -0.004 A 
ATOM      5  CE2 PHE A  61     -36.326 126.043   9.110  1.00 40.20    -0.000 A 
ATOM      6  CZ  PHE A  61     -37.302 126.281   8.169  1.00 40.34    -0.000 A 
ATOM      7  CE1 PHE A  61     -38.123 127.379   8.304  1.00 41.51    -0.000 A 
ATOM      8  CD1 PHE A  61     -37.962 128.243   9.379  1.00 39.94    -0.004 A 
ENDBRANCH   2   3
ENDBRANCH   1   2
END_RES PHE A  61
BEGIN_RES VAL A 134
REMARK  1 active torsions:
REMARK  status: ('A' for Active; 'I' for Inactive)
REMARK    3  A    between atoms: CA   and  CB  
ROOT
ATOM      9  CA  VAL A 134     -29.766 132.051   9.815  1.00 40.75     0.159 C 
ENDROOT
BRANCH   9  10
ATOM     10  CB  VAL A 134     -30.864 132.765   9.009  1.00 40.76     0.029 C 
ATOM     11  CG1 VAL A 134     -32.107 132.976   9.862  1.00 41.76     0.002 C 
ATOM     12  CG2 VAL A 134     -30.371 134.085   8.436  1.00 40.56     0.002 C 
ENDBRANCH   9  10
END_RES VAL A 134
BEGIN_RES TYR A 338
REMARK  3 active torsions:
REMARK  status: ('A' for Active; 'I' for Inactive)
REMARK    4  A    between atoms: CA   and  CB  
REMARK    5  A    between atoms: CB   and  CG  
REMARK    6  A    between atoms: CZ   and  OH  
ROOT
ATOM     13  CA  TYR A 338     -41.631 124.950   6.058  1.00 38.23     0.164 C 
ENDROOT
BRANCH  13  14
ATOM     14  CB  TYR A 338     -41.621 126.456   6.339  1.00 39.15     0.058 C 
BRANCH  14  15
ATOM     15  CG  TYR A 338     -40.419 127.212   5.822  1.00 39.03    -0.020 A 
ATOM     16  CD2 TYR A 338     -40.265 128.559   6.100  1.00 40.65    -0.002 A 
ATOM     17  CE2 TYR A 338     -39.183 129.287   5.629  1.00 40.91     0.024 A 
ATOM     18  CZ  TYR A 338     -38.222 128.665   4.856  1.00 42.33     0.089 A 
ATOM     19  CE1 TYR A 338     -38.351 127.318   4.568  1.00 40.63     0.024 A 
ATOM     20  CD1 TYR A 338     -39.447 126.610   5.037  1.00 39.27    -0.002 A 
BRANCH  18  21
ATOM     21  OH  TYR A 338     -37.149 129.372   4.390  1.00 43.36    -0.359 OA
ATOM     22  HH  TYR A 338     -37.276 130.105   3.799  1.00  0.00     0.217 HD
ENDBRANCH  18  21
ENDBRANCH  14  15
ENDBRANCH  13  14
END_RES TYR A 338
ENDMDL
MODEL 2
REMARK VINA RESULT:    -9.535      1.346     16.941
REMARK INTER + INTRA:         -10.471
REMARK INTER:                  -7.771
REMARK INTRA:                  -2.701
REMARK UNBOUND:                -0.936
REMARK  0 active torsions:
REMARK  status: ('A' for Active; 'I' for Inactive)
REMARK       I    between atoms: C3_3  and  O3_21 
REMARK       I    between atoms: C6_6  and  C7_7 
REMARK       I    between atoms: C8_8  and  C9_9 
REMARK       I    between atoms: C10_10  and  C11_11 
REMARK       I    between atoms: C12_12  and  C13_13 
REMARK       I    between atoms: C14_14  and  C15_15 
REMARK       I    between atoms: C23_25  and  O23_43 
REMARK       I    between atoms: C26_28  and  C27_29 
REMARK       I    between atoms: C28_30  and  C29_31 
REMARK       I    between atoms: C30_32  and  C31_33 
REMARK       I    between atoms: C32_34  and  C33_35 
REMARK       I    between atoms: C34_36  and  C35_37 
ROOT
HETATM    1  C1  8UH D3620     -34.575 127.022   6.121  1.00 21.49    -0.018 C 
HETATM    2  C2  8UH D3620     -34.095 126.375   4.803  1.00 21.50     0.045 C 
HETATM    3  C3  8UH D3620     -32.840 126.916   4.109  1.00 22.37     0.123 C 
HETATM    4  C4  8UH D3620     -31.943 127.804   4.975  1.00 21.17     0.066 C 
HETATM    5  C5  8UH D3620     -32.539 128.558   6.119  1.00 19.70    -0.074 C 
HETATM    6  C6  8UH D3620     -33.760 128.224   6.675  1.00 20.41    -0.048 C 
HETATM    7  C7  8UH D3620     -34.342 128.973   7.807  1.00 19.41     0.009 C 
HETATM    8  C8  8UH D3620     -34.969 130.157   7.770  1.00 18.90     0.007 C 
HETATM    9  C9  8UH D3620     -35.416 130.961   8.912  1.00 20.60    -0.062 C 
HETATM   10  C10 8UH D3620     -36.127 132.077   8.646  1.00 18.78     0.007 C 
HETATM   11  C11 8UH D3620     -36.670 132.995   9.601  1.00 19.97     0.001 C 
HETATM   12  C12 8UH D3620     -37.504 133.962   9.182  1.00 23.02     0.007 C 
HETATM   13  C13 8UH D3620     -38.201 134.978   9.972  1.00 23.57    -0.062 C 
HETATM   14  C14 8UH D3620     -39.077 135.776   9.323  1.00 23.43     0.007 C 
HETATM   15  C15 8UH D3620     -39.931 136.781   9.886  1.00 24.57     0.001 C 
HETATM   16  C16 8UH D3620     -34.523 125.853   7.123  1.00 19.84     0.020 C 
HETATM   17  C17 8UH D3620     -36.059 127.427   5.922  1.00 19.63     0.020 C 
HETATM   18  C18 8UH D3620     -31.588 129.642   6.482  1.00 19.29     0.044 C 
HETATM   19  C19 8UH D3620     -35.098 130.466  10.305  1.00 18.57     0.048 C 
HETATM   20  C20 8UH D3620     -37.949 135.014  11.447  1.00 22.43     0.048 C 
HETATM   21  O3  8UH D3620     -32.083 125.850   3.560  1.00 22.38    -0.395 OA
ATOM     22  H3  8UH D3620     -31.304 126.185   3.130  1.00  0.00     0.210 HD
HETATM   23  C21 8UH D3620     -49.394 144.645  12.817  1.00 87.69    -0.018 C 
HETATM   24  C22 8UH D3620     -49.655 145.141  14.226  1.00 87.69     0.045 C 
HETATM   25  C23 8UH D3620     -49.277 146.587  14.522  1.00 87.69     0.123 C 
HETATM   26  C24 8UH D3620     -48.120 147.137  13.701  1.00 87.69     0.066 C 
HETATM   27  C25 8UH D3620     -47.394 146.084  12.904  1.00 87.69    -0.074 C 
HETATM   28  C26 8UH D3620     -48.047 145.087  12.313  1.00 87.69    -0.048 C 
HETATM   29  C27 8UH D3620     -47.487 144.412  11.120  1.00 87.69     0.009 C 
HETATM   30  C28 8UH D3620     -46.575 143.454  11.244  1.00 87.69     0.007 C 
HETATM   31  C29 8UH D3620     -45.980 142.713  10.085  1.00 31.15    -0.062 C 
HETATM   32  C30 8UH D3620     -45.052 141.773  10.363  1.00 29.00     0.007 C 
HETATM   33  C31 8UH D3620     -44.360 140.951   9.417  1.00 26.88     0.001 C 
HETATM   34  C32 8UH D3620     -43.424 140.086   9.817  1.00 27.02     0.007 C 
HETATM   35  C33 8UH D3620     -42.594 139.182   9.012  1.00 27.13    -0.062 C 
HETATM   36  C34 8UH D3620     -41.692 138.415   9.664  1.00 25.88     0.007 C 
HETATM   37  C35 8UH D3620     -40.779 137.459   9.106  1.00 25.96     0.001 C 
HETATM   38  C36 8UH D3620     -50.511 145.079  11.872  1.00 87.69     0.020 C 
HETATM   39  C37 8UH D3620     -49.383 143.133  12.871  1.00 87.69     0.020 C 
HETATM   40  C38 8UH D3620     -46.377 146.895  12.164  1.00 87.69     0.044 C 
HETATM   41  C39 8UH D3620     -46.425 143.060   8.693  1.00 30.08     0.048 C 
HETATM   42  C40 8UH D3620     -42.796 139.180   7.525  1.00 24.80     0.048 C 
HETATM   43  O23 8UH D3620     -50.429 147.387  14.257  1.00 87.69    -0.395 OA
ATOM     44  H23 8UH D3620     -51.152 147.043  14.769  1.00  0.00     0.210 HD
ENDROOT
TORSDOF 12
BEGIN_RES PHE A  61
REMARK  2 active torsions:
REMARK  status: ('A' for Active; 'I' for Inactive)
REMARK    1  A    between atoms: CA   and  CB  
REMARK    2  A    between atoms: CB   and  CG  
ROOT
ATOM      1  CA  PHE A  61     -36.237 128.293  12.768  1.00 39.40     0.164 C 
ENDROOT
BRANCH   1   2
ATOM      2  CB  PHE A  61     -36.813 128.951  11.509  1.00 39.41     0.058 C 
BRANCH   2   3
ATOM      3  CG  PHE A  61     -37.038 128.002  10.356  1.00 39.01    -0.020 A 
ATOM      4  CD2 PHE A  61     -36.270 126.856  10.217  1.00 40.32    -0.004 A 
ATOM      5  CE2 PHE A  61     -36.476 125.986   9.154  1.00 40.20    -0.000 A 
ATOM      6  CZ  PHE A  61     -37.453 126.249   8.222  1.00 40.34    -0.000 A 
ATOM      7  CE1 PHE A  61     -38.226 127.382   8.346  1.00 41.51    -0.000 A 
ATOM      8  CD1 PHE A  61     -38.016 128.256   9.405  1.00 39.94    -0.004 A 
ENDBRANCH   2   3
ENDBRANCH   1   2
END_RES PHE A  61
BEGIN_RES VAL A 134
REMARK  1 active torsions:
REMARK  status: ('A' for Active; 'I' for Inactive)
REMARK    3  A    between atoms: CA   and  CB  
ROOT
ATOM      9  CA  VAL A 134     -29.766 132.051   9.815  1.00 40.75     0.159 C 
ENDROOT
BRANCH   9  10
ATOM     10  CB  VAL A 134     -30.864 132.765   9.009  1.00 40.76     0.029 C 
ATOM     11  CG1 VAL A 134     -30.894 132.258   7.575  1.00 41.76     0.002 C 
ATOM     12  CG2 VAL A 134     -32.228 132.615   9.664  1.00 40.56     0.002 C 
ENDBRANCH   9  10
END_RES VAL A 134
BEGIN_RES TYR A 338
REMARK  3 active torsions:
REMARK  status: ('A' for Active; 'I' for Inactive)
REMARK    4  A    between atoms: CA   and  CB  
REMARK    5  A    between atoms: CB   and  CG  
REMARK    6  A    between atoms: CZ   and  OH  
ROOT
ATOM     13  CA  TYR A 338     -41.631 124.950   6.058  1.00 38.23     0.164 C 
ENDROOT
BRANCH  13  14
ATOM     14  CB  TYR A 338     -41.621 126.456   6.339  1.00 39.15     0.058 C 
BRANCH  14  15
ATOM     15  CG  TYR A 338     -40.433 127.217   5.797  1.00 39.03    -0.020 A 
ATOM     16  CD2 TYR A 338     -40.243 128.548   6.127  1.00 40.65    -0.002 A 
ATOM     17  CE2 TYR A 338     -39.173 129.280   5.636  1.00 40.91     0.024 A 
ATOM     18  CZ  TYR A 338     -38.261 128.679   4.789  1.00 42.33     0.089 A 
ATOM     19  CE1 TYR A 338     -38.427 127.348   4.448  1.00 40.63     0.024 A 
ATOM     20  CD1 TYR A 338     -39.511 126.637   4.940  1.00 39.27    -0.002 A 
BRANCH  18  21
ATOM     21  OH  TYR A 338     -37.200 129.390   4.302  1.00 43.36    -0.359 OA
ATOM     22  HH  TYR A 338     -37.089 129.508   3.366  1.00  0.00     0.217 HD
ENDBRANCH  18  21
ENDBRANCH  14  15
ENDBRANCH  13  14
END_RES TYR A 338
ENDMDL
MODEL 3
REMARK VINA RESULT:    -9.327      0.499     16.944
REMARK INTER + INTRA:         -10.263
REMARK INTER:                  -9.904
REMARK INTRA:                  -0.360
REMARK UNBOUND:                -0.936
REMARK  0 active torsions:
REMARK  status: ('A' for Active; 'I' for Inactive)
REMARK       I    between atoms: C3_3  and  O3_21 
REMARK       I    between atoms: C6_6  and  C7_7 
REMARK       I    between atoms: C8_8  and  C9_9 
REMARK       I    between atoms: C10_10  and  C11_11 
REMARK       I    between atoms: C12_12  and  C13_13 
REMARK       I    between atoms: C14_14  and  C15_15 
REMARK       I    between atoms: C23_25  and  O23_43 
REMARK       I    between atoms: C26_28  and  C27_29 
REMARK       I    between atoms: C28_30  and  C29_31 
REMARK       I    between atoms: C30_32  and  C31_33 
REMARK       I    between atoms: C32_34  and  C33_35 
REMARK       I    between atoms: C34_36  and  C35_37 
ROOT
HETATM    1  C1  8UH D3620     -34.244 128.329   6.789  1.00 21.49    -0.018 C 
HETATM    2  C2  8UH D3620     -33.353 127.808   5.640  1.00 21.50     0.045 C 
HETATM    3  C3  8UH D3620     -31.948 128.390   5.449  1.00 22.37     0.123 C 
HETATM    4  C4  8UH D3620     -31.395 129.170   6.645  1.00 21.17     0.066 C 
HETATM    5  C5  8UH D3620     -32.340 129.817   7.604  1.00 19.70    -0.074 C 
HETATM    6  C6  8UH D3620     -33.670 129.453   7.696  1.00 20.41    -0.048 C 
HETATM    7  C7  8UH D3620     -34.599 130.096   8.647  1.00 19.41     0.009 C 
HETATM    8  C8  8UH D3620     -35.197 131.290   8.529  1.00 18.90     0.007 C 
HETATM    9  C9  8UH D3620     -36.002 131.984   9.538  1.00 20.60    -0.062 C 
HETATM   10  C10 8UH D3620     -36.604 133.135   9.171  1.00 18.78     0.007 C 
HETATM   11  C11 8UH D3620     -37.440 133.963   9.985  1.00 19.97     0.001 C 
HETATM   12  C12 8UH D3620     -38.106 134.983   9.417  1.00 23.02     0.007 C 
HETATM   13  C13 8UH D3620     -39.037 135.928  10.036  1.00 23.57    -0.062 C 
HETATM   14  C14 8UH D3620     -39.666 136.804   9.222  1.00 23.43     0.007 C 
HETATM   15  C15 8UH D3620     -40.670 137.765   9.576  1.00 24.57     0.001 C 
HETATM   16  C16 8UH D3620     -34.504 127.064   7.630  1.00 19.84     0.020 C 
HETATM   17  C17 8UH D3620     -35.589 128.780   6.161  1.00 19.63     0.020 C 
HETATM   18  C18 8UH D3620     -31.574 130.840   8.363  1.00 19.29     0.044 C 
HETATM   19  C19 8UH D3620     -36.147 131.346  10.901  1.00 18.57     0.048 C 
HETATM   20  C20 8UH D3620     -39.278 135.812  11.509  1.00 22.43     0.048 C 
HETATM   21  O3  8UH D3620     -31.039 127.370   5.072  1.00 22.38    -0.395 OA
ATOM     22  H3  8UH D3620     -30.167 127.731   4.954  1.00  0.00     0.210 HD
HETATM   23  C21 8UH D3620     -50.683 145.478  10.053  1.00 87.69    -0.018 C 
HETATM   24  C22 8UH D3620     -51.394 145.836  11.343  1.00 87.69     0.045 C 
HETATM   25  C23 8UH D3620     -51.153 147.238  11.891  1.00 87.69     0.123 C 
HETATM   26  C24 8UH D3620     -49.800 147.844  11.550  1.00 87.69     0.066 C 
HETATM   27  C25 8UH D3620     -48.840 146.862  10.930  1.00 87.69    -0.074 C 
HETATM   28  C26 8UH D3620     -49.251 145.943  10.061  1.00 87.69    -0.048 C 
HETATM   29  C27 8UH D3620     -48.325 145.379   9.053  1.00 87.69     0.009 C 
HETATM   30  C28 8UH D3620     -47.489 144.396   9.370  1.00 87.69     0.007 C 
HETATM   31  C29 8UH D3620     -46.539 143.764   8.397  1.00 31.15    -0.062 C 
HETATM   32  C30 8UH D3620     -45.738 142.782   8.865  1.00 29.00     0.007 C 
HETATM   33  C31 8UH D3620     -44.765 142.046   8.117  1.00 26.88     0.001 C 
HETATM   34  C32 8UH D3620     -43.998 141.127   8.710  1.00 27.02     0.007 C 
HETATM   35  C33 8UH D3620     -42.939 140.293   8.132  1.00 27.13    -0.062 C 
HETATM   36  C34 8UH D3620     -42.287 139.447   8.961  1.00 25.88     0.007 C 
HETATM   37  C35 8UH D3620     -41.229 138.534   8.635  1.00 25.96     0.001 C 
HETATM   38  C36 8UH D3620     -51.438 146.027   8.846  1.00 87.69     0.020 C 
HETATM   39  C37 8UH D3620     -50.668 143.969   9.955  1.00 87.69     0.020 C 
HETATM   40  C38 8UH D3620     -47.650 147.723  10.646  1.00 87.69     0.044 C 
HETATM   41  C39 8UH D3620     -46.513 144.257   6.979  1.00 30.08     0.048 C 
HETATM   42  C40 8UH D3620     -42.647 140.444   6.667  1.00 24.80     0.048 C 
HETATM   43  O23 8UH D3620     -52.168 148.082  11.348  1.00 87.69    -0.395 OA
ATOM     44  H23 8UH D3620     -53.013 147.703  11.561  1.00  0.00     0.210 HD
ENDROOT
TORSDOF 12
BEGIN_RES PHE A  61
REMARK  2 active torsions:
REMARK  status: ('A' for Active; 'I' for Inactive)
REMARK    1  A    between atoms: CA   and  CB  
REMARK    2  A    between atoms: CB   and  CG  
ROOT
ATOM      1  CA  PHE A  61     -36.237 128.293  12.768  1.00 39.40     0.164 C 
ENDROOT
BRANCH   1   2
ATOM      2  CB  PHE A  61     -36.813 128.951  11.509  1.00 39.41     0.058 C 
BRANCH   2   3
ATOM      3  CG  PHE A  61     -37.004 128.009  10.344  1.00 39.01    -0.020 A 
ATOM      4  CD2 PHE A  61     -36.276 126.833  10.253  1.00 40.32    -0.004 A 
ATOM      5  CE2 PHE A  61     -36.451 125.969   9.179  1.00 40.20    -0.000 A 
ATOM      6  CZ  PHE A  61     -37.357 126.268   8.188  1.00 40.34    -0.000 A 
ATOM      7  CE1 PHE A  61     -38.090 127.432   8.265  1.00 41.51    -0.000 A 
ATOM      8  CD1 PHE A  61     -37.911 128.299   9.335  1.00 39.94    -0.004 A 
ENDBRANCH   2   3
ENDBRANCH   1   2
END_RES PHE A  61
BEGIN_RES VAL A 134
REMARK  1 active torsions:
REMARK  status: ('A' for Active; 'I' for Inactive)
REMARK    3  A    between atoms: CA   and  CB  
ROOT
ATOM      9  CA  VAL A 134     -29.766 132.051   9.815  1.00 40.75     0.159 C 
ENDROOT
BRANCH   9  10
ATOM     10  CB  VAL A 134     -30.864 132.765   9.009  1.00 40.76     0.029 C 
ATOM     11  CG1 VAL A 134     -32.099 132.994   9.868  1.00 41.76     0.002 C 
ATOM     12  CG2 VAL A 134     -30.365 134.075   8.419  1.00 40.56     0.002 C 
ENDBRANCH   9  10
END_RES VAL A 134
BEGIN_RES TYR A 338
REMARK  3 active torsions:
REMARK  status: ('A' for Active; 'I' for Inactive)
REMARK    4  A    between atoms: CA   and  CB  
REMARK    5  A    between atoms: CB   and  CG  
REMARK    6  A    between atoms: CZ   and  OH  
ROOT
ATOM     13  CA  TYR A 338     -41.631 124.950   6.058  1.00 38.23     0.164 C 
ENDROOT
BRANCH  13  14
ATOM     14  CB  TYR A 338     -41.621 126.456   6.339  1.00 39.15     0.058 C 
BRANCH  14  15
ATOM     15  CG  TYR A 338     -40.429 127.216   5.803  1.00 39.03    -0.020 A 
ATOM     16  CD2 TYR A 338     -40.277 128.564   6.077  1.00 40.65    -0.002 A 
ATOM     17  CE2 TYR A 338     -39.205 129.295   5.589  1.00 40.91     0.024 A 
ATOM     18  CZ  TYR A 338     -38.252 128.675   4.802  1.00 42.33     0.089 A 
ATOM     19  CE1 TYR A 338     -38.380 127.327   4.518  1.00 40.63     0.024 A 
ATOM     20  CD1 TYR A 338     -39.467 126.616   5.005  1.00 39.27    -0.002 A 
BRANCH  18  21
ATOM     21  OH  TYR A 338     -37.189 129.385   4.319  1.00 43.36    -0.359 OA
ATOM     22  HH  TYR A 338     -37.061 130.292   4.573  1.00  0.00     0.217 HD
ENDBRANCH  18  21
ENDBRANCH  14  15
ENDBRANCH  13  14
END_RES TYR A 338
ENDMDL
