MODEL 1
REMARK VINA RESULT:   -11.691      0.000      0.000
REMARK INTER + INTRA:         -14.421
REMARK INTER:                 -11.691
REMARK INTRA:                  -2.730
REMARK UNBOUND:                -2.730
REMARK  0 active torsions:
REMARK  status: ('A' for Active; 'I' for Inactive)
REMARK       I    between atoms: C3_3  and  O3_21 
REMARK       I    between atoms: C6_6  and  C7_7 
REMARK       I    between atoms: C8_8  and  C9_9 
REMARK       I    between atoms: C10_10  and  C11_11 
REMARK       I    between atoms: C12_12  and  C13_13 
REMARK       I    between atoms: C14_14  and  C15_15 
REMARK       I    between atoms: C23_25  and  O23_43 
REMARK       I    between atoms: C26_28  and  C27_29 
REMARK       I    between atoms: C28_30  and  C29_31 
REMARK       I    between atoms: C30_32  and  C31_33 
REMARK       I    between atoms: C32_34  and  C33_35 
REMARK       I    between atoms: C34_36  and  C35_37 
ROOT
HETATM    1  C1  8UH N1621     -47.813 145.254  12.372  1.00 48.43    -0.018 C 
HETATM    2  C2  8UH N1621     -48.566 145.683  13.625  1.00 44.61     0.045 C 
HETATM    3  C3  8UH N1621     -47.770 146.470  14.647  1.00 44.41     0.123 C 
HETATM    4  C4  8UH N1621     -46.877 147.481  13.972  1.00 41.53     0.066 C 
HETATM    5  C5  8UH N1621     -45.938 146.738  13.074  1.00 37.72    -0.074 C 
HETATM    6  C6  8UH N1621     -46.404 145.807  12.243  1.00 43.52    -0.048 C 
HETATM    7  C7  8UH N1621     -45.585 145.282  11.125  1.00 44.60     0.009 C 
HETATM    8  C8  8UH N1621     -44.673 144.335  11.301  1.00 43.22     0.007 C 
HETATM    9  C9  8UH N1621     -43.910 143.805  10.171  1.00 45.04    -0.062 C 
HETATM   10  C10 8UH N1621     -43.208 142.710  10.433  1.00 43.71     0.007 C 
HETATM   11  C11 8UH N1621     -42.423 141.973   9.472  1.00 42.87     0.001 C 
HETATM   12  C12 8UH N1621     -41.941 140.859   9.984  1.00 44.70     0.007 C 
HETATM   13  C13 8UH N1621     -41.174 139.888   9.208  1.00 42.63    -0.062 C 
HETATM   14  C14 8UH N1621     -40.800 138.775   9.842  1.00 42.62     0.007 C 
HETATM   15  C15 8UH N1621     -40.074 137.730   9.154  1.00 44.33     0.001 C 
HETATM   16  C16 8UH N1621     -48.702 145.649  11.197  1.00 47.48     0.020 C 
HETATM   17  C17 8UH N1621     -47.635 143.747  12.385  1.00 54.25     0.020 C 
HETATM   18  C18 8UH N1621     -44.692 147.510  12.795  1.00 37.77     0.044 C 
HETATM   19  C19 8UH N1621     -43.950 144.445   8.822  1.00 46.17     0.048 C 
HETATM   20  C20 8UH N1621     -40.884 140.125   7.759  1.00 40.87     0.048 C 
HETATM   21  O3  8UH N1621     -48.676 147.161  15.507  1.00 48.83    -0.395 OA
ATOM     22  H3  8UH N1621     -48.178 147.654  16.148  1.00  0.00     0.210 HD
HETATM   23  C21 8UH N1621     -34.374 126.848   6.451  1.00 66.61    -0.018 C 
HETATM   24  C22 8UH N1621     -34.136 126.232   5.077  1.00 66.61     0.045 C 
HETATM   25  C23 8UH N1621     -33.223 126.967   4.107  1.00 66.61     0.123 C 
HETATM   26  C24 8UH N1621     -32.126 127.714   4.834  1.00 66.61     0.066 C 
HETATM   27  C25 8UH N1621     -32.744 128.631   5.851  1.00 66.61    -0.074 C 
HETATM   28  C26 8UH N1621     -33.726 128.207   6.652  1.00 66.61    -0.048 C 
HETATM   29  C27 8UH N1621     -34.201 129.053   7.776  1.00 66.61     0.009 C 
HETATM   30  C28 8UH N1621     -35.151 129.974   7.605  1.00 66.61     0.007 C 
HETATM   31  C29 8UH N1621     -35.634 130.802   8.699  1.00 54.19    -0.062 C 
HETATM   32  C30 8UH N1621     -36.728 131.521   8.448  1.00 54.84     0.007 C 
HETATM   33  C31 8UH N1621     -37.361 132.402   9.408  1.00 51.40     0.001 C 
HETATM   34  C32 8UH N1621     -37.880 133.500   8.888  1.00 48.08     0.007 C 
HETATM   35  C33 8UH N1621     -38.557 134.502   9.711  1.00 45.58    -0.062 C 
HETATM   36  C34 8UH N1621     -39.005 135.607   9.116  1.00 47.58     0.007 C 
HETATM   37  C35 8UH N1621     -39.704 136.658   9.834  1.00 48.15     0.001 C 
HETATM   38  C36 8UH N1621     -33.878 125.851   7.492  1.00 66.61     0.020 C 
HETATM   39  C37 8UH N1621     -35.874 127.017   6.622  1.00 66.61     0.020 C 
HETATM   40  C38 8UH N1621     -31.957 129.879   6.126  1.00 66.61     0.044 C 
HETATM   41  C39 8UH N1621     -34.937 130.787  10.023  1.00 53.01     0.048 C 
HETATM   42  C40 8UH N1621     -38.722 134.267  11.172  1.00 46.34     0.048 C 
HETATM   43  O23 8UH N1621     -32.620 126.005   3.237  1.00 66.61    -0.395 OA
ATOM     44  H23 8UH N1621     -32.050 126.465   2.632  1.00  0.00     0.210 HD
ENDROOT
TORSDOF 12
BEGIN_RES PHE A  61
REMARK  2 active torsions:
REMARK  status: ('A' for Active; 'I' for Inactive)
REMARK    1  A    between atoms: CA   and  CB  
REMARK    2  A    between atoms: CB   and  CG  
ROOT
ATOM      1  CA  PHE A  61     -36.237 128.293  12.768  1.00 39.40     0.164 C 
ENDROOT
BRANCH   1   2
ATOM      2  CB  PHE A  61     -36.813 128.951  11.509  1.00 39.41     0.058 C 
BRANCH   2   3
ATOM      3  CG  PHE A  61     -37.086 127.993  10.374  1.00 39.01    -0.020 A 
ATOM      4  CD2 PHE A  61     -36.366 126.816  10.246  1.00 40.32    -0.004 A 
ATOM      5  CE2 PHE A  61     -36.616 125.938   9.200  1.00 40.20    -0.000 A 
ATOM      6  CZ  PHE A  61     -37.592 126.224   8.272  1.00 40.34    -0.000 A 
ATOM      7  CE1 PHE A  61     -38.318 127.389   8.386  1.00 41.51    -0.000 A 
ATOM      8  CD1 PHE A  61     -38.064 128.270   9.428  1.00 39.94    -0.004 A 
ENDBRANCH   2   3
ENDBRANCH   1   2
END_RES PHE A  61
BEGIN_RES VAL A 134
REMARK  1 active torsions:
REMARK  status: ('A' for Active; 'I' for Inactive)
REMARK    3  A    between atoms: CA   and  CB  
ROOT
ATOM      9  CA  VAL A 134     -29.766 132.051   9.815  1.00 40.75     0.159 C 
ENDROOT
BRANCH   9  10
ATOM     10  CB  VAL A 134     -30.864 132.765   9.009  1.00 40.76     0.029 C 
ATOM     11  CG1 VAL A 134     -31.211 131.975   7.755  1.00 41.76     0.002 C 
ATOM     12  CG2 VAL A 134     -32.106 133.015   9.851  1.00 40.56     0.002 C 
ENDBRANCH   9  10
END_RES VAL A 134
BEGIN_RES TYR A 338
REMARK  3 active torsions:
REMARK  status: ('A' for Active; 'I' for Inactive)
REMARK    4  A    between atoms: CA   and  CB  
REMARK    5  A    between atoms: CB   and  CG  
REMARK    6  A    between atoms: CZ   and  OH  
ROOT
ATOM     13  CA  TYR A 338     -41.631 124.950   6.058  1.00 38.23     0.164 C 
ENDROOT
BRANCH  13  14
ATOM     14  CB  TYR A 338     -41.621 126.456   6.339  1.00 39.15     0.058 C 
BRANCH  14  15
ATOM     15  CG  TYR A 338     -40.403 127.206   5.852  1.00 39.03    -0.020 A 
ATOM     16  CD2 TYR A 338     -40.223 128.539   6.179  1.00 40.65    -0.002 A 
ATOM     17  CE2 TYR A 338     -39.126 129.262   5.737  1.00 40.91     0.024 A 
ATOM     18  CZ  TYR A 338     -38.175 128.649   4.945  1.00 42.33     0.089 A 
ATOM     19  CE1 TYR A 338     -38.329 127.316   4.608  1.00 40.63     0.024 A 
ATOM     20  CD1 TYR A 338     -39.440 126.614   5.049  1.00 39.27    -0.002 A 
BRANCH  18  21
ATOM     21  OH  TYR A 338     -37.086 129.351   4.507  1.00 43.36    -0.359 OA
ATOM     22  HH  TYR A 338     -36.578 129.038   3.767  1.00  0.00     0.217 HD
ENDBRANCH  18  21
ENDBRANCH  14  15
ENDBRANCH  13  14
END_RES TYR A 338
ENDMDL
MODEL 2
REMARK VINA RESULT:    -9.810      1.559     16.546
REMARK INTER + INTRA:         -12.540
REMARK INTER:                  -9.456
REMARK INTRA:                  -3.084
REMARK UNBOUND:                -2.730
REMARK  0 active torsions:
REMARK  status: ('A' for Active; 'I' for Inactive)
REMARK       I    between atoms: C3_3  and  O3_21 
REMARK       I    between atoms: C6_6  and  C7_7 
REMARK       I    between atoms: C8_8  and  C9_9 
REMARK       I    between atoms: C10_10  and  C11_11 
REMARK       I    between atoms: C12_12  and  C13_13 
REMARK       I    between atoms: C14_14  and  C15_15 
REMARK       I    between atoms: C23_25  and  O23_43 
REMARK       I    between atoms: C26_28  and  C27_29 
REMARK       I    between atoms: C28_30  and  C29_31 
REMARK       I    between atoms: C30_32  and  C31_33 
REMARK       I    between atoms: C32_34  and  C33_35 
REMARK       I    between atoms: C34_36  and  C35_37 
ROOT
HETATM    1  C1  8UH N1621     -34.472 126.895   6.184  1.00 48.43    -0.018 C 
HETATM    2  C2  8UH N1621     -34.044 126.162   4.920  1.00 44.61     0.045 C 
HETATM    3  C3  8UH N1621     -32.960 126.826   4.094  1.00 44.41     0.123 C 
HETATM    4  C4  8UH N1621     -31.884 127.401   4.983  1.00 41.53     0.066 C 
HETATM    5  C5  8UH N1621     -32.521 128.416   5.878  1.00 37.72    -0.074 C 
HETATM    6  C6  8UH N1621     -33.643 128.120   6.533  1.00 43.52    -0.048 C 
HETATM    7  C7  8UH N1621     -34.128 128.950   7.660  1.00 44.60     0.009 C 
HETATM    8  C8  8UH N1621     -34.812 130.071   7.469  1.00 43.22     0.007 C 
HETATM    9  C9  8UH N1621     -35.317 130.848   8.601  1.00 45.04    -0.062 C 
HETATM   10  C10 8UH N1621     -36.177 131.806   8.284  1.00 43.71     0.007 C 
HETATM   11  C11 8UH N1621     -36.852 132.666   9.227  1.00 42.87     0.001 C 
HETATM   12  C12 8UH N1621     -37.744 133.435   8.637  1.00 44.70     0.007 C 
HETATM   13  C13 8UH N1621     -38.622 134.347   9.365  1.00 42.63    -0.062 C 
HETATM   14  C14 8UH N1621     -39.519 135.022   8.644  1.00 42.62     0.007 C 
HETATM   15  C15 8UH N1621     -40.464 135.918   9.273  1.00 44.33     0.001 C 
HETATM   16  C16 8UH N1621     -34.459 125.850   7.295  1.00 47.48     0.020 C 
HETATM   17  C17 8UH N1621     -35.883 127.424   6.005  1.00 54.25     0.020 C 
HETATM   18  C18 8UH N1621     -31.539 129.419   6.384  1.00 37.77     0.044 C 
HETATM   19  C19 8UH N1621     -34.903 130.554  10.006  1.00 46.17     0.048 C 
HETATM   20  C20 8UH N1621     -38.538 134.461  10.856  1.00 40.87     0.048 C 
HETATM   21  O3  8UH N1621     -32.371 125.851   3.233  1.00 48.83    -0.395 OA
ATOM     22  H3  8UH N1621     -31.692 126.267   2.716  1.00  0.00     0.210 HD
HETATM   23  C21 8UH N1621     -50.073 143.798  11.218  1.00 66.61    -0.018 C 
HETATM   24  C22 8UH N1621     -50.814 144.067  12.524  1.00 66.61     0.045 C 
HETATM   25  C23 8UH N1621     -50.042 144.703  13.670  1.00 66.61     0.123 C 
HETATM   26  C24 8UH N1621     -48.972 145.645  13.164  1.00 66.61     0.066 C 
HETATM   27  C25 8UH N1621     -48.078 144.910  12.207  1.00 66.61    -0.074 C 
HETATM   28  C26 8UH N1621     -48.590 144.120  11.258  1.00 66.61    -0.048 C 
HETATM   29  C27 8UH N1621     -47.717 143.548  10.201  1.00 66.61     0.009 C 
HETATM   30  C28 8UH N1621     -47.067 142.396  10.381  1.00 66.61     0.007 C 
HETATM   31  C29 8UH N1621     -46.218 141.818   9.351  1.00 54.19    -0.062 C 
HETATM   32  C30 8UH N1621     -45.805 140.569   9.568  1.00 54.84     0.007 C 
HETATM   33  C31 8UH N1621     -44.958 139.823   8.661  1.00 51.40     0.001 C 
HETATM   34  C32 8UH N1621     -44.090 139.020   9.252  1.00 48.08     0.007 C 
HETATM   35  C33 8UH N1621     -43.156 138.192   8.491  1.00 45.58    -0.062 C 
HETATM   36  C34 8UH N1621     -42.277 137.451   9.165  1.00 47.58     0.007 C 
HETATM   37  C35 8UH N1621     -41.316 136.582   8.510  1.00 48.15     0.001 C 
HETATM   38  C36 8UH N1621     -50.773 144.594  10.122  1.00 66.61     0.020 C 
HETATM   39  C37 8UH N1621     -50.220 142.317  10.907  1.00 66.61     0.020 C 
HETATM   40  C38 8UH N1621     -46.660 145.399  12.174  1.00 66.61     0.044 C 
HETATM   41  C39 8UH N1621     -45.885 142.599   8.119  1.00 53.01     0.048 C 
HETATM   42  C40 8UH N1621     -43.208 138.201   7.003  1.00 46.34     0.048 C 
HETATM   43  O23 8UH N1621     -50.960 145.447  14.475  1.00 66.61    -0.395 OA
ATOM     44  H23 8UH N1621     -50.478 145.844  15.191  1.00  0.00     0.210 HD
ENDROOT
TORSDOF 12
BEGIN_RES PHE A  61
REMARK  2 active torsions:
REMARK  status: ('A' for Active; 'I' for Inactive)
REMARK    1  A    between atoms: CA   and  CB  
REMARK    2  A    between atoms: CB   and  CG  
ROOT
ATOM      1  CA  PHE A  61     -36.237 128.293  12.768  1.00 39.40     0.164 C 
ENDROOT
BRANCH   1   2
ATOM      2  CB  PHE A  61     -36.813 128.951  11.509  1.00 39.41     0.058 C 
BRANCH   2   3
ATOM      3  CG  PHE A  61     -37.037 128.002  10.356  1.00 39.01    -0.020 A 
ATOM      4  CD2 PHE A  61     -36.302 126.832  10.244  1.00 40.32    -0.004 A 
ATOM      5  CE2 PHE A  61     -36.507 125.962   9.181  1.00 40.20    -0.000 A 
ATOM      6  CZ  PHE A  61     -37.450 126.249   8.220  1.00 40.34    -0.000 A 
ATOM      7  CE1 PHE A  61     -38.189 127.407   8.318  1.00 41.51    -0.000 A 
ATOM      8  CD1 PHE A  61     -37.981 128.281   9.377  1.00 39.94    -0.004 A 
ENDBRANCH   2   3
ENDBRANCH   1   2
END_RES PHE A  61
BEGIN_RES VAL A 134
REMARK  1 active torsions:
REMARK  status: ('A' for Active; 'I' for Inactive)
REMARK    3  A    between atoms: CA   and  CB  
ROOT
ATOM      9  CA  VAL A 134     -29.766 132.051   9.815  1.00 40.75     0.159 C 
ENDROOT
BRANCH   9  10
ATOM     10  CB  VAL A 134     -30.864 132.765   9.009  1.00 40.76     0.029 C 
ATOM     11  CG1 VAL A 134     -31.178 132.000   7.732  1.00 41.76     0.002 C 
ATOM     12  CG2 VAL A 134     -32.123 132.973   9.837  1.00 40.56     0.002 C 
ENDBRANCH   9  10
END_RES VAL A 134
BEGIN_RES TYR A 338
REMARK  3 active torsions:
REMARK  status: ('A' for Active; 'I' for Inactive)
REMARK    4  A    between atoms: CA   and  CB  
REMARK    5  A    between atoms: CB   and  CG  
REMARK    6  A    between atoms: CZ   and  OH  
ROOT
ATOM     13  CA  TYR A 338     -41.631 124.950   6.058  1.00 38.23     0.164 C 
ENDROOT
BRANCH  13  14
ATOM     14  CB  TYR A 338     -41.621 126.456   6.339  1.00 39.15     0.058 C 
BRANCH  14  15
ATOM     15  CG  TYR A 338     -40.424 127.214   5.813  1.00 39.03    -0.020 A 
ATOM     16  CD2 TYR A 338     -40.241 128.547   6.137  1.00 40.65    -0.002 A 
ATOM     17  CE2 TYR A 338     -39.163 129.277   5.659  1.00 40.91     0.024 A 
ATOM     18  CZ  TYR A 338     -38.236 128.670   4.833  1.00 42.33     0.089 A 
ATOM     19  CE1 TYR A 338     -38.394 127.337   4.499  1.00 40.63     0.024 A 
ATOM     20  CD1 TYR A 338     -39.486 126.628   4.976  1.00 39.27    -0.002 A 
BRANCH  18  21
ATOM     21  OH  TYR A 338     -37.166 129.379   4.360  1.00 43.36    -0.359 OA
ATOM     22  HH  TYR A 338     -36.376 128.929   4.084  1.00  0.00     0.217 HD
ENDBRANCH  18  21
ENDBRANCH  14  15
ENDBRANCH  13  14
END_RES TYR A 338
ENDMDL
