MODEL 1
REMARK VINA RESULT:   -11.121      0.000      0.000
REMARK INTER + INTRA:         -13.623
REMARK INTER:                 -11.121
REMARK INTRA:                  -2.503
REMARK UNBOUND:                -2.503
REMARK  0 active torsions:
REMARK  status: ('A' for Active; 'I' for Inactive)
REMARK       I    between atoms: C3_3  and  O3_21 
REMARK       I    between atoms: C6_6  and  C7_7 
REMARK       I    between atoms: C8_8  and  C9_9 
REMARK       I    between atoms: C10_10  and  C11_11 
REMARK       I    between atoms: C12_12  and  C13_13 
REMARK       I    between atoms: C14_14  and  C15_15 
REMARK       I    between atoms: C23_25  and  O23_43 
REMARK       I    between atoms: C26_28  and  C27_29 
REMARK       I    between atoms: C28_30  and  C29_31 
REMARK       I    between atoms: C30_32  and  C31_33 
REMARK       I    between atoms: C32_34  and  C33_35 
REMARK       I    between atoms: C34_36  and  C35_37 
ROOT
HETATM    1  C1  8UH F5620     -49.159 144.737  12.687  1.00 19.30    -0.018 C 
HETATM    2  C2  8UH F5620     -49.614 145.356  14.022  1.00 17.68     0.045 C 
HETATM    3  C3  8UH F5620     -48.796 146.496  14.620  1.00 17.79     0.123 C 
HETATM    4  C4  8UH F5620     -47.899 147.248  13.635  1.00 18.50     0.066 C 
HETATM    5  C5  8UH F5620     -47.317 146.505  12.477  1.00 19.40    -0.074 C 
HETATM    6  C6  8UH F5620     -47.881 145.332  12.015  1.00 19.02    -0.048 C 
HETATM    7  C7  8UH F5620     -47.299 144.591  10.885  1.00 18.60     0.009 C 
HETATM    8  C8  8UH F5620     -46.211 143.793  10.918  1.00 18.09     0.007 C 
HETATM    9  C9  8UH F5620     -45.555 143.146   9.777  1.00 18.23    -0.062 C 
HETATM   10  C10 8UH F5620     -44.535 142.299  10.037  1.00 15.81     0.007 C 
HETATM   11  C11 8UH F5620     -43.772 141.551   9.076  1.00 18.00     0.001 C 
HETATM   12  C12 8UH F5620     -42.910 140.613   9.499  1.00 18.12     0.007 C 
HETATM   13  C13 8UH F5620     -42.076 139.706   8.721  1.00 18.88    -0.062 C 
HETATM   14  C14 8UH F5620     -41.374 138.776   9.403  1.00 21.10     0.007 C 
HETATM   15  C15 8UH F5620     -40.554 137.720   8.869  1.00 24.06     0.001 C 
HETATM   16  C16 8UH F5620     -50.374 144.947  11.767  1.00 17.17     0.020 C 
HETATM   17  C17 8UH F5620     -48.998 143.218  12.923  1.00 16.95     0.020 C 
HETATM   18  C18 8UH F5620     -46.109 147.239  11.990  1.00 19.80     0.044 C 
HETATM   19  C19 8UH F5620     -46.098 143.431   8.396  1.00 17.09     0.048 C 
HETATM   20  C20 8UH F5620     -42.112 139.817   7.228  1.00 16.35     0.048 C 
HETATM   21  O3  8UH F5620     -49.645 147.406  15.293  1.00 17.38    -0.395 OA
ATOM     22  H3  8UH F5620     -49.135 148.116  15.665  1.00  0.00     0.210 HD
HETATM   23  C21 8UH F5620     -34.402 126.904   6.410  1.00 29.53    -0.018 C 
HETATM   24  C22 8UH F5620     -34.022 126.242   5.087  1.00 29.53     0.045 C 
HETATM   25  C23 8UH F5620     -33.010 126.955   4.202  1.00 29.53     0.123 C 
HETATM   26  C24 8UH F5620     -31.952 127.638   5.042  1.00 29.53     0.066 C 
HETATM   27  C25 8UH F5620     -32.642 128.612   5.950  1.00 29.53    -0.074 C 
HETATM   28  C26 8UH F5620     -33.690 128.218   6.683  1.00 29.53    -0.048 C 
HETATM   29  C27 8UH F5620     -34.171 129.051   7.807  1.00 29.53     0.009 C 
HETATM   30  C28 8UH F5620     -35.004 130.080   7.642  1.00 29.53     0.007 C 
HETATM   31  C29 8UH F5620     -35.490 130.908   8.790  1.00 26.61    -0.062 C 
HETATM   32  C30 8UH F5620     -36.332 131.919   8.487  1.00 25.24     0.007 C 
HETATM   33  C31 8UH F5620     -36.967 132.812   9.410  1.00 26.40     0.001 C 
HETATM   34  C32 8UH F5620     -37.756 133.818   8.986  1.00 26.29     0.007 C 
HETATM   35  C33 8UH F5620     -38.465 134.823   9.784  1.00 26.99    -0.062 C 
HETATM   36  C34 8UH F5620     -39.170 135.764   9.119  1.00 26.65     0.007 C 
HETATM   37  C35 8UH F5620     -39.935 136.846   9.671  1.00 25.43     0.001 C 
HETATM   38  C36 8UH F5620     -34.132 125.888   7.515  1.00 29.53     0.020 C 
HETATM   39  C37 8UH F5620     -35.897 127.204   6.386  1.00 29.53     0.020 C 
HETATM   40  C38 8UH F5620     -31.721 129.719   6.378  1.00 29.53     0.044 C 
HETATM   41  C39 8UH F5620     -35.028 130.587  10.190  1.00 26.87     0.048 C 
HETATM   42  C40 8UH F5620     -38.338 134.750  11.277  1.00 24.17     0.048 C 
HETATM   43  O23 8UH F5620     -32.363 125.995   3.362  1.00 29.53    -0.395 OA
ATOM     44  H23 8UH F5620     -33.028 125.567   2.835  1.00  0.00     0.210 HD
ENDROOT
TORSDOF 12
BEGIN_RES PHE A  61
REMARK  2 active torsions:
REMARK  status: ('A' for Active; 'I' for Inactive)
REMARK    1  A    between atoms: CA   and  CB  
REMARK    2  A    between atoms: CB   and  CG  
ROOT
ATOM      1  CA  PHE A  61     -36.237 128.293  12.768  1.00 39.40     0.164 C 
ENDROOT
BRANCH   1   2
ATOM      2  CB  PHE A  61     -36.813 128.951  11.509  1.00 39.41     0.058 C 
BRANCH   2   3
ATOM      3  CG  PHE A  61     -37.081 127.994  10.372  1.00 39.01    -0.020 A 
ATOM      4  CD2 PHE A  61     -36.361 126.816  10.248  1.00 40.32    -0.004 A 
ATOM      5  CE2 PHE A  61     -36.606 125.939   9.200  1.00 40.20    -0.000 A 
ATOM      6  CZ  PHE A  61     -37.575 126.227   8.266  1.00 40.34    -0.000 A 
ATOM      7  CE1 PHE A  61     -38.300 127.392   8.375  1.00 41.51    -0.000 A 
ATOM      8  CD1 PHE A  61     -38.051 128.273   9.420  1.00 39.94    -0.004 A 
ENDBRANCH   2   3
ENDBRANCH   1   2
END_RES PHE A  61
BEGIN_RES VAL A 134
REMARK  1 active torsions:
REMARK  status: ('A' for Active; 'I' for Inactive)
REMARK    3  A    between atoms: CA   and  CB  
ROOT
ATOM      9  CA  VAL A 134     -29.766 132.051   9.815  1.00 40.75     0.159 C 
ENDROOT
BRANCH   9  10
ATOM     10  CB  VAL A 134     -30.864 132.765   9.009  1.00 40.76     0.029 C 
ATOM     11  CG1 VAL A 134     -30.931 132.219   7.590  1.00 41.76     0.002 C 
ATOM     12  CG2 VAL A 134     -32.219 132.661   9.692  1.00 40.56     0.002 C 
ENDBRANCH   9  10
END_RES VAL A 134
BEGIN_RES TYR A 338
REMARK  3 active torsions:
REMARK  status: ('A' for Active; 'I' for Inactive)
REMARK    4  A    between atoms: CA   and  CB  
REMARK    5  A    between atoms: CB   and  CG  
REMARK    6  A    between atoms: CZ   and  OH  
ROOT
ATOM     13  CA  TYR A 338     -41.631 124.950   6.058  1.00 38.23     0.164 C 
ENDROOT
BRANCH  13  14
ATOM     14  CB  TYR A 338     -41.621 126.456   6.339  1.00 39.15     0.058 C 
BRANCH  14  15
ATOM     15  CG  TYR A 338     -40.416 127.211   5.826  1.00 39.03    -0.020 A 
ATOM     16  CD2 TYR A 338     -40.240 128.548   6.142  1.00 40.65    -0.002 A 
ATOM     17  CE2 TYR A 338     -39.156 129.275   5.677  1.00 40.91     0.024 A 
ATOM     18  CZ  TYR A 338     -38.214 128.663   4.871  1.00 42.33     0.089 A 
ATOM     19  CE1 TYR A 338     -38.365 127.327   4.546  1.00 40.63     0.024 A 
ATOM     20  CD1 TYR A 338     -39.464 126.620   5.011  1.00 39.27    -0.002 A 
BRANCH  18  21
ATOM     21  OH  TYR A 338     -37.138 129.369   4.410  1.00 43.36    -0.359 OA
ATOM     22  HH  TYR A 338     -37.128 130.318   4.462  1.00  0.00     0.217 HD
ENDBRANCH  18  21
ENDBRANCH  14  15
ENDBRANCH  13  14
END_RES TYR A 338
ENDMDL
MODEL 2
REMARK VINA RESULT:    -8.995      0.406     16.911
REMARK INTER + INTRA:         -11.497
REMARK INTER:                  -8.919
REMARK INTRA:                  -2.578
REMARK UNBOUND:                -2.503
REMARK  0 active torsions:
REMARK  status: ('A' for Active; 'I' for Inactive)
REMARK       I    between atoms: C3_3  and  O3_21 
REMARK       I    between atoms: C6_6  and  C7_7 
REMARK       I    between atoms: C8_8  and  C9_9 
REMARK       I    between atoms: C10_10  and  C11_11 
REMARK       I    between atoms: C12_12  and  C13_13 
REMARK       I    between atoms: C14_14  and  C15_15 
REMARK       I    between atoms: C23_25  and  O23_43 
REMARK       I    between atoms: C26_28  and  C27_29 
REMARK       I    between atoms: C28_30  and  C29_31 
REMARK       I    between atoms: C30_32  and  C31_33 
REMARK       I    between atoms: C32_34  and  C33_35 
REMARK       I    between atoms: C34_36  and  C35_37 
ROOT
HETATM    1  C1  8UH F5620     -34.552 127.012   6.242  1.00 19.30    -0.018 C 
HETATM    2  C2  8UH F5620     -34.109 126.375   4.911  1.00 17.68     0.045 C 
HETATM    3  C3  8UH F5620     -32.917 126.974   4.173  1.00 17.79     0.123 C 
HETATM    4  C4  8UH F5620     -31.973 127.823   5.026  1.00 18.50     0.066 C 
HETATM    5  C5  8UH F5620     -32.535 128.590   6.178  1.00 19.40    -0.074 C 
HETATM    6  C6  8UH F5620     -33.735 128.237   6.763  1.00 19.02    -0.048 C 
HETATM    7  C7  8UH F5620     -34.298 129.001   7.887  1.00 18.60     0.009 C 
HETATM    8  C8  8UH F5620     -34.938 130.188   7.816  1.00 18.09     0.007 C 
HETATM    9  C9  8UH F5620     -35.397 131.012   8.938  1.00 18.23    -0.062 C 
HETATM   10  C10 8UH F5620     -36.112 132.122   8.651  1.00 15.81     0.007 C 
HETATM   11  C11 8UH F5620     -36.670 133.053   9.592  1.00 18.00     0.001 C 
HETATM   12  C12 8UH F5620     -37.510 134.008   9.161  1.00 18.12     0.007 C 
HETATM   13  C13 8UH F5620     -38.229 135.019   9.925  1.00 18.88    -0.062 C 
HETATM   14  C14 8UH F5620     -39.104 135.796   9.251  1.00 21.10     0.007 C 
HETATM   15  C15 8UH F5620     -39.991 136.796   9.783  1.00 24.06     0.001 C 
HETATM   16  C16 8UH F5620     -34.441 125.850   7.245  1.00 17.17     0.020 C 
HETATM   17  C17 8UH F5620     -36.048 127.372   6.095  1.00 16.95     0.020 C 
HETATM   18  C18 8UH F5620     -31.605 129.712   6.511  1.00 19.80     0.044 C 
HETATM   19  C19 8UH F5620     -35.083 130.537  10.338  1.00 17.09     0.048 C 
HETATM   20  C20 8UH F5620     -38.008 135.078  11.405  1.00 16.35     0.048 C 
HETATM   21  O3  8UH F5620     -32.188 125.955   3.513  1.00 17.38    -0.395 OA
ATOM     22  H3  8UH F5620     -31.445 126.328   3.053  1.00  0.00     0.210 HD
HETATM   23  C21 8UH F5620     -49.626 144.608  12.433  1.00 29.53    -0.018 C 
HETATM   24  C22 8UH F5620     -50.124 145.176  13.760  1.00 29.53     0.045 C 
HETATM   25  C23 8UH F5620     -49.211 146.137  14.507  1.00 29.53     0.123 C 
HETATM   26  C24 8UH F5620     -48.456 147.021  13.538  1.00 29.53     0.066 C 
HETATM   27  C25 8UH F5620     -47.660 146.133  12.628  1.00 29.53    -0.074 C 
HETATM   28  C26 8UH F5620     -48.252 145.101  12.014  1.00 29.53    -0.048 C 
HETATM   29  C27 8UH F5620     -47.584 144.424  10.881  1.00 29.53     0.009 C 
HETATM   30  C28 8UH F5620     -46.670 143.466  11.046  1.00 29.53     0.007 C 
HETATM   31  C29 8UH F5620     -46.009 142.781   9.891  1.00 26.61    -0.062 C 
HETATM   32  C30 8UH F5620     -45.104 141.827  10.195  1.00 25.24     0.007 C 
HETATM   33  C31 8UH F5620     -44.382 141.003   9.271  1.00 26.40     0.001 C 
HETATM   34  C32 8UH F5620     -43.466 140.112   9.692  1.00 26.29     0.007 C 
HETATM   35  C33 8UH F5620     -42.634 139.208   8.891  1.00 26.99    -0.062 C 
HETATM   36  C34 8UH F5620     -41.750 138.426   9.548  1.00 26.65     0.007 C 
HETATM   37  C35 8UH F5620     -40.830 137.474   8.992  1.00 25.43     0.001 C 
HETATM   38  C36 8UH F5620     -50.679 144.939  11.379  1.00 29.53     0.020 C 
HETATM   39  C37 8UH F5620     -49.535 143.092  12.563  1.00 29.53     0.020 C 
HETATM   40  C38 8UH F5620     -46.473 146.850  12.051  1.00 29.53     0.044 C 
HETATM   41  C39 8UH F5620     -46.372 143.180   8.481  1.00 26.87     0.048 C 
HETATM   42  C40 8UH F5620     -42.804 139.233   7.401  1.00 24.17     0.048 C 
HETATM   43  O23 8UH F5620     -50.003 146.976  15.353  1.00 29.53    -0.395 OA
ATOM     44  H23 8UH F5620     -50.477 146.421  15.961  1.00  0.00     0.210 HD
ENDROOT
TORSDOF 12
BEGIN_RES PHE A  61
REMARK  2 active torsions:
REMARK  status: ('A' for Active; 'I' for Inactive)
REMARK    1  A    between atoms: CA   and  CB  
REMARK    2  A    between atoms: CB   and  CG  
ROOT
ATOM      1  CA  PHE A  61     -36.237 128.293  12.768  1.00 39.40     0.164 C 
ENDROOT
BRANCH   1   2
ATOM      2  CB  PHE A  61     -36.813 128.951  11.509  1.00 39.41     0.058 C 
BRANCH   2   3
ATOM      3  CG  PHE A  61     -37.061 127.998  10.365  1.00 39.01    -0.020 A 
ATOM      4  CD2 PHE A  61     -36.324 126.831  10.237  1.00 40.32    -0.004 A 
ATOM      5  CE2 PHE A  61     -36.551 125.957   9.182  1.00 40.20    -0.000 A 
ATOM      6  CZ  PHE A  61     -37.520 126.236   8.246  1.00 40.34    -0.000 A 
ATOM      7  CE1 PHE A  61     -38.263 127.390   8.359  1.00 41.51    -0.000 A 
ATOM      8  CD1 PHE A  61     -38.032 128.268   9.410  1.00 39.94    -0.004 A 
ENDBRANCH   2   3
ENDBRANCH   1   2
END_RES PHE A  61
BEGIN_RES VAL A 134
REMARK  1 active torsions:
REMARK  status: ('A' for Active; 'I' for Inactive)
REMARK    3  A    between atoms: CA   and  CB  
ROOT
ATOM      9  CA  VAL A 134     -29.766 132.051   9.815  1.00 40.75     0.159 C 
ENDROOT
BRANCH   9  10
ATOM     10  CB  VAL A 134     -30.864 132.765   9.009  1.00 40.76     0.029 C 
ATOM     11  CG1 VAL A 134     -30.927 132.223   7.588  1.00 41.76     0.002 C 
ATOM     12  CG2 VAL A 134     -32.220 132.657   9.689  1.00 40.56     0.002 C 
ENDBRANCH   9  10
END_RES VAL A 134
BEGIN_RES TYR A 338
REMARK  3 active torsions:
REMARK  status: ('A' for Active; 'I' for Inactive)
REMARK    4  A    between atoms: CA   and  CB  
REMARK    5  A    between atoms: CB   and  CG  
REMARK    6  A    between atoms: CZ   and  OH  
ROOT
ATOM     13  CA  TYR A 338     -41.631 124.950   6.058  1.00 38.23     0.164 C 
ENDROOT
BRANCH  13  14
ATOM     14  CB  TYR A 338     -41.621 126.456   6.339  1.00 39.15     0.058 C 
BRANCH  14  15
ATOM     15  CG  TYR A 338     -40.427 127.215   5.807  1.00 39.03    -0.020 A 
ATOM     16  CD2 TYR A 338     -40.247 128.550   6.125  1.00 40.65    -0.002 A 
ATOM     17  CE2 TYR A 338     -39.172 129.281   5.643  1.00 40.91     0.024 A 
ATOM     18  CZ  TYR A 338     -38.245 128.673   4.817  1.00 42.33     0.089 A 
ATOM     19  CE1 TYR A 338     -38.401 127.338   4.488  1.00 40.63     0.024 A 
ATOM     20  CD1 TYR A 338     -39.490 126.629   4.971  1.00 39.27    -0.002 A 
BRANCH  18  21
ATOM     21  OH  TYR A 338     -37.179 129.383   4.339  1.00 43.36    -0.359 OA
ATOM     22  HH  TYR A 338     -36.312 128.994   4.320  1.00  0.00     0.217 HD
ENDBRANCH  18  21
ENDBRANCH  14  15
ENDBRANCH  13  14
END_RES TYR A 338
ENDMDL
MODEL 3
REMARK VINA RESULT:    -8.438      1.382     16.898
REMARK INTER + INTRA:         -10.940
REMARK INTER:                 -10.485
REMARK INTRA:                  -0.456
REMARK UNBOUND:                -2.503
REMARK  0 active torsions:
REMARK  status: ('A' for Active; 'I' for Inactive)
REMARK       I    between atoms: C3_3  and  O3_21 
REMARK       I    between atoms: C6_6  and  C7_7 
REMARK       I    between atoms: C8_8  and  C9_9 
REMARK       I    between atoms: C10_10  and  C11_11 
REMARK       I    between atoms: C12_12  and  C13_13 
REMARK       I    between atoms: C14_14  and  C15_15 
REMARK       I    between atoms: C23_25  and  O23_43 
REMARK       I    between atoms: C26_28  and  C27_29 
REMARK       I    between atoms: C28_30  and  C29_31 
REMARK       I    between atoms: C30_32  and  C31_33 
REMARK       I    between atoms: C32_34  and  C33_35 
REMARK       I    between atoms: C34_36  and  C35_37 
ROOT
HETATM    1  C1  8UH F5620     -34.183 128.179   6.783  1.00 19.30    -0.018 C 
HETATM    2  C2  8UH F5620     -33.357 127.683   5.581  1.00 17.68     0.045 C 
HETATM    3  C3  8UH F5620     -32.011 128.341   5.294  1.00 17.79     0.123 C 
HETATM    4  C4  8UH F5620     -31.376 129.080   6.473  1.00 18.50     0.066 C 
HETATM    5  C5  8UH F5620     -32.265 129.726   7.484  1.00 19.40    -0.074 C 
HETATM    6  C6  8UH F5620     -33.577 129.330   7.649  1.00 19.02    -0.048 C 
HETATM    7  C7  8UH F5620     -34.460 129.977   8.632  1.00 18.60     0.009 C 
HETATM    8  C8  8UH F5620     -35.072 131.173   8.504  1.00 18.09     0.007 C 
HETATM    9  C9  8UH F5620     -35.855 131.879   9.522  1.00 18.23    -0.062 C 
HETATM   10  C10 8UH F5620     -36.474 133.023   9.158  1.00 15.81     0.007 C 
HETATM   11  C11 8UH F5620     -37.300 133.855   9.987  1.00 18.00     0.001 C 
HETATM   12  C12 8UH F5620     -37.993 134.863   9.433  1.00 18.12     0.007 C 
HETATM   13  C13 8UH F5620     -38.924 135.797  10.055  1.00 18.88    -0.062 C 
HETATM   14  C14 8UH F5620     -39.576 136.653   9.240  1.00 21.10     0.007 C 
HETATM   15  C15 8UH F5620     -40.598 137.603   9.593  1.00 24.06     0.001 C 
HETATM   16  C16 8UH F5620     -34.351 126.915   7.644  1.00 17.17     0.020 C 
HETATM   17  C17 8UH F5620     -35.576 128.575   6.242  1.00 16.95     0.020 C 
HETATM   18  C18 8UH F5620     -31.495 130.793   8.194  1.00 19.80     0.044 C 
HETATM   19  C19 8UH F5620     -35.958 131.251  10.894  1.00 17.09     0.048 C 
HETATM   20  C20 8UH F5620     -39.148 135.693  11.532  1.00 16.35     0.048 C 
HETATM   21  O3  8UH F5620     -31.103 127.388   4.773  1.00 17.38    -0.395 OA
ATOM     22  H3  8UH F5620     -30.264 127.798   4.594  1.00  0.00     0.210 HD
HETATM   23  C21 8UH F5620     -50.725 145.222  10.111  1.00 29.53    -0.018 C 
HETATM   24  C22 8UH F5620     -51.601 145.651  11.286  1.00 29.53     0.045 C 
HETATM   25  C23 8UH F5620     -50.965 146.513  12.367  1.00 29.53     0.123 C 
HETATM   26  C24 8UH F5620     -49.975 147.486  11.763  1.00 29.53     0.066 C 
HETATM   27  C25 8UH F5620     -48.931 146.689  11.037  1.00 29.53    -0.074 C 
HETATM   28  C26 8UH F5620     -49.298 145.738  10.170  1.00 29.53    -0.048 C 
HETATM   29  C27 8UH F5620     -48.314 145.176   9.218  1.00 29.53     0.009 C 
HETATM   30  C28 8UH F5620     -47.472 144.193   9.541  1.00 29.53     0.007 C 
HETATM   31  C29 8UH F5620     -46.489 143.628   8.565  1.00 26.61    -0.062 C 
HETATM   32  C30 8UH F5620     -45.696 142.634   9.018  1.00 25.24     0.007 C 
HETATM   33  C31 8UH F5620     -44.720 141.904   8.264  1.00 26.40     0.001 C 
HETATM   34  C32 8UH F5620     -43.951 140.959   8.839  1.00 26.29     0.007 C 
HETATM   35  C33 8UH F5620     -42.905 140.134   8.226  1.00 26.99    -0.062 C 
HETATM   36  C34 8UH F5620     -42.239 139.274   9.026  1.00 26.65     0.007 C 
HETATM   37  C35 8UH F5620     -41.180 138.374   8.667  1.00 25.43     0.001 C 
HETATM   38  C36 8UH F5620     -51.427 145.680   8.836  1.00 29.53     0.020 C 
HETATM   39  C37 8UH F5620     -50.649 143.700  10.099  1.00 29.53     0.020 C 
HETATM   40  C38 8UH F5620     -47.640 147.447  10.915  1.00 29.53     0.044 C 
HETATM   41  C39 8UH F5620     -46.428 144.181   7.162  1.00 26.87     0.048 C 
HETATM   42  C40 8UH F5620     -42.630 140.322   6.763  1.00 24.17     0.048 C 
HETATM   43  O23 8UH F5620     -51.986 147.268  13.026  1.00 29.53    -0.395 OA
ATOM     44  H23 8UH F5620     -52.608 146.658  13.405  1.00  0.00     0.210 HD
ENDROOT
TORSDOF 12
BEGIN_RES PHE A  61
REMARK  2 active torsions:
REMARK  status: ('A' for Active; 'I' for Inactive)
REMARK    1  A    between atoms: CA   and  CB  
REMARK    2  A    between atoms: CB   and  CG  
ROOT
ATOM      1  CA  PHE A  61     -36.237 128.293  12.768  1.00 39.40     0.164 C 
ENDROOT
BRANCH   1   2
ATOM      2  CB  PHE A  61     -36.813 128.951  11.509  1.00 39.41     0.058 C 
BRANCH   2   3
ATOM      3  CG  PHE A  61     -37.002 128.009  10.344  1.00 39.01    -0.020 A 
ATOM      4  CD2 PHE A  61     -36.261 126.843  10.244  1.00 40.32    -0.004 A 
ATOM      5  CE2 PHE A  61     -36.434 125.979   9.169  1.00 40.20    -0.000 A 
ATOM      6  CZ  PHE A  61     -37.352 126.270   8.186  1.00 40.34    -0.000 A 
ATOM      7  CE1 PHE A  61     -38.098 127.424   8.272  1.00 41.51    -0.000 A 
ATOM      8  CD1 PHE A  61     -37.921 128.291   9.342  1.00 39.94    -0.004 A 
ENDBRANCH   2   3
ENDBRANCH   1   2
END_RES PHE A  61
BEGIN_RES VAL A 134
REMARK  1 active torsions:
REMARK  status: ('A' for Active; 'I' for Inactive)
REMARK    3  A    between atoms: CA   and  CB  
ROOT
ATOM      9  CA  VAL A 134     -29.766 132.051   9.815  1.00 40.75     0.159 C 
ENDROOT
BRANCH   9  10
ATOM     10  CB  VAL A 134     -30.864 132.765   9.009  1.00 40.76     0.029 C 
ATOM     11  CG1 VAL A 134     -32.106 132.978   9.863  1.00 41.76     0.002 C 
ATOM     12  CG2 VAL A 134     -30.370 134.084   8.434  1.00 40.56     0.002 C 
ENDBRANCH   9  10
END_RES VAL A 134
BEGIN_RES TYR A 338
REMARK  3 active torsions:
REMARK  status: ('A' for Active; 'I' for Inactive)
REMARK    4  A    between atoms: CA   and  CB  
REMARK    5  A    between atoms: CB   and  CG  
REMARK    6  A    between atoms: CZ   and  OH  
ROOT
ATOM     13  CA  TYR A 338     -41.631 124.950   6.058  1.00 38.23     0.164 C 
ENDROOT
BRANCH  13  14
ATOM     14  CB  TYR A 338     -41.621 126.456   6.339  1.00 39.15     0.058 C 
BRANCH  14  15
ATOM     15  CG  TYR A 338     -40.427 127.215   5.807  1.00 39.03    -0.020 A 
ATOM     16  CD2 TYR A 338     -40.270 128.561   6.088  1.00 40.65    -0.002 A 
ATOM     17  CE2 TYR A 338     -39.196 129.292   5.604  1.00 40.91     0.024 A 
ATOM     18  CZ  TYR A 338     -38.246 128.673   4.813  1.00 42.33     0.089 A 
ATOM     19  CE1 TYR A 338     -38.379 127.327   4.522  1.00 40.63     0.024 A 
ATOM     20  CD1 TYR A 338     -39.467 126.617   5.005  1.00 39.27    -0.002 A 
BRANCH  18  21
ATOM     21  OH  TYR A 338     -37.181 129.383   4.333  1.00 43.36    -0.359 OA
ATOM     22  HH  TYR A 338     -36.294 129.140   4.574  1.00  0.00     0.217 HD
ENDBRANCH  18  21
ENDBRANCH  14  15
ENDBRANCH  13  14
END_RES TYR A 338
ENDMDL
