MODEL 1
REMARK VINA RESULT:   -10.175      0.000      0.000
REMARK INTER + INTRA:         -12.150
REMARK INTER:                 -10.175
REMARK INTRA:                  -1.976
REMARK UNBOUND:                -1.976
REMARK  0 active torsions:
REMARK  status: ('A' for Active; 'I' for Inactive)
REMARK       I    between atoms: C3_3  and  O3_21 
REMARK       I    between atoms: C6_6  and  C7_7 
REMARK       I    between atoms: C8_8  and  C9_9 
REMARK       I    between atoms: C10_10  and  C11_11 
REMARK       I    between atoms: C12_12  and  C13_13 
REMARK       I    between atoms: C14_14  and  C15_15 
REMARK       I    between atoms: C23_25  and  O23_43 
REMARK       I    between atoms: C26_28  and  C27_29 
REMARK       I    between atoms: C28_30  and  C29_31 
REMARK       I    between atoms: C30_32  and  C31_33 
REMARK       I    between atoms: C32_34  and  C33_35 
REMARK       I    between atoms: C34_36  and  C35_37 
ROOT
HETATM    1  C1  8UH G1621     -47.801 145.625  13.011  1.00 57.09    -0.018 C 
HETATM    2  C2  8UH G1621     -48.389 145.991  14.367  1.00 57.09     0.045 C 
HETATM    3  C3  8UH G1621     -47.556 146.883  15.269  1.00 57.09     0.123 C 
HETATM    4  C4  8UH G1621     -46.812 147.918  14.454  1.00 57.09     0.066 C 
HETATM    5  C5  8UH G1621     -45.948 147.210  13.454  1.00 57.09    -0.074 C 
HETATM    6  C6  8UH G1621     -46.454 146.236  12.689  1.00 57.09    -0.048 C 
HETATM    7  C7  8UH G1621     -45.731 145.732  11.489  1.00 57.09     0.009 C 
HETATM    8  C8  8UH G1621     -44.741 144.839  11.584  1.00 57.09     0.007 C 
HETATM    9  C9  8UH G1621     -44.007 144.297  10.429  1.00 57.09    -0.062 C 
HETATM   10  C10 8UH G1621     -43.403 143.123  10.629  1.00 57.09     0.007 C 
HETATM   11  C11 8UH G1621     -42.640 142.356   9.653  1.00 57.09     0.001 C 
HETATM   12  C12 8UH G1621     -42.186 141.191  10.101  1.00 57.09     0.007 C 
HETATM   13  C13 8UH G1621     -41.429 140.227   9.289  1.00 57.09    -0.062 C 
HETATM   14  C14 8UH G1621     -40.946 139.127   9.882  1.00 57.09     0.007 C 
HETATM   15  C15 8UH G1621     -40.231 138.106   9.127  1.00 57.09     0.001 C 
HETATM   16  C16 8UH G1621     -48.835 146.007  11.962  1.00 57.09     0.020 C 
HETATM   17  C17 8UH G1621     -47.610 144.124  12.994  1.00 57.09     0.020 C 
HETATM   18  C18 8UH G1621     -44.792 148.060  13.015  1.00 57.09     0.044 C 
HETATM   19  C19 8UH G1621     -43.946 145.017   9.118  1.00 57.09     0.048 C 
HETATM   20  C20 8UH G1621     -41.253 140.458   7.821  1.00 57.09     0.048 C 
HETATM   21  O3  8UH G1621     -48.448 147.554  16.161  1.00 57.09    -0.395 OA
ATOM     22  H3  8UH G1621     -48.916 146.903  16.673  1.00  0.00     0.210 HD
HETATM   23  C21 8UH G1621     -34.595 126.988   6.441  1.00 16.39    -0.018 C 
HETATM   24  C22 8UH G1621     -34.164 126.271   5.169  1.00 16.39     0.045 C 
HETATM   25  C23 8UH G1621     -33.075 126.903   4.315  1.00 16.39     0.123 C 
HETATM   26  C24 8UH G1621     -32.094 127.707   5.138  1.00 16.39     0.066 C 
HETATM   27  C25 8UH G1621     -32.858 128.707   5.948  1.00 16.39    -0.074 C 
HETATM   28  C26 8UH G1621     -33.920 128.331   6.661  1.00 16.39    -0.048 C 
HETATM   29  C27 8UH G1621     -34.431 129.223   7.727  1.00 16.39     0.009 C 
HETATM   30  C28 8UH G1621     -35.344 130.170   7.504  1.00 16.39     0.007 C 
HETATM   31  C29 8UH G1621     -35.822 131.041   8.596  1.00 57.09    -0.062 C 
HETATM   32  C30 8UH G1621     -36.867 131.818   8.304  1.00 57.09     0.007 C 
HETATM   33  C31 8UH G1621     -37.473 132.745   9.247  1.00 57.09     0.001 C 
HETATM   34  C32 8UH G1621     -37.949 133.870   8.731  1.00 57.09     0.007 C 
HETATM   35  C33 8UH G1621     -38.591 134.895   9.554  1.00 57.09    -0.062 C 
HETATM   36  C34 8UH G1621     -39.175 135.947   8.975  1.00 57.09     0.007 C 
HETATM   37  C35 8UH G1621     -39.849 136.990   9.737  1.00 57.09     0.001 C 
HETATM   38  C36 8UH G1621     -34.347 126.030   7.599  1.00 16.39     0.020 C 
HETATM   39  C37 8UH G1621     -36.089 127.258   6.347  1.00 16.39     0.020 C 
HETATM   40  C38 8UH G1621     -31.976 129.843   6.377  1.00 16.39     0.044 C 
HETATM   41  C39 8UH G1621     -35.168 131.067   9.941  1.00 57.09     0.048 C 
HETATM   42  C40 8UH G1621     -38.551 134.734  11.029  1.00 57.09     0.048 C 
HETATM   43  O23 8UH G1621     -32.363 125.864   3.640  1.00 16.39    -0.395 OA
ATOM     44  H23 8UH G1621     -31.684 126.258   3.107  1.00  0.00     0.210 HD
ENDROOT
TORSDOF 12
BEGIN_RES PHE A  61
REMARK  2 active torsions:
REMARK  status: ('A' for Active; 'I' for Inactive)
REMARK    1  A    between atoms: CA   and  CB  
REMARK    2  A    between atoms: CB   and  CG  
ROOT
ATOM      1  CA  PHE A  61     -36.237 128.293  12.768  1.00 39.40     0.164 C 
ENDROOT
BRANCH   1   2
ATOM      2  CB  PHE A  61     -36.813 128.951  11.509  1.00 39.41     0.058 C 
BRANCH   2   3
ATOM      3  CG  PHE A  61     -37.117 127.989  10.386  1.00 39.01    -0.020 A 
ATOM      4  CD2 PHE A  61     -36.459 126.773  10.292  1.00 40.32    -0.004 A 
ATOM      5  CE2 PHE A  61     -36.737 125.890   9.256  1.00 40.20    -0.000 A 
ATOM      6  CZ  PHE A  61     -37.679 126.211   8.305  1.00 40.34    -0.000 A 
ATOM      7  CE1 PHE A  61     -38.344 127.415   8.385  1.00 41.51    -0.000 A 
ATOM      8  CD1 PHE A  61     -38.061 128.301   9.417  1.00 39.94    -0.004 A 
ENDBRANCH   2   3
ENDBRANCH   1   2
END_RES PHE A  61
BEGIN_RES VAL A 134
REMARK  1 active torsions:
REMARK  status: ('A' for Active; 'I' for Inactive)
REMARK    3  A    between atoms: CA   and  CB  
ROOT
ATOM      9  CA  VAL A 134     -29.766 132.051   9.815  1.00 40.75     0.159 C 
ENDROOT
BRANCH   9  10
ATOM     10  CB  VAL A 134     -30.864 132.765   9.009  1.00 40.76     0.029 C 
ATOM     11  CG1 VAL A 134     -31.175 132.002   7.730  1.00 41.76     0.002 C 
ATOM     12  CG2 VAL A 134     -32.124 132.970   9.836  1.00 40.56     0.002 C 
ENDBRANCH   9  10
END_RES VAL A 134
BEGIN_RES TYR A 338
REMARK  3 active torsions:
REMARK  status: ('A' for Active; 'I' for Inactive)
REMARK    4  A    between atoms: CA   and  CB  
REMARK    5  A    between atoms: CB   and  CG  
REMARK    6  A    between atoms: CZ   and  OH  
ROOT
ATOM     13  CA  TYR A 338     -41.631 124.950   6.058  1.00 38.23     0.164 C 
ENDROOT
BRANCH  13  14
ATOM     14  CB  TYR A 338     -41.621 126.456   6.339  1.00 39.15     0.058 C 
BRANCH  14  15
ATOM     15  CG  TYR A 338     -40.421 127.213   5.817  1.00 39.03    -0.020 A 
ATOM     16  CD2 TYR A 338     -40.239 128.546   6.141  1.00 40.65    -0.002 A 
ATOM     17  CE2 TYR A 338     -39.159 129.275   5.668  1.00 40.91     0.024 A 
ATOM     18  CZ  TYR A 338     -38.228 128.668   4.846  1.00 42.33     0.089 A 
ATOM     19  CE1 TYR A 338     -38.386 127.335   4.512  1.00 40.63     0.024 A 
ATOM     20  CD1 TYR A 338     -39.480 126.627   4.985  1.00 39.27    -0.002 A 
BRANCH  18  21
ATOM     21  OH  TYR A 338     -37.157 129.376   4.377  1.00 43.36    -0.359 OA
ATOM     22  HH  TYR A 338     -36.274 129.136   4.632  1.00  0.00     0.217 HD
ENDBRANCH  18  21
ENDBRANCH  14  15
ENDBRANCH  13  14
END_RES TYR A 338
ENDMDL
MODEL 2
REMARK VINA RESULT:   -10.110      1.677     16.764
REMARK INTER + INTRA:         -12.085
REMARK INTER:                  -9.012
REMARK INTRA:                  -3.073
REMARK UNBOUND:                -1.976
REMARK  0 active torsions:
REMARK  status: ('A' for Active; 'I' for Inactive)
REMARK       I    between atoms: C3_3  and  O3_21 
REMARK       I    between atoms: C6_6  and  C7_7 
REMARK       I    between atoms: C8_8  and  C9_9 
REMARK       I    between atoms: C10_10  and  C11_11 
REMARK       I    between atoms: C12_12  and  C13_13 
REMARK       I    between atoms: C14_14  and  C15_15 
REMARK       I    between atoms: C23_25  and  O23_43 
REMARK       I    between atoms: C26_28  and  C27_29 
REMARK       I    between atoms: C28_30  and  C29_31 
REMARK       I    between atoms: C30_32  and  C31_33 
REMARK       I    between atoms: C32_34  and  C33_35 
REMARK       I    between atoms: C34_36  and  C35_37 
ROOT
HETATM    1  C1  8UH G1621     -34.542 126.968   6.135  1.00 57.09    -0.018 C 
HETATM    2  C2  8UH G1621     -34.120 126.332   4.818  1.00 57.09     0.045 C 
HETATM    3  C3  8UH G1621     -32.913 126.925   4.114  1.00 57.09     0.123 C 
HETATM    4  C4  8UH G1621     -31.871 127.362   5.120  1.00 57.09     0.066 C 
HETATM    5  C5  8UH G1621     -32.493 128.359   6.052  1.00 57.09    -0.074 C 
HETATM    6  C6  8UH G1621     -33.674 128.106   6.628  1.00 57.09    -0.048 C 
HETATM    7  C7  8UH G1621     -34.168 128.910   7.778  1.00 57.09     0.009 C 
HETATM    8  C8  8UH G1621     -34.758 130.098   7.609  1.00 57.09     0.007 C 
HETATM    9  C9  8UH G1621     -35.279 130.924   8.709  1.00 57.09    -0.062 C 
HETATM   10  C10 8UH G1621     -36.216 131.813   8.370  1.00 57.09     0.007 C 
HETATM   11  C11 8UH G1621     -36.915 132.728   9.262  1.00 57.09     0.001 C 
HETATM   12  C12 8UH G1621     -37.840 133.475   8.670  1.00 57.09     0.007 C 
HETATM   13  C13 8UH G1621     -38.702 134.438   9.370  1.00 57.09    -0.062 C 
HETATM   14  C14 8UH G1621     -39.535 135.199   8.647  1.00 57.09     0.007 C 
HETATM   15  C15 8UH G1621     -40.452 136.138   9.280  1.00 57.09     0.001 C 
HETATM   16  C16 8UH G1621     -34.607 125.850   7.166  1.00 57.09     0.020 C 
HETATM   17  C17 8UH G1621     -35.929 127.537   5.935  1.00 57.09     0.020 C 
HETATM   18  C18 8UH G1621     -31.463 129.249   6.683  1.00 57.09     0.044 C 
HETATM   19  C19 8UH G1621     -34.789 130.772  10.116  1.00 57.09     0.048 C 
HETATM   20  C20 8UH G1621     -38.677 134.520  10.864  1.00 57.09     0.048 C 
HETATM   21  O3  8UH G1621     -32.351 125.908   3.282  1.00 57.09    -0.395 OA
ATOM     22  H3  8UH G1621     -33.006 125.633   2.650  1.00  0.00     0.210 HD
HETATM   23  C21 8UH G1621     -50.088 144.388  10.578  1.00 16.39    -0.018 C 
HETATM   24  C22 8UH G1621     -50.872 144.963  11.749  1.00 16.39     0.045 C 
HETATM   25  C23 8UH G1621     -50.135 145.837  12.754  1.00 16.39     0.123 C 
HETATM   26  C24 8UH G1621     -48.988 146.594  12.124  1.00 16.39     0.066 C 
HETATM   27  C25 8UH G1621     -48.092 145.615  11.430  1.00 16.39    -0.074 C 
HETATM   28  C26 8UH G1621     -48.602 144.699  10.606  1.00 16.39    -0.048 C 
HETATM   29  C27 8UH G1621     -47.705 143.997   9.660  1.00 16.39     0.009 C 
HETATM   30  C28 8UH G1621     -47.067 142.867   9.968  1.00 16.39     0.007 C 
HETATM   31  C29 8UH G1621     -46.177 142.202   8.995  1.00 57.09    -0.062 C 
HETATM   32  C30 8UH G1621     -45.745 140.988   9.338  1.00 57.09     0.007 C 
HETATM   33  C31 8UH G1621     -44.859 140.183   8.513  1.00 57.09     0.001 C 
HETATM   34  C32 8UH G1621     -43.989 139.423   9.164  1.00 57.09     0.007 C 
HETATM   35  C33 8UH G1621     -43.037 138.556   8.469  1.00 57.09    -0.062 C 
HETATM   36  C34 8UH G1621     -42.273 137.710   9.165  1.00 57.09     0.007 C 
HETATM   37  C35 8UH G1621     -41.323 136.805   8.532  1.00 57.09     0.001 C 
HETATM   38  C36 8UH G1621     -50.752 144.896   9.305  1.00 16.39     0.020 C 
HETATM   39  C37 8UH G1621     -50.220 142.873  10.622  1.00 16.39     0.020 C 
HETATM   40  C38 8UH G1621     -46.718 146.183  11.234  1.00 16.39     0.044 C 
HETATM   41  C39 8UH G1621     -45.771 142.854   7.711  1.00 57.09     0.048 C 
HETATM   42  C40 8UH G1621     -42.941 138.665   6.992  1.00 57.09     0.048 C 
HETATM   43  O23 8UH G1621     -51.057 146.778  13.305  1.00 16.39    -0.395 OA
ATOM     44  H23 8UH G1621     -50.597 147.323  13.932  1.00  0.00     0.210 HD
ENDROOT
TORSDOF 12
BEGIN_RES PHE A  61
REMARK  2 active torsions:
REMARK  status: ('A' for Active; 'I' for Inactive)
REMARK    1  A    between atoms: CA   and  CB  
REMARK    2  A    between atoms: CB   and  CG  
ROOT
ATOM      1  CA  PHE A  61     -36.237 128.293  12.768  1.00 39.40     0.164 C 
ENDROOT
BRANCH   1   2
ATOM      2  CB  PHE A  61     -36.813 128.951  11.509  1.00 39.41     0.058 C 
BRANCH   2   3
ATOM      3  CG  PHE A  61     -37.029 128.004  10.353  1.00 39.01    -0.020 A 
ATOM      4  CD2 PHE A  61     -36.276 126.847  10.231  1.00 40.32    -0.004 A 
ATOM      5  CE2 PHE A  61     -36.474 125.978   9.165  1.00 40.20    -0.000 A 
ATOM      6  CZ  PHE A  61     -37.429 126.253   8.213  1.00 40.34    -0.000 A 
ATOM      7  CE1 PHE A  61     -38.187 127.398   8.322  1.00 41.51    -0.000 A 
ATOM      8  CD1 PHE A  61     -37.985 128.270   9.383  1.00 39.94    -0.004 A 
ENDBRANCH   2   3
ENDBRANCH   1   2
END_RES PHE A  61
BEGIN_RES VAL A 134
REMARK  1 active torsions:
REMARK  status: ('A' for Active; 'I' for Inactive)
REMARK    3  A    between atoms: CA   and  CB  
ROOT
ATOM      9  CA  VAL A 134     -29.766 132.051   9.815  1.00 40.75     0.159 C 
ENDROOT
BRANCH   9  10
ATOM     10  CB  VAL A 134     -30.864 132.765   9.009  1.00 40.76     0.029 C 
ATOM     11  CG1 VAL A 134     -31.169 132.006   7.726  1.00 41.76     0.002 C 
ATOM     12  CG2 VAL A 134     -32.127 132.963   9.833  1.00 40.56     0.002 C 
ENDBRANCH   9  10
END_RES VAL A 134
BEGIN_RES TYR A 338
REMARK  3 active torsions:
REMARK  status: ('A' for Active; 'I' for Inactive)
REMARK    4  A    between atoms: CA   and  CB  
REMARK    5  A    between atoms: CB   and  CG  
REMARK    6  A    between atoms: CZ   and  OH  
ROOT
ATOM     13  CA  TYR A 338     -41.631 124.950   6.058  1.00 38.23     0.164 C 
ENDROOT
BRANCH  13  14
ATOM     14  CB  TYR A 338     -41.621 126.456   6.339  1.00 39.15     0.058 C 
BRANCH  14  15
ATOM     15  CG  TYR A 338     -40.430 127.216   5.802  1.00 39.03    -0.020 A 
ATOM     16  CD2 TYR A 338     -40.247 128.550   6.124  1.00 40.65    -0.002 A 
ATOM     17  CE2 TYR A 338     -39.174 129.281   5.637  1.00 40.91     0.024 A 
ATOM     18  CZ  TYR A 338     -38.253 128.676   4.803  1.00 42.33     0.089 A 
ATOM     19  CE1 TYR A 338     -38.411 127.342   4.472  1.00 40.63     0.024 A 
ATOM     20  CD1 TYR A 338     -39.498 126.631   4.959  1.00 39.27    -0.002 A 
BRANCH  18  21
ATOM     21  OH  TYR A 338     -37.189 129.386   4.321  1.00 43.36    -0.359 OA
ATOM     22  HH  TYR A 338     -36.334 129.309   4.729  1.00  0.00     0.217 HD
ENDBRANCH  18  21
ENDBRANCH  14  15
ENDBRANCH  13  14
END_RES TYR A 338
ENDMDL
MODEL 3
REMARK VINA RESULT:    -9.384      1.929      2.304
REMARK INTER + INTRA:         -11.360
REMARK INTER:                 -11.050
REMARK INTRA:                  -0.310
REMARK UNBOUND:                -1.976
REMARK  0 active torsions:
REMARK  status: ('A' for Active; 'I' for Inactive)
REMARK       I    between atoms: C3_3  and  O3_21 
REMARK       I    between atoms: C6_6  and  C7_7 
REMARK       I    between atoms: C8_8  and  C9_9 
REMARK       I    between atoms: C10_10  and  C11_11 
REMARK       I    between atoms: C12_12  and  C13_13 
REMARK       I    between atoms: C14_14  and  C15_15 
REMARK       I    between atoms: C23_25  and  O23_43 
REMARK       I    between atoms: C26_28  and  C27_29 
REMARK       I    between atoms: C28_30  and  C29_31 
REMARK       I    between atoms: C30_32  and  C31_33 
REMARK       I    between atoms: C32_34  and  C33_35 
REMARK       I    between atoms: C34_36  and  C35_37 
ROOT
HETATM    1  C1  8UH G1621     -50.885 144.472  10.823  1.00 57.09    -0.018 C 
HETATM    2  C2  8UH G1621     -51.712 144.773  12.065  1.00 57.09     0.045 C 
HETATM    3  C3  8UH G1621     -51.169 145.811  13.030  1.00 57.09     0.123 C 
HETATM    4  C4  8UH G1621     -50.486 146.931  12.276  1.00 57.09     0.066 C 
HETATM    5  C5  8UH G1621     -49.386 146.346  11.440  1.00 57.09    -0.074 C 
HETATM    6  C6  8UH G1621     -49.618 145.284  10.661  1.00 57.09    -0.048 C 
HETATM    7  C7  8UH G1621     -48.659 144.873   9.599  1.00 57.09     0.009 C 
HETATM    8  C8  8UH G1621     -47.566 144.154   9.873  1.00 57.09     0.007 C 
HETATM    9  C9  8UH G1621     -46.598 143.708   8.859  1.00 57.09    -0.062 C 
HETATM   10  C10 8UH G1621     -45.853 142.653   9.198  1.00 57.09     0.007 C 
HETATM   11  C11 8UH G1621     -44.847 141.994   8.374  1.00 57.09     0.001 C 
HETATM   12  C12 8UH G1621     -44.285 140.930   8.938  1.00 57.09     0.007 C 
HETATM   13  C13 8UH G1621     -43.278 140.081   8.286  1.00 57.09    -0.062 C 
HETATM   14  C14 8UH G1621     -42.720 139.088   8.992  1.00 57.09     0.007 C 
HETATM   15  C15 8UH G1621     -41.752 138.178   8.394  1.00 57.09     0.001 C 
HETATM   16  C16 8UH G1621     -51.803 144.654   9.623  1.00 57.09     0.020 C 
HETATM   17  C17 8UH G1621     -50.462 143.022  10.906  1.00 57.09     0.020 C 
HETATM   18  C18 8UH G1621     -48.327 147.361  11.126  1.00 57.09     0.044 C 
HETATM   19  C19 8UH G1621     -46.461 144.395   7.535  1.00 57.09     0.048 C 
HETATM   20  C20 8UH G1621     -42.930 140.299   6.846  1.00 57.09     0.048 C 
HETATM   21  O3  8UH G1621     -52.274 146.351  13.756  1.00 57.09    -0.395 OA
ATOM     22  H3  8UH G1621     -52.703 145.647  14.229  1.00  0.00     0.210 HD
HETATM   23  C21 8UH G1621     -34.119 128.051   7.057  1.00 16.39    -0.018 C 
HETATM   24  C22 8UH G1621     -33.403 127.381   5.894  1.00 16.39     0.045 C 
HETATM   25  C23 8UH G1621     -32.314 128.158   5.169  1.00 16.39     0.123 C 
HETATM   26  C24 8UH G1621     -31.600 129.131   6.080  1.00 16.39     0.066 C 
HETATM   27  C25 8UH G1621     -32.620 130.016   6.727  1.00 16.39    -0.074 C 
HETATM   28  C26 8UH G1621     -33.702 129.491   7.303  1.00 16.39    -0.048 C 
HETATM   29  C27 8UH G1621     -34.495 130.316   8.243  1.00 16.39     0.009 C 
HETATM   30  C28 8UH G1621     -35.502 131.097   7.851  1.00 16.39     0.007 C 
HETATM   31  C29 8UH G1621     -36.264 131.907   8.822  1.00 57.09    -0.062 C 
HETATM   32  C30 8UH G1621     -37.363 132.497   8.351  1.00 57.09     0.007 C 
HETATM   33  C31 8UH G1621     -38.236 133.338   9.155  1.00 57.09     0.001 C 
HETATM   34  C32 8UH G1621     -38.803 134.357   8.524  1.00 57.09     0.007 C 
HETATM   35  C33 8UH G1621     -39.710 135.286   9.200  1.00 57.09    -0.062 C 
HETATM   36  C34 8UH G1621     -40.361 136.215   8.495  1.00 57.09     0.007 C 
HETATM   37  C35 8UH G1621     -41.293 137.155   9.104  1.00 57.09     0.001 C 
HETATM   38  C36 8UH G1621     -33.894 127.176   8.283  1.00 16.39     0.020 C 
HETATM   39  C37 8UH G1621     -35.607 128.074   6.744  1.00 16.39     0.020 C 
HETATM   40  C38 8UH G1621     -31.998 131.289   7.218  1.00 16.39     0.044 C 
HETATM   41  C39 8UH G1621     -35.823 132.073  10.242  1.00 57.09     0.048 C 
HETATM   42  C40 8UH G1621     -39.858 135.172  10.672  1.00 57.09     0.048 C 
HETATM   43  O23 8UH G1621     -31.358 127.231   4.650  1.00 16.39    -0.395 OA
ATOM     44  H23 8UH G1621     -30.679 127.716   4.198  1.00  0.00     0.210 HD
ENDROOT
TORSDOF 12
BEGIN_RES PHE A  61
REMARK  2 active torsions:
REMARK  status: ('A' for Active; 'I' for Inactive)
REMARK    1  A    between atoms: CA   and  CB  
REMARK    2  A    between atoms: CB   and  CG  
ROOT
ATOM      1  CA  PHE A  61     -36.237 128.293  12.768  1.00 39.40     0.164 C 
ENDROOT
BRANCH   1   2
ATOM      2  CB  PHE A  61     -36.813 128.951  11.509  1.00 39.41     0.058 C 
BRANCH   2   3
ATOM      3  CG  PHE A  61     -37.041 128.002  10.357  1.00 39.01    -0.020 A 
ATOM      4  CD2 PHE A  61     -36.311 126.828  10.247  1.00 40.32    -0.004 A 
ATOM      5  CE2 PHE A  61     -36.519 125.957   9.185  1.00 40.20    -0.000 A 
ATOM      6  CZ  PHE A  61     -37.461 126.247   8.224  1.00 40.34    -0.000 A 
ATOM      7  CE1 PHE A  61     -38.196 127.408   8.320  1.00 41.51    -0.000 A 
ATOM      8  CD1 PHE A  61     -37.983 128.282   9.378  1.00 39.94    -0.004 A 
ENDBRANCH   2   3
ENDBRANCH   1   2
END_RES PHE A  61
BEGIN_RES VAL A 134
REMARK  1 active torsions:
REMARK  status: ('A' for Active; 'I' for Inactive)
REMARK    3  A    between atoms: CA   and  CB  
ROOT
ATOM      9  CA  VAL A 134     -29.766 132.051   9.815  1.00 40.75     0.159 C 
ENDROOT
BRANCH   9  10
ATOM     10  CB  VAL A 134     -30.864 132.765   9.009  1.00 40.76     0.029 C 
ATOM     11  CG1 VAL A 134     -32.119 132.944   9.850  1.00 41.76     0.002 C 
ATOM     12  CG2 VAL A 134     -30.382 134.102   8.466  1.00 40.56     0.002 C 
ENDBRANCH   9  10
END_RES VAL A 134
BEGIN_RES TYR A 338
REMARK  3 active torsions:
REMARK  status: ('A' for Active; 'I' for Inactive)
REMARK    4  A    between atoms: CA   and  CB  
REMARK    5  A    between atoms: CB   and  CG  
REMARK    6  A    between atoms: CZ   and  OH  
ROOT
ATOM     13  CA  TYR A 338     -41.631 124.950   6.058  1.00 38.23     0.164 C 
ENDROOT
BRANCH  13  14
ATOM     14  CB  TYR A 338     -41.621 126.456   6.339  1.00 39.15     0.058 C 
BRANCH  14  15
ATOM     15  CG  TYR A 338     -40.414 127.210   5.830  1.00 39.03    -0.020 A 
ATOM     16  CD2 TYR A 338     -40.259 128.557   6.113  1.00 40.65    -0.002 A 
ATOM     17  CE2 TYR A 338     -39.173 129.283   5.650  1.00 40.91     0.024 A 
ATOM     18  CZ  TYR A 338     -38.208 128.660   4.881  1.00 42.33     0.089 A 
ATOM     19  CE1 TYR A 338     -38.339 127.314   4.588  1.00 40.63     0.024 A 
ATOM     20  CD1 TYR A 338     -39.439 126.608   5.050  1.00 39.27    -0.002 A 
BRANCH  18  21
ATOM     21  OH  TYR A 338     -37.131 129.366   4.422  1.00 43.36    -0.359 OA
ATOM     22  HH  TYR A 338     -37.045 129.566   3.497  1.00  0.00     0.217 HD
ENDBRANCH  18  21
ENDBRANCH  14  15
ENDBRANCH  13  14
END_RES TYR A 338
ENDMDL
