MODEL 1
REMARK VINA RESULT:    -8.627      0.000      0.000
REMARK INTER + INTRA:         -11.967
REMARK INTER:                  -8.627
REMARK INTRA:                  -3.340
REMARK UNBOUND:                -3.340
REMARK  0 active torsions:
REMARK  status: ('A' for Active; 'I' for Inactive)
REMARK       I    between atoms: C3_3  and  O3_21 
REMARK       I    between atoms: C6_6  and  C7_7 
REMARK       I    between atoms: C8_8  and  C9_9 
REMARK       I    between atoms: C10_10  and  C11_11 
REMARK       I    between atoms: C12_12  and  C13_13 
REMARK       I    between atoms: C14_14  and  C15_15 
REMARK       I    between atoms: C23_25  and  O23_43 
REMARK       I    between atoms: C26_28  and  C27_29 
REMARK       I    between atoms: C28_30  and  C29_31 
REMARK       I    between atoms: C30_32  and  C31_33 
REMARK       I    between atoms: C32_34  and  C33_35 
REMARK       I    between atoms: C34_36  and  C35_37 
ROOT
HETATM    1  C1  8UH X1620     -33.746 129.391   6.817  1.00 33.88    -0.022 C 
HETATM    2  C2  8UH X1620     -32.927 130.201   5.823  1.00 33.88     0.045 C 
HETATM    3  C3  8UH X1620     -32.052 131.266   6.449  1.00 33.88     0.119 C 
HETATM    4  C4  8UH X1620     -31.167 130.575   7.464  1.00 33.88     0.040 C 
HETATM    5  C5  8UH X1620     -32.027 129.938   8.526  1.00 33.88     0.013 C 
HETATM    6  C6  8UH X1620     -33.306 129.654   8.256  1.00 33.88    -0.068 C 
HETATM    7  C7  8UH X1620     -34.353 129.905   9.255  1.00 33.88     0.004 C 
HETATM    8  C8  8UH X1620     -34.860 131.123   9.017  1.00 33.88     0.007 C 
HETATM    9  C9  8UH X1620     -35.903 131.755   9.865  1.00 33.88    -0.062 C 
HETATM   10  C10 8UH X1620     -36.308 132.994   9.494  1.00 33.88     0.007 C 
HETATM   11  C11 8UH X1620     -37.345 133.751  10.185  1.00 33.88     0.001 C 
HETATM   12  C12 8UH X1620     -37.727 134.935   9.731  1.00 33.88     0.007 C 
HETATM   13  C13 8UH X1620     -38.826 135.674  10.378  1.00 33.88    -0.062 C 
HETATM   14  C14 8UH X1620     -39.235 136.784   9.742  1.00 33.88     0.007 C 
HETATM   15  C15 8UH X1620     -40.350 137.633  10.163  1.00 33.88     0.001 C 
HETATM   16  C16 8UH X1620     -33.646 127.947   6.330  1.00 33.88     0.019 C 
HETATM   17  C17 8UH X1620     -35.192 129.861   6.675  1.00 33.88     0.019 C 
HETATM   18  C18 8UH X1620     -31.598 130.769   9.708  1.00 33.88     0.015 C 
HETATM   19  C19 8UH X1620     -36.475 131.023  11.060  1.00 33.88     0.048 C 
HETATM   20  C20 8UH X1620     -39.474 135.119  11.619  1.00 33.88     0.048 C 
HETATM   21  O3  8UH X1620     -31.258 131.827   5.399  1.00 33.88    -0.396 OA
ATOM     22  H3  8UH X1620     -30.709 132.495   5.792  1.00  0.00     0.210 HD
HETATM   23  C21 8UH X1620     -49.797 146.597   9.348  1.00 31.86    -0.018 C 
HETATM   24  C22 8UH X1620     -51.209 146.210   9.799  1.00 31.86     0.045 C 
HETATM   25  C23 8UH X1620     -51.383 145.811  11.259  1.00 31.86     0.123 C 
HETATM   26  C24 8UH X1620     -50.225 146.298  12.120  1.00 31.86     0.066 C 
HETATM   27  C25 8UH X1620     -48.972 145.760  11.497  1.00 31.86    -0.074 C 
HETATM   28  C26 8UH X1620     -48.681 146.104  10.243  1.00 31.86    -0.048 C 
HETATM   29  C27 8UH X1620     -47.361 145.842   9.632  1.00 31.86     0.009 C 
HETATM   30  C28 8UH X1620     -46.669 144.763  10.012  1.00 31.86     0.007 C 
HETATM   31  C29 8UH X1620     -45.450 144.354   9.240  1.00 33.88    -0.062 C 
HETATM   32  C30 8UH X1620     -44.903 143.192   9.659  1.00 33.88     0.007 C 
HETATM   33  C31 8UH X1620     -43.733 142.537   9.068  1.00 33.88     0.001 C 
HETATM   34  C32 8UH X1620     -43.317 141.386   9.606  1.00 33.88     0.007 C 
HETATM   35  C33 8UH X1620     -42.150 140.639   9.083  1.00 33.88    -0.062 C 
HETATM   36  C34 8UH X1620     -41.777 139.535   9.762  1.00 33.88     0.007 C 
HETATM   37  C35 8UH X1620     -40.655 138.673   9.392  1.00 33.88     0.001 C 
HETATM   38  C36 8UH X1620     -49.670 148.119   9.357  1.00 31.86     0.020 C 
HETATM   39  C37 8UH X1620     -49.612 146.115   7.918  1.00 31.86     0.020 C 
HETATM   40  C38 8UH X1620     -47.954 145.828  12.601  1.00 31.86     0.044 C 
HETATM   41  C39 8UH X1620     -44.938 145.153   8.065  1.00 33.88     0.048 C 
HETATM   42  C40 8UH X1620     -41.480 141.115   7.821  1.00 33.88     0.048 C 
HETATM   43  O23 8UH X1620     -52.600 146.412  11.696  1.00 31.86    -0.395 OA
ATOM     44  H23 8UH X1620     -52.708 146.163  12.607  1.00  0.00     0.210 HD
ENDROOT
TORSDOF 12
BEGIN_RES PHE A  61
REMARK  2 active torsions:
REMARK  status: ('A' for Active; 'I' for Inactive)
REMARK    1  A    between atoms: CA   and  CB  
REMARK    2  A    between atoms: CB   and  CG  
ROOT
ATOM      1  CA  PHE A  61     -36.237 128.293  12.768  1.00 39.40     0.164 C 
ENDROOT
BRANCH   1   2
ATOM      2  CB  PHE A  61     -36.813 128.951  11.509  1.00 39.41     0.058 C 
BRANCH   2   3
ATOM      3  CG  PHE A  61     -36.693 128.115  10.257  1.00 39.01    -0.020 A 
ATOM      4  CD2 PHE A  61     -37.692 128.124   9.297  1.00 40.32    -0.004 A 
ATOM      5  CE2 PHE A  61     -37.582 127.352   8.147  1.00 40.20    -0.000 A 
ATOM      6  CZ  PHE A  61     -36.470 126.566   7.943  1.00 40.34    -0.000 A 
ATOM      7  CE1 PHE A  61     -35.468 126.547   8.887  1.00 41.51    -0.000 A 
ATOM      8  CD1 PHE A  61     -35.581 127.314  10.040  1.00 39.94    -0.004 A 
ENDBRANCH   2   3
ENDBRANCH   1   2
END_RES PHE A  61
BEGIN_RES VAL A 134
REMARK  1 active torsions:
REMARK  status: ('A' for Active; 'I' for Inactive)
REMARK    3  A    between atoms: CA   and  CB  
ROOT
ATOM      9  CA  VAL A 134     -29.766 132.051   9.815  1.00 40.75     0.159 C 
ENDROOT
BRANCH   9  10
ATOM     10  CB  VAL A 134     -30.864 132.765   9.009  1.00 40.76     0.029 C 
ATOM     11  CG1 VAL A 134     -31.994 133.218   9.922  1.00 41.76     0.002 C 
ATOM     12  CG2 VAL A 134     -30.306 133.938   8.217  1.00 40.56     0.002 C 
ENDBRANCH   9  10
END_RES VAL A 134
BEGIN_RES TYR A 338
REMARK  3 active torsions:
REMARK  status: ('A' for Active; 'I' for Inactive)
REMARK    4  A    between atoms: CA   and  CB  
REMARK    5  A    between atoms: CB   and  CG  
REMARK    6  A    between atoms: CZ   and  OH  
ROOT
ATOM     13  CA  TYR A 338     -41.631 124.950   6.058  1.00 38.23     0.164 C 
ENDROOT
BRANCH  13  14
ATOM     14  CB  TYR A 338     -41.621 126.456   6.339  1.00 39.15     0.058 C 
BRANCH  14  15
ATOM     15  CG  TYR A 338     -40.400 127.205   5.857  1.00 39.03    -0.020 A 
ATOM     16  CD2 TYR A 338     -40.221 128.538   6.186  1.00 40.65    -0.002 A 
ATOM     17  CE2 TYR A 338     -39.121 129.260   5.748  1.00 40.91     0.024 A 
ATOM     18  CZ  TYR A 338     -38.167 128.646   4.959  1.00 42.33     0.089 A 
ATOM     19  CE1 TYR A 338     -38.322 127.314   4.621  1.00 40.63     0.024 A 
ATOM     20  CD1 TYR A 338     -39.435 126.612   5.058  1.00 39.27    -0.002 A 
BRANCH  18  21
ATOM     21  OH  TYR A 338     -37.077 129.347   4.525  1.00 43.36    -0.359 OA
ATOM     22  HH  TYR A 338     -37.187 130.140   4.013  1.00  0.00     0.217 HD
ENDBRANCH  18  21
ENDBRANCH  14  15
ENDBRANCH  13  14
END_RES TYR A 338
ENDMDL
MODEL 2
REMARK VINA RESULT:    -7.698      1.372     16.312
REMARK INTER + INTRA:         -11.039
REMARK INTER:                  -9.266
REMARK INTRA:                  -1.773
REMARK UNBOUND:                -3.340
REMARK  0 active torsions:
REMARK  status: ('A' for Active; 'I' for Inactive)
REMARK       I    between atoms: C3_3  and  O3_21 
REMARK       I    between atoms: C6_6  and  C7_7 
REMARK       I    between atoms: C8_8  and  C9_9 
REMARK       I    between atoms: C10_10  and  C11_11 
REMARK       I    between atoms: C12_12  and  C13_13 
REMARK       I    between atoms: C14_14  and  C15_15 
REMARK       I    between atoms: C23_25  and  O23_43 
REMARK       I    between atoms: C26_28  and  C27_29 
REMARK       I    between atoms: C28_30  and  C29_31 
REMARK       I    between atoms: C30_32  and  C31_33 
REMARK       I    between atoms: C32_34  and  C33_35 
REMARK       I    between atoms: C34_36  and  C35_37 
ROOT
HETATM    1  C1  8UH X1620     -50.048 146.275   7.422  1.00 33.88    -0.022 C 
HETATM    2  C2  8UH X1620     -51.185 145.266   7.508  1.00 33.88     0.045 C 
HETATM    3  C3  8UH X1620     -51.403 144.681   8.886  1.00 33.88     0.119 C 
HETATM    4  C4  8UH X1620     -51.617 145.840   9.834  1.00 33.88     0.040 C 
HETATM    5  C5  8UH X1620     -50.388 146.713   9.845  1.00 33.88     0.013 C 
HETATM    6  C6  8UH X1620     -49.544 146.674   8.808  1.00 33.88    -0.068 C 
HETATM    7  C7  8UH X1620     -48.092 146.689   9.027  1.00 33.88     0.004 C 
HETATM    8  C8  8UH X1620     -47.671 145.418   9.064  1.00 33.88     0.007 C 
HETATM    9  C9  8UH X1620     -46.262 145.028   9.333  1.00 33.88    -0.062 C 
HETATM   10  C10 8UH X1620     -45.999 143.700   9.341  1.00 33.88     0.007 C 
HETATM   11  C11 8UH X1620     -44.670 143.135   9.551  1.00 33.88     0.001 C 
HETATM   12  C12 8UH X1620     -44.479 141.827   9.491  1.00 33.88     0.007 C 
HETATM   13  C13 8UH X1620     -43.129 141.252   9.628  1.00 33.88    -0.062 C 
HETATM   14  C14 8UH X1620     -43.029 139.934   9.392  1.00 33.88     0.007 C 
HETATM   15  C15 8UH X1620     -41.782 139.168   9.402  1.00 33.88     0.001 C 
HETATM   16  C16 8UH X1620     -50.584 147.404   6.544  1.00 33.88     0.019 C 
HETATM   17  C17 8UH X1620     -48.903 145.580   6.689  1.00 33.88     0.019 C 
HETATM   18  C18 8UH X1620     -49.954 146.493  11.271  1.00 33.88     0.015 C 
HETATM   19  C19 8UH X1620     -45.201 146.082   9.563  1.00 33.88     0.048 C 
HETATM   20  C20 8UH X1620     -41.958 142.153   9.920  1.00 33.88     0.048 C 
HETATM   21  O3  8UH X1620     -52.581 143.872   8.816  1.00 33.88    -0.396 OA
ATOM     22  H3  8UH X1620     -52.718 143.504   9.681  1.00  0.00     0.210 HD
HETATM   23  C21 8UH X1620     -33.526 129.333   7.085  1.00 31.86    -0.018 C 
HETATM   24  C22 8UH X1620     -32.171 129.655   6.446  1.00 31.86     0.045 C 
HETATM   25  C23 8UH X1620     -31.238 130.572   7.228  1.00 31.86     0.123 C 
HETATM   26  C24 8UH X1620     -31.620 130.644   8.701  1.00 31.86     0.066 C 
HETATM   27  C25 8UH X1620     -33.058 131.068   8.750  1.00 31.86    -0.074 C 
HETATM   28  C26 8UH X1620     -33.973 130.301   8.159  1.00 31.86    -0.048 C 
HETATM   29  C27 8UH X1620     -35.424 130.490   8.368  1.00 31.86     0.009 C 
HETATM   30  C28 8UH X1620     -35.896 131.719   8.595  1.00 31.86     0.007 C 
HETATM   31  C29 8UH X1620     -37.375 131.962   8.571  1.00 33.88    -0.062 C 
HETATM   32  C30 8UH X1620     -37.717 133.262   8.710  1.00 33.88     0.007 C 
HETATM   33  C31 8UH X1620     -39.083 133.793   8.688  1.00 33.88     0.001 C 
HETATM   34  C32 8UH X1620     -39.250 135.111   8.841  1.00 33.88     0.007 C 
HETATM   35  C33 8UH X1620     -40.585 135.751   8.828  1.00 33.88    -0.062 C 
HETATM   36  C34 8UH X1620     -40.629 137.076   9.077  1.00 33.88     0.007 C 
HETATM   37  C35 8UH X1620     -41.854 137.874   9.101  1.00 33.88     0.001 C 
HETATM   38  C36 8UH X1620     -33.439 127.978   7.783  1.00 31.86     0.020 C 
HETATM   39  C37 8UH X1620     -34.557 129.229   5.973  1.00 31.86     0.020 C 
HETATM   40  C38 8UH X1620     -33.237 131.595  10.146  1.00 31.86     0.044 C 
HETATM   41  C39 8UH X1620     -38.369 130.847   8.348  1.00 33.88     0.048 C 
HETATM   42  C40 8UH X1620     -41.795 134.917   8.501  1.00 33.88     0.048 C 
HETATM   43  O23 8UH X1620     -29.930 130.022   7.092  1.00 31.86    -0.395 OA
ATOM     44  H23 8UH X1620     -29.348 130.594   7.580  1.00  0.00     0.210 HD
ENDROOT
TORSDOF 12
BEGIN_RES PHE A  61
REMARK  2 active torsions:
REMARK  status: ('A' for Active; 'I' for Inactive)
REMARK    1  A    between atoms: CA   and  CB  
REMARK    2  A    between atoms: CB   and  CG  
ROOT
ATOM      1  CA  PHE A  61     -36.237 128.293  12.768  1.00 39.40     0.164 C 
ENDROOT
BRANCH   1   2
ATOM      2  CB  PHE A  61     -36.813 128.951  11.509  1.00 39.41     0.058 C 
BRANCH   2   3
ATOM      3  CG  PHE A  61     -36.747 128.091  10.270  1.00 39.01    -0.020 A 
ATOM      4  CD2 PHE A  61     -37.804 128.051   9.374  1.00 40.32    -0.004 A 
ATOM      5  CE2 PHE A  61     -37.744 127.257   8.236  1.00 40.20    -0.000 A 
ATOM      6  CZ  PHE A  61     -36.626 126.497   7.979  1.00 40.34    -0.000 A 
ATOM      7  CE1 PHE A  61     -35.566 126.527   8.857  1.00 41.51    -0.000 A 
ATOM      8  CD1 PHE A  61     -35.628 127.316   9.999  1.00 39.94    -0.004 A 
ENDBRANCH   2   3
ENDBRANCH   1   2
END_RES PHE A  61
BEGIN_RES VAL A 134
REMARK  1 active torsions:
REMARK  status: ('A' for Active; 'I' for Inactive)
REMARK    3  A    between atoms: CA   and  CB  
ROOT
ATOM      9  CA  VAL A 134     -29.766 132.051   9.815  1.00 40.75     0.159 C 
ENDROOT
BRANCH   9  10
ATOM     10  CB  VAL A 134     -30.864 132.765   9.009  1.00 40.76     0.029 C 
ATOM     11  CG1 VAL A 134     -31.657 133.710   9.900  1.00 41.76     0.002 C 
ATOM     12  CG2 VAL A 134     -30.289 133.506   7.812  1.00 40.56     0.002 C 
ENDBRANCH   9  10
END_RES VAL A 134
BEGIN_RES TYR A 338
REMARK  3 active torsions:
REMARK  status: ('A' for Active; 'I' for Inactive)
REMARK    4  A    between atoms: CA   and  CB  
REMARK    5  A    between atoms: CB   and  CG  
REMARK    6  A    between atoms: CZ   and  OH  
ROOT
ATOM     13  CA  TYR A 338     -41.631 124.950   6.058  1.00 38.23     0.164 C 
ENDROOT
BRANCH  13  14
ATOM     14  CB  TYR A 338     -41.621 126.456   6.339  1.00 39.15     0.058 C 
BRANCH  14  15
ATOM     15  CG  TYR A 338     -40.403 127.206   5.851  1.00 39.03    -0.020 A 
ATOM     16  CD2 TYR A 338     -40.241 128.549   6.149  1.00 40.65    -0.002 A 
ATOM     17  CE2 TYR A 338     -39.145 129.272   5.705  1.00 40.91     0.024 A 
ATOM     18  CZ  TYR A 338     -38.176 128.649   4.940  1.00 42.33     0.089 A 
ATOM     19  CE1 TYR A 338     -38.313 127.307   4.634  1.00 40.63     0.024 A 
ATOM     20  CD1 TYR A 338     -39.424 126.605   5.076  1.00 39.27    -0.002 A 
BRANCH  18  21
ATOM     21  OH  TYR A 338     -37.089 129.351   4.501  1.00 43.36    -0.359 OA
ATOM     22  HH  TYR A 338     -36.843 130.168   4.919  1.00  0.00     0.217 HD
ENDBRANCH  18  21
ENDBRANCH  14  15
ENDBRANCH  13  14
END_RES TYR A 338
ENDMDL
MODEL 3
REMARK VINA RESULT:    -6.590      1.709     16.367
REMARK INTER + INTRA:          -9.930
REMARK INTER:                  -7.969
REMARK INTRA:                  -1.961
REMARK UNBOUND:                -3.340
REMARK  0 active torsions:
REMARK  status: ('A' for Active; 'I' for Inactive)
REMARK       I    between atoms: C3_3  and  O3_21 
REMARK       I    between atoms: C6_6  and  C7_7 
REMARK       I    between atoms: C8_8  and  C9_9 
REMARK       I    between atoms: C10_10  and  C11_11 
REMARK       I    between atoms: C12_12  and  C13_13 
REMARK       I    between atoms: C14_14  and  C15_15 
REMARK       I    between atoms: C23_25  and  O23_43 
REMARK       I    between atoms: C26_28  and  C27_29 
REMARK       I    between atoms: C28_30  and  C29_31 
REMARK       I    between atoms: C30_32  and  C31_33 
REMARK       I    between atoms: C32_34  and  C33_35 
REMARK       I    between atoms: C34_36  and  C35_37 
ROOT
HETATM    1  C1  8UH X1620     -47.834 146.444   9.345  1.00 33.88    -0.022 C 
HETATM    2  C2  8UH X1620     -48.977 145.627   9.930  1.00 33.88     0.045 C 
HETATM    3  C3  8UH X1620     -48.770 145.195  11.366  1.00 33.88     0.119 C 
HETATM    4  C4  8UH X1620     -48.511 146.448  12.175  1.00 33.88     0.040 C 
HETATM    5  C5  8UH X1620     -47.263 147.124  11.666  1.00 33.88     0.013 C 
HETATM    6  C6  8UH X1620     -46.840 146.874  10.422  1.00 33.88    -0.068 C 
HETATM    7  C7  8UH X1620     -45.409 146.689  10.144  1.00 33.88     0.004 C 
HETATM    8  C8  8UH X1620     -45.149 145.376  10.201  1.00 33.88     0.007 C 
HETATM    9  C9  8UH X1620     -43.788 144.803  10.036  1.00 33.88    -0.062 C 
HETATM   10  C10 8UH X1620     -43.691 143.455  10.126  1.00 33.88     0.007 C 
HETATM   11  C11 8UH X1620     -42.444 142.717   9.954  1.00 33.88     0.001 C 
HETATM   12  C12 8UH X1620     -42.435 141.393  10.002  1.00 33.88     0.007 C 
HETATM   13  C13 8UH X1620     -41.195 140.636   9.755  1.00 33.88    -0.062 C 
HETATM   14  C14 8UH X1620     -41.334 139.303   9.670  1.00 33.88     0.007 C 
HETATM   15  C15 8UH X1620     -40.255 138.362   9.365  1.00 33.88     0.001 C 
HETATM   16  C16 8UH X1620     -48.509 147.565   8.558  1.00 33.88     0.019 C 
HETATM   17  C17 8UH X1620     -47.100 145.527   8.369  1.00 33.88     0.019 C 
HETATM   18  C18 8UH X1620     -46.391 146.958  12.884  1.00 33.88     0.015 C 
HETATM   19  C19 8UH X1620     -42.600 145.701   9.764  1.00 33.88     0.048 C 
HETATM   20  C20 8UH X1620     -39.902 141.371   9.525  1.00 33.88     0.048 C 
HETATM   21  O3  8UH X1620     -49.983 144.570  11.794  1.00 33.88    -0.396 OA
ATOM     22  H3  8UH X1620     -49.854 144.298  12.696  1.00  0.00     0.210 HD
HETATM   23  C21 8UH X1620     -34.480 127.244   5.719  1.00 31.86    -0.018 C 
HETATM   24  C22 8UH X1620     -33.403 127.305   4.631  1.00 31.86     0.045 C 
HETATM   25  C23 8UH X1620     -32.160 128.132   4.936  1.00 31.86     0.123 C 
HETATM   26  C24 8UH X1620     -31.998 128.381   6.429  1.00 31.86     0.066 C 
HETATM   27  C25 8UH X1620     -33.272 129.018   6.898  1.00 31.86    -0.074 C 
HETATM   28  C26 8UH X1620     -34.416 128.352   6.747  1.00 31.86    -0.048 C 
HETATM   29  C27 8UH X1620     -35.674 128.772   7.399  1.00 31.86     0.009 C 
HETATM   30  C28 8UH X1620     -35.895 130.073   7.610  1.00 31.86     0.007 C 
HETATM   31  C29 8UH X1620     -37.254 130.533   8.047  1.00 33.88    -0.062 C 
HETATM   32  C30 8UH X1620     -37.378 131.876   8.124  1.00 33.88     0.007 C 
HETATM   33  C31 8UH X1620     -38.597 132.603   8.488  1.00 33.88     0.001 C 
HETATM   34  C32 8UH X1620     -38.550 133.939   8.519  1.00 33.88     0.007 C 
HETATM   35  C33 8UH X1620     -39.725 134.769   8.867  1.00 33.88    -0.062 C 
HETATM   36  C34 8UH X1620     -39.530 136.101   8.945  1.00 33.88     0.007 C 
HETATM   37  C35 8UH X1620     -40.573 137.073   9.272  1.00 33.88     0.001 C 
HETATM   38  C36 8UH X1620     -34.312 125.952   6.515  1.00 31.86     0.020 C 
HETATM   39  C37 8UH X1620     -35.837 127.205   5.034  1.00 31.86     0.020 C 
HETATM   40  C38 8UH X1620     -32.897 129.678   8.196  1.00 31.86     0.044 C 
HETATM   41  C39 8UH X1620     -38.383 129.565   8.311  1.00 33.88     0.048 C 
HETATM   42  C40 8UH X1620     -41.061 134.102   9.069  1.00 33.88     0.048 C 
HETATM   43  O23 8UH X1620     -31.050 127.383   4.445  1.00 31.86    -0.395 OA
ATOM     44  H23 8UH X1620     -30.275 127.899   4.635  1.00  0.00     0.210 HD
ENDROOT
TORSDOF 12
BEGIN_RES PHE A  61
REMARK  2 active torsions:
REMARK  status: ('A' for Active; 'I' for Inactive)
REMARK    1  A    between atoms: CA   and  CB  
REMARK    2  A    between atoms: CB   and  CG  
ROOT
ATOM      1  CA  PHE A  61     -36.237 128.293  12.768  1.00 39.40     0.164 C 
ENDROOT
BRANCH   1   2
ATOM      2  CB  PHE A  61     -36.813 128.951  11.509  1.00 39.41     0.058 C 
BRANCH   2   3
ATOM      3  CG  PHE A  61     -36.379 130.382  11.299  1.00 39.01    -0.020 A 
ATOM      4  CD2 PHE A  61     -35.134 130.678  10.767  1.00 40.32    -0.004 A 
ATOM      5  CE2 PHE A  61     -34.735 131.995  10.577  1.00 40.20    -0.000 A 
ATOM      6  CZ  PHE A  61     -35.577 133.030  10.913  1.00 40.34    -0.000 A 
ATOM      7  CE1 PHE A  61     -36.819 132.753  11.440  1.00 41.51    -0.000 A 
ATOM      8  CD1 PHE A  61     -37.216 131.437  11.636  1.00 39.94    -0.004 A 
ENDBRANCH   2   3
ENDBRANCH   1   2
END_RES PHE A  61
BEGIN_RES VAL A 134
REMARK  1 active torsions:
REMARK  status: ('A' for Active; 'I' for Inactive)
REMARK    3  A    between atoms: CA   and  CB  
ROOT
ATOM      9  CA  VAL A 134     -29.766 132.051   9.815  1.00 40.75     0.159 C 
ENDROOT
BRANCH   9  10
ATOM     10  CB  VAL A 134     -30.864 132.765   9.009  1.00 40.76     0.029 C 
ATOM     11  CG1 VAL A 134     -31.170 132.006   7.726  1.00 41.76     0.002 C 
ATOM     12  CG2 VAL A 134     -32.126 132.963   9.834  1.00 40.56     0.002 C 
ENDBRANCH   9  10
END_RES VAL A 134
BEGIN_RES TYR A 338
REMARK  3 active torsions:
REMARK  status: ('A' for Active; 'I' for Inactive)
REMARK    4  A    between atoms: CA   and  CB  
REMARK    5  A    between atoms: CB   and  CG  
REMARK    6  A    between atoms: CZ   and  OH  
ROOT
ATOM     13  CA  TYR A 338     -41.631 124.950   6.058  1.00 38.23     0.164 C 
ENDROOT
BRANCH  13  14
ATOM     14  CB  TYR A 338     -41.621 126.456   6.339  1.00 39.15     0.058 C 
BRANCH  14  15
ATOM     15  CG  TYR A 338     -40.435 127.218   5.792  1.00 39.03    -0.020 A 
ATOM     16  CD2 TYR A 338     -40.331 128.585   5.985  1.00 40.65    -0.002 A 
ATOM     17  CE2 TYR A 338     -39.266 129.317   5.485  1.00 40.91     0.024 A 
ATOM     18  CZ  TYR A 338     -38.271 128.679   4.768  1.00 42.33     0.089 A 
ATOM     19  CE1 TYR A 338     -38.350 127.312   4.566  1.00 40.63     0.024 A 
ATOM     20  CD1 TYR A 338     -39.430 126.600   5.064  1.00 39.27    -0.002 A 
BRANCH  18  21
ATOM     21  OH  TYR A 338     -37.214 129.391   4.274  1.00 43.36    -0.359 OA
ATOM     22  HH  TYR A 338     -37.175 130.333   4.385  1.00  0.00     0.217 HD
ENDBRANCH  18  21
ENDBRANCH  14  15
ENDBRANCH  13  14
END_RES TYR A 338
ENDMDL
MODEL 4
REMARK VINA RESULT:    -6.212      1.852     16.220
REMARK INTER + INTRA:          -9.552
REMARK INTER:                  -5.383
REMARK INTRA:                  -4.169
REMARK UNBOUND:                -3.340
REMARK  0 active torsions:
REMARK  status: ('A' for Active; 'I' for Inactive)
REMARK       I    between atoms: C3_3  and  O3_21 
REMARK       I    between atoms: C6_6  and  C7_7 
REMARK       I    between atoms: C8_8  and  C9_9 
REMARK       I    between atoms: C10_10  and  C11_11 
REMARK       I    between atoms: C12_12  and  C13_13 
REMARK       I    between atoms: C14_14  and  C15_15 
REMARK       I    between atoms: C23_25  and  O23_43 
REMARK       I    between atoms: C26_28  and  C27_29 
REMARK       I    between atoms: C28_30  and  C29_31 
REMARK       I    between atoms: C30_32  and  C31_33 
REMARK       I    between atoms: C32_34  and  C33_35 
REMARK       I    between atoms: C34_36  and  C35_37 
ROOT
HETATM    1  C1  8UH X1620     -47.004 147.957   9.549  1.00 33.88    -0.022 C 
HETATM    2  C2  8UH X1620     -48.322 147.196   9.539  1.00 33.88     0.045 C 
HETATM    3  C3  8UH X1620     -48.632 146.460  10.825  1.00 33.88     0.119 C 
HETATM    4  C4  8UH X1620     -48.586 147.478  11.944  1.00 33.88     0.040 C 
HETATM    5  C5  8UH X1620     -47.204 148.073  12.024  1.00 33.88     0.013 C 
HETATM    6  C6  8UH X1620     -46.404 148.026  10.953  1.00 33.88    -0.068 C 
HETATM    7  C7  8UH X1620     -44.976 147.715  11.101  1.00 33.88     0.004 C 
HETATM    8  C8  8UH X1620     -44.826 146.395  10.928  1.00 33.88     0.007 C 
HETATM    9  C9  8UH X1620     -43.523 145.694  11.067  1.00 33.88    -0.062 C 
HETATM   10  C10 8UH X1620     -43.539 144.355  10.865  1.00 33.88     0.007 C 
HETATM   11  C11 8UH X1620     -42.352 143.510  10.925  1.00 33.88     0.001 C 
HETATM   12  C12 8UH X1620     -42.436 142.214  10.662  1.00 33.88     0.007 C 
HETATM   13  C13 8UH X1620     -41.230 141.366  10.646  1.00 33.88    -0.062 C 
HETATM   14  C14 8UH X1620     -41.409 140.108  10.213  1.00 33.88     0.007 C 
HETATM   15  C15 8UH X1620     -40.346 139.115  10.049  1.00 33.88     0.001 C 
HETATM   16  C16 8UH X1620     -47.311 149.292   8.875  1.00 33.88     0.019 C 
HETATM   17  C17 8UH X1620     -46.039 147.168   8.666  1.00 33.88     0.019 C 
HETATM   18  C18 8UH X1620     -46.800 147.552  13.379  1.00 33.88     0.015 C 
HETATM   19  C19 8UH X1620     -42.263 146.465  11.399  1.00 33.88     0.048 C 
HETATM   20  C20 8UH X1620     -39.894 141.957  11.011  1.00 33.88     0.048 C 
HETATM   21  O3  8UH X1620     -49.953 145.925  10.693  1.00 33.88    -0.396 OA
ATOM     22  H3  8UH X1620     -50.147 145.463  11.500  1.00  0.00     0.210 HD
HETATM   23  C21 8UH X1620     -34.335 128.303   5.900  1.00 31.86    -0.018 C 
HETATM   24  C22 8UH X1620     -32.954 128.440   5.250  1.00 31.86     0.045 C 
HETATM   25  C23 8UH X1620     -31.839 129.018   6.113  1.00 31.86     0.123 C 
HETATM   26  C24 8UH X1620     -32.172 128.937   7.597  1.00 31.86     0.066 C 
HETATM   27  C25 8UH X1620     -33.491 129.628   7.779  1.00 31.86    -0.074 C 
HETATM   28  C26 8UH X1620     -34.555 129.162   7.126  1.00 31.86    -0.048 C 
HETATM   29  C27 8UH X1620     -35.932 129.604   7.431  1.00 31.86     0.009 C 
HETATM   30  C28 8UH X1620     -36.136 130.852   7.860  1.00 31.86     0.007 C 
HETATM   31  C29 8UH X1620     -37.533 131.389   7.945  1.00 33.88    -0.062 C 
HETATM   32  C30 8UH X1620     -37.598 132.693   8.291  1.00 33.88     0.007 C 
HETATM   33  C31 8UH X1620     -38.825 133.484   8.415  1.00 33.88     0.001 C 
HETATM   34  C32 8UH X1620     -38.714 134.769   8.769  1.00 33.88     0.007 C 
HETATM   35  C33 8UH X1620     -39.888 135.658   8.917  1.00 33.88    -0.062 C 
HETATM   36  C34 8UH X1620     -39.654 136.910   9.361  1.00 33.88     0.007 C 
HETATM   37  C35 8UH X1620     -40.689 137.925   9.563  1.00 33.88     0.001 C 
HETATM   38  C36 8UH X1620     -34.517 126.866   6.384  1.00 31.86     0.020 C 
HETATM   39  C37 8UH X1620     -35.385 128.582   4.836  1.00 31.86     0.020 C 
HETATM   40  C38 8UH X1620     -33.533 129.958   9.245  1.00 31.86     0.044 C 
HETATM   41  C39 8UH X1620     -38.739 130.544   7.608  1.00 33.88     0.048 C 
HETATM   42  C40 8UH X1620     -41.250 135.145   8.529  1.00 33.88     0.048 C 
HETATM   43  O23 8UH X1620     -30.674 128.245   5.833  1.00 31.86    -0.395 OA
ATOM     44  H23 8UH X1620     -29.979 128.605   6.372  1.00  0.00     0.210 HD
ENDROOT
TORSDOF 12
BEGIN_RES PHE A  61
REMARK  2 active torsions:
REMARK  status: ('A' for Active; 'I' for Inactive)
REMARK    1  A    between atoms: CA   and  CB  
REMARK    2  A    between atoms: CB   and  CG  
ROOT
ATOM      1  CA  PHE A  61     -36.237 128.293  12.768  1.00 39.40     0.164 C 
ENDROOT
BRANCH   1   2
ATOM      2  CB  PHE A  61     -36.813 128.951  11.509  1.00 39.41     0.058 C 
BRANCH   2   3
ATOM      3  CG  PHE A  61     -36.891 128.039  10.308  1.00 39.01    -0.020 A 
ATOM      4  CD2 PHE A  61     -37.995 128.059   9.470  1.00 40.32    -0.004 A 
ATOM      5  CE2 PHE A  61     -38.067 127.217   8.367  1.00 40.20    -0.000 A 
ATOM      6  CZ  PHE A  61     -37.036 126.349   8.089  1.00 40.34    -0.000 A 
ATOM      7  CE1 PHE A  61     -35.932 126.318   8.911  1.00 41.51    -0.000 A 
ATOM      8  CD1 PHE A  61     -35.862 127.155  10.017  1.00 39.94    -0.004 A 
ENDBRANCH   2   3
ENDBRANCH   1   2
END_RES PHE A  61
BEGIN_RES VAL A 134
REMARK  1 active torsions:
REMARK  status: ('A' for Active; 'I' for Inactive)
REMARK    3  A    between atoms: CA   and  CB  
ROOT
ATOM      9  CA  VAL A 134     -29.766 132.051   9.815  1.00 40.75     0.159 C 
ENDROOT
BRANCH   9  10
ATOM     10  CB  VAL A 134     -30.864 132.765   9.009  1.00 40.76     0.029 C 
ATOM     11  CG1 VAL A 134     -31.002 132.149   7.624  1.00 41.76     0.002 C 
ATOM     12  CG2 VAL A 134     -32.197 132.751   9.742  1.00 40.56     0.002 C 
ENDBRANCH   9  10
END_RES VAL A 134
BEGIN_RES TYR A 338
REMARK  3 active torsions:
REMARK  status: ('A' for Active; 'I' for Inactive)
REMARK    4  A    between atoms: CA   and  CB  
REMARK    5  A    between atoms: CB   and  CG  
REMARK    6  A    between atoms: CZ   and  OH  
ROOT
ATOM     13  CA  TYR A 338     -41.631 124.950   6.058  1.00 38.23     0.164 C 
ENDROOT
BRANCH  13  14
ATOM     14  CB  TYR A 338     -41.621 126.456   6.339  1.00 39.15     0.058 C 
BRANCH  14  15
ATOM     15  CG  TYR A 338     -40.439 127.219   5.786  1.00 39.03    -0.020 A 
ATOM     16  CD2 TYR A 338     -40.377 128.597   5.904  1.00 40.65    -0.002 A 
ATOM     17  CE2 TYR A 338     -39.316 129.330   5.395  1.00 40.91     0.024 A 
ATOM     18  CZ  TYR A 338     -38.282 128.681   4.747  1.00 42.33     0.089 A 
ATOM     19  CE1 TYR A 338     -38.319 127.303   4.621  1.00 40.63     0.024 A 
ATOM     20  CD1 TYR A 338     -39.395 126.590   5.126  1.00 39.27    -0.002 A 
BRANCH  18  21
ATOM     21  OH  TYR A 338     -37.228 129.393   4.246  1.00 43.36    -0.359 OA
ATOM     22  HH  TYR A 338     -37.369 130.245   3.850  1.00  0.00     0.217 HD
ENDBRANCH  18  21
ENDBRANCH  14  15
ENDBRANCH  13  14
END_RES TYR A 338
ENDMDL
MODEL 5
REMARK VINA RESULT:    -5.738      1.907     16.491
REMARK INTER + INTRA:          -9.079
REMARK INTER:                  -5.097
REMARK INTRA:                  -3.981
REMARK UNBOUND:                -3.340
REMARK  0 active torsions:
REMARK  status: ('A' for Active; 'I' for Inactive)
REMARK       I    between atoms: C3_3  and  O3_21 
REMARK       I    between atoms: C6_6  and  C7_7 
REMARK       I    between atoms: C8_8  and  C9_9 
REMARK       I    between atoms: C10_10  and  C11_11 
REMARK       I    between atoms: C12_12  and  C13_13 
REMARK       I    between atoms: C14_14  and  C15_15 
REMARK       I    between atoms: C23_25  and  O23_43 
REMARK       I    between atoms: C26_28  and  C27_29 
REMARK       I    between atoms: C28_30  and  C29_31 
REMARK       I    between atoms: C30_32  and  C31_33 
REMARK       I    between atoms: C32_34  and  C33_35 
REMARK       I    between atoms: C34_36  and  C35_37 
ROOT
HETATM    1  C1  8UH X1620     -50.284 144.831   9.017  1.00 33.88    -0.022 C 
HETATM    2  C2  8UH X1620     -50.578 144.479  10.468  1.00 33.88     0.045 C 
HETATM    3  C3  8UH X1620     -49.500 144.891  11.447  1.00 33.88     0.119 C 
HETATM    4  C4  8UH X1620     -49.282 146.378  11.270  1.00 33.88     0.040 C 
HETATM    5  C5  8UH X1620     -48.819 146.653   9.863  1.00 33.88     0.013 C 
HETATM    6  C6  8UH X1620     -49.078 145.763   8.898  1.00 33.88    -0.068 C 
HETATM    7  C7  8UH X1620     -48.061 145.437   7.890  1.00 33.88     0.004 C 
HETATM    8  C8  8UH X1620     -47.389 144.361   8.322  1.00 33.88     0.007 C 
HETATM    9  C9  8UH X1620     -46.235 143.770   7.596  1.00 33.88    -0.062 C 
HETATM   10  C10 8UH X1620     -45.660 142.685   8.167  1.00 33.88     0.007 C 
HETATM   11  C11 8UH X1620     -44.542 141.954   7.580  1.00 33.88     0.001 C 
HETATM   12  C12 8UH X1620     -44.067 140.868   8.169  1.00 33.88     0.007 C 
HETATM   13  C13 8UH X1620     -42.988 140.080   7.547  1.00 33.88    -0.062 C 
HETATM   14  C14 8UH X1620     -42.694 138.916   8.148  1.00 33.88     0.007 C 
HETATM   15  C15 8UH X1620     -41.711 137.945   7.668  1.00 33.88     0.001 C 
HETATM   16  C16 8UH X1620     -51.605 145.357   8.460  1.00 33.88     0.019 C 
HETATM   17  C17 8UH X1620     -49.935 143.522   8.313  1.00 33.88     0.019 C 
HETATM   18  C18 8UH X1620     -47.433 147.161  10.165  1.00 33.88     0.015 C 
HETATM   19  C19 8UH X1620     -45.763 144.362   6.285  1.00 33.88     0.048 C 
HETATM   20  C20 8UH X1620     -42.358 140.556   6.264  1.00 33.88     0.048 C 
HETATM   21  O3  8UH X1620     -49.997 144.614  12.759  1.00 33.88    -0.396 OA
ATOM     22  H3  8UH X1620     -49.320 144.872  13.374  1.00  0.00     0.210 HD
HETATM   23  C21 8UH X1620     -35.491 126.545   6.392  1.00 31.86    -0.018 C 
HETATM   24  C22 8UH X1620     -35.266 125.992   4.981  1.00 31.86     0.045 C 
HETATM   25  C23 8UH X1620     -34.417 126.835   4.037  1.00 31.86     0.123 C 
HETATM   26  C24 8UH X1620     -33.570 127.851   4.792  1.00 31.86     0.066 C 
HETATM   27  C25 8UH X1620     -34.515 128.658   5.631  1.00 31.86    -0.074 C 
HETATM   28  C26 8UH X1620     -35.258 128.032   6.543  1.00 31.86    -0.048 C 
HETATM   29  C27 8UH X1620     -36.020 128.756   7.582  1.00 31.86     0.009 C 
HETATM   30  C28 8UH X1620     -36.512 129.967   7.304  1.00 31.86     0.007 C 
HETATM   31  C29 8UH X1620     -37.481 130.609   8.252  1.00 33.88    -0.062 C 
HETATM   32  C30 8UH X1620     -37.984 131.781   7.807  1.00 33.88     0.007 C 
HETATM   33  C31 8UH X1620     -38.974 132.606   8.506  1.00 33.88     0.001 C 
HETATM   34  C32 8UH X1620     -39.368 133.745   7.926  1.00 33.88     0.007 C 
HETATM   35  C33 8UH X1620     -40.367 134.648   8.543  1.00 33.88    -0.062 C 
HETATM   36  C34 8UH X1620     -40.620 135.807   7.901  1.00 33.88     0.007 C 
HETATM   37  C35 8UH X1620     -41.575 136.816   8.359  1.00 33.88     0.001 C 
HETATM   38  C36 8UH X1620     -34.500 125.888   7.350  1.00 31.86     0.020 C 
HETATM   39  C37 8UH X1620     -36.897 126.160   6.828  1.00 31.86     0.020 C 
HETATM   40  C38 8UH X1620     -33.747 129.911   5.948  1.00 31.86     0.044 C 
HETATM   41  C39 8UH X1620     -37.888 129.954   9.551  1.00 33.88     0.048 C 
HETATM   42  C40 8UH X1620     -41.066 134.215   9.804  1.00 33.88     0.048 C 
HETATM   43  O23 8UH X1620     -33.573 125.924   3.336  1.00 31.86    -0.395 OA
ATOM     44  H23 8UH X1620     -33.045 126.449   2.747  1.00  0.00     0.210 HD
ENDROOT
TORSDOF 12
BEGIN_RES PHE A  61
REMARK  2 active torsions:
REMARK  status: ('A' for Active; 'I' for Inactive)
REMARK    1  A    between atoms: CA   and  CB  
REMARK    2  A    between atoms: CB   and  CG  
ROOT
ATOM      1  CA  PHE A  61     -36.237 128.293  12.768  1.00 39.40     0.164 C 
ENDROOT
BRANCH   1   2
ATOM      2  CB  PHE A  61     -36.813 128.951  11.509  1.00 39.41     0.058 C 
BRANCH   2   3
ATOM      3  CG  PHE A  61     -35.994 130.103  10.977  1.00 39.01    -0.020 A 
ATOM      4  CD2 PHE A  61     -34.770 129.883  10.366  1.00 40.32    -0.004 A 
ATOM      5  CE2 PHE A  61     -34.016 130.944   9.880  1.00 40.20    -0.000 A 
ATOM      6  CZ  PHE A  61     -34.480 132.235   9.995  1.00 40.34    -0.000 A 
ATOM      7  CE1 PHE A  61     -35.696 132.470  10.597  1.00 41.51    -0.000 A 
ATOM      8  CD1 PHE A  61     -36.447 131.410  11.089  1.00 39.94    -0.004 A 
ENDBRANCH   2   3
ENDBRANCH   1   2
END_RES PHE A  61
BEGIN_RES VAL A 134
REMARK  1 active torsions:
REMARK  status: ('A' for Active; 'I' for Inactive)
REMARK    3  A    between atoms: CA   and  CB  
ROOT
ATOM      9  CA  VAL A 134     -29.766 132.051   9.815  1.00 40.75     0.159 C 
ENDROOT
BRANCH   9  10
ATOM     10  CB  VAL A 134     -30.864 132.765   9.009  1.00 40.76     0.029 C 
ATOM     11  CG1 VAL A 134     -31.458 131.831   7.965  1.00 41.76     0.002 C 
ATOM     12  CG2 VAL A 134     -31.951 133.325   9.914  1.00 40.56     0.002 C 
ENDBRANCH   9  10
END_RES VAL A 134
BEGIN_RES TYR A 338
REMARK  3 active torsions:
REMARK  status: ('A' for Active; 'I' for Inactive)
REMARK    4  A    between atoms: CA   and  CB  
REMARK    5  A    between atoms: CB   and  CG  
REMARK    6  A    between atoms: CZ   and  OH  
ROOT
ATOM     13  CA  TYR A 338     -41.631 124.950   6.058  1.00 38.23     0.164 C 
ENDROOT
BRANCH  13  14
ATOM     14  CB  TYR A 338     -41.621 126.456   6.339  1.00 39.15     0.058 C 
BRANCH  14  15
ATOM     15  CG  TYR A 338     -40.444 127.220   5.778  1.00 39.03    -0.020 A 
ATOM     16  CD2 TYR A 338     -40.216 128.533   6.156  1.00 40.65    -0.002 A 
ATOM     17  CE2 TYR A 338     -39.156 129.268   5.649  1.00 40.91     0.024 A 
ATOM     18  CZ  TYR A 338     -38.292 128.690   4.738  1.00 42.33     0.089 A 
ATOM     19  CE1 TYR A 338     -38.497 127.378   4.349  1.00 40.63     0.024 A 
ATOM     20  CD1 TYR A 338     -39.570 126.663   4.857  1.00 39.27    -0.002 A 
BRANCH  18  21
ATOM     21  OH  TYR A 338     -37.241 129.405   4.236  1.00 43.36    -0.359 OA
ATOM     22  HH  TYR A 338     -37.110 130.310   4.491  1.00  0.00     0.217 HD
ENDBRANCH  18  21
ENDBRANCH  14  15
ENDBRANCH  13  14
END_RES TYR A 338
ENDMDL
