MODEL 1
REMARK VINA RESULT:   -11.265      0.000      0.000
REMARK INTER + INTRA:         -13.973
REMARK INTER:                 -11.265
REMARK INTRA:                  -2.709
REMARK UNBOUND:                -2.709
REMARK  0 active torsions:
REMARK  status: ('A' for Active; 'I' for Inactive)
REMARK       I    between atoms: C3_3  and  O3_21 
REMARK       I    between atoms: C6_6  and  C7_7 
REMARK       I    between atoms: C8_8  and  C9_9 
REMARK       I    between atoms: C10_10  and  C11_11 
REMARK       I    between atoms: C12_12  and  C13_13 
REMARK       I    between atoms: C14_14  and  C15_15 
REMARK       I    between atoms: C23_25  and  O23_43 
REMARK       I    between atoms: C26_28  and  C27_29 
REMARK       I    between atoms: C28_30  and  C29_31 
REMARK       I    between atoms: C30_32  and  C31_33 
REMARK       I    between atoms: C32_34  and  C33_35 
REMARK       I    between atoms: C34_36  and  C35_37 
ROOT
HETATM    1  C1  8UH 31621     -34.420 127.015   6.394  1.00 71.39    -0.018 C 
HETATM    2  C2  8UH 31621     -34.117 126.530   4.981  1.00 71.39     0.045 C 
HETATM    3  C3  8UH 31621     -32.957 127.177   4.235  1.00 71.39     0.123 C 
HETATM    4  C4  8UH 31621     -31.885 127.659   5.187  1.00 71.39     0.066 C 
HETATM    5  C5  8UH 31621     -32.546 128.595   6.152  1.00 71.39    -0.074 C 
HETATM    6  C6  8UH 31621     -33.649 128.247   6.811  1.00 71.39    -0.048 C 
HETATM    7  C7  8UH 31621     -34.165 129.034   7.965  1.00 71.39     0.009 C 
HETATM    8  C8  8UH 31621     -34.916 130.121   7.788  1.00 71.39     0.007 C 
HETATM    9  C9  8UH 31621     -35.488 130.936   8.875  1.00 71.39    -0.062 C 
HETATM   10  C10 8UH 31621     -36.376 131.866   8.513  1.00 71.39     0.007 C 
HETATM   11  C11 8UH 31621     -37.102 132.777   9.389  1.00 71.39     0.001 C 
HETATM   12  C12 8UH 31621     -37.965 133.571   8.756  1.00 71.39     0.007 C 
HETATM   13  C13 8UH 31621     -38.844 134.557   9.404  1.00 71.39    -0.062 C 
HETATM   14  C14 8UH 31621     -39.681 135.256   8.629  1.00 71.39     0.007 C 
HETATM   15  C15 8UH 31621     -40.618 136.221   9.187  1.00 71.39     0.001 C 
HETATM   16  C16 8UH 31621     -34.171 125.859   7.357  1.00 71.39     0.020 C 
HETATM   17  C17 8UH 31621     -35.892 127.365   6.461  1.00 71.39     0.020 C 
HETATM   18  C18 8UH 31621     -31.582 129.600   6.682  1.00 71.39     0.044 C 
HETATM   19  C19 8UH 31621     -35.116 130.731  10.310  1.00 71.39     0.048 C 
HETATM   20  C20 8UH 31621     -38.821 134.754  10.886  1.00 71.39     0.048 C 
HETATM   21  O3  8UH 31621     -32.365 126.208   3.364  1.00 71.39    -0.395 OA
ATOM     22  H3  8UH 31621     -31.641 126.611   2.899  1.00  0.00     0.210 HD
HETATM   23  C21 8UH 31621     -50.189 144.210  10.863  1.00 70.34    -0.018 C 
HETATM   24  C22 8UH 31621     -50.917 144.542  12.151  1.00 70.34     0.045 C 
HETATM   25  C23 8UH 31621     -50.651 145.916  12.740  1.00 70.34     0.123 C 
HETATM   26  C24 8UH 31621     -49.182 146.292  12.725  1.00 70.34     0.066 C 
HETATM   27  C25 8UH 31621     -48.341 145.696  11.634  1.00 70.34    -0.074 C 
HETATM   28  C26 8UH 31621     -48.760 144.703  10.843  1.00 70.34    -0.048 C 
HETATM   29  C27 8UH 31621     -47.836 144.070   9.872  1.00 70.34     0.009 C 
HETATM   30  C28 8UH 31621     -47.148 142.968  10.151  1.00 70.34     0.007 C 
HETATM   31  C29 8UH 31621     -46.257 142.338   9.174  1.00 71.39    -0.062 C 
HETATM   32  C30 8UH 31621     -45.833 141.099   9.443  1.00 71.39     0.007 C 
HETATM   33  C31 8UH 31621     -44.950 140.336   8.571  1.00 71.39     0.001 C 
HETATM   34  C32 8UH 31621     -44.105 139.503   9.159  1.00 71.39     0.007 C 
HETATM   35  C33 8UH 31621     -43.165 138.668   8.403  1.00 71.39    -0.062 C 
HETATM   36  C34 8UH 31621     -42.321 137.877   9.067  1.00 71.39     0.007 C 
HETATM   37  C35 8UH 31621     -41.375 136.988   8.406  1.00 71.39     0.001 C 
HETATM   38  C36 8UH 31621     -50.986 144.770   9.693  1.00 70.34     0.020 C 
HETATM   39  C37 8UH 31621     -50.156 142.690  10.768  1.00 70.34     0.020 C 
HETATM   40  C38 8UH 31621     -46.894 146.083  11.729  1.00 70.34     0.044 C 
HETATM   41  C39 8UH 31621     -45.846 143.062   7.931  1.00 71.39     0.048 C 
HETATM   42  C40 8UH 31621     -43.183 138.732   6.918  1.00 71.39     0.048 C 
HETATM   43  O23 8UH 31621     -51.425 146.924  12.086  1.00 70.34    -0.395 OA
ATOM     44  H23 8UH 31621     -51.258 147.784  12.455  1.00  0.00     0.210 HD
ENDROOT
TORSDOF 12
BEGIN_RES PHE A  61
REMARK  2 active torsions:
REMARK  status: ('A' for Active; 'I' for Inactive)
REMARK    1  A    between atoms: CA   and  CB  
REMARK    2  A    between atoms: CB   and  CG  
ROOT
ATOM      1  CA  PHE A  61     -36.237 128.293  12.768  1.00 39.40     0.164 C 
ENDROOT
BRANCH   1   2
ATOM      2  CB  PHE A  61     -36.813 128.951  11.509  1.00 39.41     0.058 C 
BRANCH   2   3
ATOM      3  CG  PHE A  61     -37.069 127.996  10.368  1.00 39.01    -0.020 A 
ATOM      4  CD2 PHE A  61     -36.333 126.830  10.237  1.00 40.32    -0.004 A 
ATOM      5  CE2 PHE A  61     -36.567 125.954   9.184  1.00 40.20    -0.000 A 
ATOM      6  CZ  PHE A  61     -37.542 126.232   8.254  1.00 40.34    -0.000 A 
ATOM      7  CE1 PHE A  61     -38.285 127.387   8.371  1.00 41.51    -0.000 A 
ATOM      8  CD1 PHE A  61     -38.046 128.266   9.419  1.00 39.94    -0.004 A 
ENDBRANCH   2   3
ENDBRANCH   1   2
END_RES PHE A  61
BEGIN_RES VAL A 134
REMARK  1 active torsions:
REMARK  status: ('A' for Active; 'I' for Inactive)
REMARK    3  A    between atoms: CA   and  CB  
ROOT
ATOM      9  CA  VAL A 134     -29.766 132.051   9.815  1.00 40.75     0.159 C 
ENDROOT
BRANCH   9  10
ATOM     10  CB  VAL A 134     -30.864 132.765   9.009  1.00 40.76     0.029 C 
ATOM     11  CG1 VAL A 134     -30.912 132.239   7.582  1.00 41.76     0.002 C 
ATOM     12  CG2 VAL A 134     -32.224 132.637   9.678  1.00 40.56     0.002 C 
ENDBRANCH   9  10
END_RES VAL A 134
BEGIN_RES TYR A 338
REMARK  3 active torsions:
REMARK  status: ('A' for Active; 'I' for Inactive)
REMARK    4  A    between atoms: CA   and  CB  
REMARK    5  A    between atoms: CB   and  CG  
REMARK    6  A    between atoms: CZ   and  OH  
ROOT
ATOM     13  CA  TYR A 338     -41.631 124.950   6.058  1.00 38.23     0.164 C 
ENDROOT
BRANCH  13  14
ATOM     14  CB  TYR A 338     -41.621 126.456   6.339  1.00 39.15     0.058 C 
BRANCH  14  15
ATOM     15  CG  TYR A 338     -40.414 127.210   5.830  1.00 39.03    -0.020 A 
ATOM     16  CD2 TYR A 338     -40.247 128.551   6.133  1.00 40.65    -0.002 A 
ATOM     17  CE2 TYR A 338     -39.160 129.277   5.671  1.00 40.91     0.024 A 
ATOM     18  CZ  TYR A 338     -38.208 128.661   4.882  1.00 42.33     0.089 A 
ATOM     19  CE1 TYR A 338     -38.351 127.320   4.569  1.00 40.63     0.024 A 
ATOM     20  CD1 TYR A 338     -39.451 126.615   5.030  1.00 39.27    -0.002 A 
BRANCH  18  21
ATOM     21  OH  TYR A 338     -37.130 129.366   4.424  1.00 43.36    -0.359 OA
ATOM     22  HH  TYR A 338     -36.811 129.235   3.538  1.00  0.00     0.217 HD
ENDBRANCH  18  21
ENDBRANCH  14  15
ENDBRANCH  13  14
END_RES TYR A 338
ENDMDL
MODEL 2
REMARK VINA RESULT:    -8.594      1.046     16.759
REMARK INTER + INTRA:         -11.303
REMARK INTER:                 -10.674
REMARK INTRA:                  -0.629
REMARK UNBOUND:                -2.709
REMARK  0 active torsions:
REMARK  status: ('A' for Active; 'I' for Inactive)
REMARK       I    between atoms: C3_3  and  O3_21 
REMARK       I    between atoms: C6_6  and  C7_7 
REMARK       I    between atoms: C8_8  and  C9_9 
REMARK       I    between atoms: C10_10  and  C11_11 
REMARK       I    between atoms: C12_12  and  C13_13 
REMARK       I    between atoms: C14_14  and  C15_15 
REMARK       I    between atoms: C23_25  and  O23_43 
REMARK       I    between atoms: C26_28  and  C27_29 
REMARK       I    between atoms: C28_30  and  C29_31 
REMARK       I    between atoms: C30_32  and  C31_33 
REMARK       I    between atoms: C32_34  and  C33_35 
REMARK       I    between atoms: C34_36  and  C35_37 
ROOT
HETATM    1  C1  8UH 31621     -50.624 144.792  10.496  1.00 71.39    -0.018 C 
HETATM    2  C2  8UH 31621     -51.397 144.914  11.803  1.00 71.39     0.045 C 
HETATM    3  C3  8UH 31621     -50.856 145.860  12.868  1.00 71.39     0.123 C 
HETATM    4  C4  8UH 31621     -50.092 147.011  12.253  1.00 71.39     0.066 C 
HETATM    5  C5  8UH 31621     -49.010 146.414  11.405  1.00 71.39    -0.074 C 
HETATM    6  C6  8UH 31621     -49.277 145.478  10.497  1.00 71.39    -0.048 C 
HETATM    7  C7  8UH 31621     -48.286 145.071   9.463  1.00 71.39     0.009 C 
HETATM    8  C8  8UH 31621     -47.325 144.184   9.728  1.00 71.39     0.007 C 
HETATM    9  C9  8UH 31621     -46.326 143.709   8.754  1.00 71.39    -0.062 C 
HETATM   10  C10 8UH 31621     -45.571 142.676   9.138  1.00 71.39     0.007 C 
HETATM   11  C11 8UH 31621     -44.538 142.004   8.358  1.00 71.39     0.001 C 
HETATM   12  C12 8UH 31621     -43.975 140.967   8.978  1.00 71.39     0.007 C 
HETATM   13  C13 8UH 31621     -42.933 140.101   8.406  1.00 71.39    -0.062 C 
HETATM   14  C14 8UH 31621     -42.492 139.077   9.147  1.00 71.39     0.007 C 
HETATM   15  C15 8UH 31621     -41.496 138.141   8.645  1.00 71.39     0.001 C 
HETATM   16  C16 8UH 31621     -51.507 145.319   9.370  1.00 71.39     0.020 C 
HETATM   17  C17 8UH 31621     -50.375 143.320  10.237  1.00 71.39     0.020 C 
HETATM   18  C18 8UH 31621     -47.843 147.333  11.286  1.00 71.39     0.044 C 
HETATM   19  C19 8UH 31621     -46.169 144.328   7.400  1.00 71.39     0.048 C 
HETATM   20  C20 8UH 31621     -42.401 140.340   7.029  1.00 71.39     0.048 C 
HETATM   21  O3  8UH 31621     -51.953 146.407  13.606  1.00 71.39    -0.395 OA
ATOM     22  H3  8UH 31621     -51.616 146.997  14.270  1.00  0.00     0.210 HD
HETATM   23  C21 8UH 31621     -34.049 128.139   6.994  1.00 70.34    -0.018 C 
HETATM   24  C22 8UH 31621     -33.484 127.596   5.697  1.00 70.34     0.045 C 
HETATM   25  C23 8UH 31621     -31.996 127.798   5.472  1.00 70.34     0.123 C 
HETATM   26  C24 8UH 31621     -31.529 129.195   5.834  1.00 70.34     0.066 C 
HETATM   27  C25 8UH 31621     -32.297 129.909   6.907  1.00 70.34    -0.074 C 
HETATM   28  C26 8UH 31621     -33.471 129.482   7.379  1.00 70.34    -0.048 C 
HETATM   29  C27 8UH 31621     -34.242 130.301   8.344  1.00 70.34     0.009 C 
HETATM   30  C28 8UH 31621     -35.198 131.144   7.968  1.00 70.34     0.007 C 
HETATM   31  C29 8UH 31621     -35.969 131.930   8.934  1.00 71.39    -0.062 C 
HETATM   32  C30 8UH 31621     -37.079 132.526   8.489  1.00 71.39     0.007 C 
HETATM   33  C31 8UH 31621     -37.955 133.336   9.324  1.00 71.39     0.001 C 
HETATM   34  C32 8UH 31621     -38.569 134.353   8.736  1.00 71.39     0.007 C 
HETATM   35  C33 8UH 31621     -39.484 135.244   9.455  1.00 71.39    -0.062 C 
HETATM   36  C34 8UH 31621     -40.039 136.268   8.803  1.00 71.39     0.007 C 
HETATM   37  C35 8UH 31621     -40.985 137.188   9.421  1.00 71.39     0.001 C 
HETATM   38  C36 8UH 31621     -33.831 127.106   8.092  1.00 70.34     0.020 C 
HETATM   39  C37 8UH 31621     -35.545 128.324   6.768  1.00 70.34     0.020 C 
HETATM   40  C38 8UH 31621     -31.794 131.301   7.163  1.00 70.34     0.044 C 
HETATM   41  C39 8UH 31621     -35.521 132.051  10.355  1.00 71.39     0.048 C 
HETATM   42  C40 8UH 31621     -39.764 134.981  10.892  1.00 71.39     0.048 C 
HETATM   43  O23 8UH 31621     -31.224 126.822   6.174  1.00 70.34    -0.395 OA
ATOM     44  H23 8UH 31621     -30.293 126.950   6.033  1.00  0.00     0.210 HD
ENDROOT
TORSDOF 12
BEGIN_RES PHE A  61
REMARK  2 active torsions:
REMARK  status: ('A' for Active; 'I' for Inactive)
REMARK    1  A    between atoms: CA   and  CB  
REMARK    2  A    between atoms: CB   and  CG  
ROOT
ATOM      1  CA  PHE A  61     -36.237 128.293  12.768  1.00 39.40     0.164 C 
ENDROOT
BRANCH   1   2
ATOM      2  CB  PHE A  61     -36.813 128.951  11.509  1.00 39.41     0.058 C 
BRANCH   2   3
ATOM      3  CG  PHE A  61     -37.015 128.007  10.348  1.00 39.01    -0.020 A 
ATOM      4  CD2 PHE A  61     -36.253 126.856  10.226  1.00 40.32    -0.004 A 
ATOM      5  CE2 PHE A  61     -36.438 125.989   9.156  1.00 40.20    -0.000 A 
ATOM      6  CZ  PHE A  61     -37.389 126.262   8.199  1.00 40.34    -0.000 A 
ATOM      7  CE1 PHE A  61     -38.156 127.400   8.307  1.00 41.51    -0.000 A 
ATOM      8  CD1 PHE A  61     -37.967 128.270   9.373  1.00 39.94    -0.004 A 
ENDBRANCH   2   3
ENDBRANCH   1   2
END_RES PHE A  61
BEGIN_RES VAL A 134
REMARK  1 active torsions:
REMARK  status: ('A' for Active; 'I' for Inactive)
REMARK    3  A    between atoms: CA   and  CB  
ROOT
ATOM      9  CA  VAL A 134     -29.766 132.051   9.815  1.00 40.75     0.159 C 
ENDROOT
BRANCH   9  10
ATOM     10  CB  VAL A 134     -30.864 132.765   9.009  1.00 40.76     0.029 C 
ATOM     11  CG1 VAL A 134     -32.119 132.944   9.850  1.00 41.76     0.002 C 
ATOM     12  CG2 VAL A 134     -30.382 134.102   8.466  1.00 40.56     0.002 C 
ENDBRANCH   9  10
END_RES VAL A 134
BEGIN_RES TYR A 338
REMARK  3 active torsions:
REMARK  status: ('A' for Active; 'I' for Inactive)
REMARK    4  A    between atoms: CA   and  CB  
REMARK    5  A    between atoms: CB   and  CG  
REMARK    6  A    between atoms: CZ   and  OH  
ROOT
ATOM     13  CA  TYR A 338     -41.631 124.950   6.058  1.00 38.23     0.164 C 
ENDROOT
BRANCH  13  14
ATOM     14  CB  TYR A 338     -41.621 126.456   6.339  1.00 39.15     0.058 C 
BRANCH  14  15
ATOM     15  CG  TYR A 338     -40.413 127.210   5.832  1.00 39.03    -0.020 A 
ATOM     16  CD2 TYR A 338     -40.260 128.557   6.112  1.00 40.65    -0.002 A 
ATOM     17  CE2 TYR A 338     -39.173 129.283   5.650  1.00 40.91     0.024 A 
ATOM     18  CZ  TYR A 338     -38.206 128.659   4.885  1.00 42.33     0.089 A 
ATOM     19  CE1 TYR A 338     -38.335 127.312   4.595  1.00 40.63     0.024 A 
ATOM     20  CD1 TYR A 338     -39.436 126.607   5.056  1.00 39.27    -0.002 A 
BRANCH  18  21
ATOM     21  OH  TYR A 338     -37.128 129.365   4.427  1.00 43.36    -0.359 OA
ATOM     22  HH  TYR A 338     -36.255 129.167   4.745  1.00  0.00     0.217 HD
ENDBRANCH  18  21
ENDBRANCH  14  15
ENDBRANCH  13  14
END_RES TYR A 338
ENDMDL
