MODEL 1
REMARK VINA RESULT:   -11.208      0.000      0.000
REMARK INTER + INTRA:         -14.547
REMARK INTER:                 -11.208
REMARK INTRA:                  -3.339
REMARK UNBOUND:                -3.339
REMARK  0 active torsions:
REMARK  status: ('A' for Active; 'I' for Inactive)
REMARK       I    between atoms: C3_3  and  O3_21 
REMARK       I    between atoms: C6_6  and  C7_7 
REMARK       I    between atoms: C8_8  and  C9_9 
REMARK       I    between atoms: C10_10  and  C11_11 
REMARK       I    between atoms: C12_12  and  C13_13 
REMARK       I    between atoms: C14_14  and  C15_15 
REMARK       I    between atoms: C23_25  and  O23_43 
REMARK       I    between atoms: C26_28  and  C27_29 
REMARK       I    between atoms: C28_30  and  C29_31 
REMARK       I    between atoms: C30_32  and  C31_33 
REMARK       I    between atoms: C32_34  and  C33_35 
REMARK       I    between atoms: C34_36  and  C35_37 
ROOT
HETATM    1  C1  8UH J9621     -48.013 145.957  12.627  1.00 21.11    -0.018 C 
HETATM    2  C2  8UH J9621     -48.647 146.473  13.931  1.00 20.11     0.045 C 
HETATM    3  C3  8UH J9621     -48.016 147.650  14.671  1.00 19.41     0.123 C 
HETATM    4  C4  8UH J9621     -46.696 148.181  14.094  1.00 18.39     0.066 C 
HETATM    5  C5  8UH J9621     -45.982 147.484  12.984  1.00 18.34    -0.074 C 
HETATM    6  C6  8UH J9621     -46.563 146.460  12.270  1.00 19.81    -0.048 C 
HETATM    7  C7  8UH J9621     -45.939 145.757  11.126  1.00 19.02     0.009 C 
HETATM    8  C8  8UH J9621     -45.038 144.761  11.231  1.00 17.97     0.007 C 
HETATM    9  C9  8UH J9621     -44.384 144.022  10.147  1.00 18.85    -0.062 C 
HETATM   10  C10 8UH J9621     -43.604 142.970  10.493  1.00 18.38     0.007 C 
HETATM   11  C11 8UH J9621     -42.934 142.048   9.607  1.00 18.57     0.001 C 
HETATM   12  C12 8UH J9621     -42.247 140.981  10.070  1.00 17.11     0.007 C 
HETATM   13  C13 8UH J9621     -41.592 139.924   9.284  1.00 20.42    -0.062 C 
HETATM   14  C14 8UH J9621     -40.985 138.918   9.955  1.00 20.50     0.007 C 
HETATM   15  C15 8UH J9621     -40.331 137.768   9.380  1.00 20.22     0.001 C 
HETATM   16  C16 8UH J9621     -49.025 146.381  11.534  1.00 19.56     0.020 C 
HETATM   17  C17 8UH J9621     -48.044 144.418  12.733  1.00 18.49     0.020 C 
HETATM   18  C18 8UH J9621     -44.668 148.140  12.774  1.00 16.89     0.044 C 
HETATM   19  C19 8UH J9621     -44.685 144.438   8.735  1.00 14.61     0.048 C 
HETATM   20  C20 8UH J9621     -41.666 140.007   7.778  1.00 17.59     0.048 C 
HETATM   21  O3  8UH J9621     -48.953 148.705  14.800  1.00 18.27    -0.395 OA
ATOM     22  H3  8UH J9621     -49.770 148.377  15.157  1.00  0.00     0.210 HD
HETATM   23  C21 8UH J9621     -34.308 126.961   6.356  1.00 43.24    -0.018 C 
HETATM   24  C22 8UH J9621     -34.091 126.447   4.931  1.00 43.24     0.045 C 
HETATM   25  C23 8UH J9621     -33.085 127.177   4.042  1.00 43.24     0.123 C 
HETATM   26  C24 8UH J9621     -31.988 127.852   4.839  1.00 43.24     0.066 C 
HETATM   27  C25 8UH J9621     -32.618 128.737   5.877  1.00 43.24    -0.074 C 
HETATM   28  C26 8UH J9621     -33.603 128.277   6.657  1.00 43.24    -0.048 C 
HETATM   29  C27 8UH J9621     -33.999 129.069   7.849  1.00 43.24     0.009 C 
HETATM   30  C28 8UH J9621     -34.959 129.992   7.771  1.00 43.24     0.007 C 
HETATM   31  C29 8UH J9621     -35.405 130.844   8.910  1.00 19.55    -0.062 C 
HETATM   32  C30 8UH J9621     -36.360 131.772   8.674  1.00 17.66     0.007 C 
HETATM   33  C31 8UH J9621     -36.916 132.693   9.636  1.00 19.12     0.001 C 
HETATM   34  C32 8UH J9621     -37.746 133.701   9.280  1.00 19.40     0.007 C 
HETATM   35  C33 8UH J9621     -38.368 134.741  10.119  1.00 19.31    -0.062 C 
HETATM   36  C34 8UH J9621     -39.085 135.703   9.498  1.00 17.72     0.007 C 
HETATM   37  C35 8UH J9621     -39.726 136.833  10.113  1.00 19.92     0.001 C 
HETATM   38  C36 8UH J9621     -33.858 125.850   7.300  1.00 43.24     0.020 C 
HETATM   39  C37 8UH J9621     -35.798 127.182   6.572  1.00 43.24     0.020 C 
HETATM   40  C38 8UH J9621     -31.725 129.867   6.306  1.00 43.24     0.044 C 
HETATM   41  C39 8UH J9621     -34.716 130.671  10.238  1.00 18.53     0.048 C 
HETATM   42  C40 8UH J9621     -38.107 134.701  11.600  1.00 15.86     0.048 C 
HETATM   43  O23 8UH J9621     -32.479 126.231   3.155  1.00 43.24    -0.395 OA
ATOM     44  H23 8UH J9621     -31.853 126.685   2.602  1.00  0.00     0.210 HD
ENDROOT
TORSDOF 12
BEGIN_RES PHE A  61
REMARK  2 active torsions:
REMARK  status: ('A' for Active; 'I' for Inactive)
REMARK    1  A    between atoms: CA   and  CB  
REMARK    2  A    between atoms: CB   and  CG  
ROOT
ATOM      1  CA  PHE A  61     -36.237 128.293  12.768  1.00 39.40     0.164 C 
ENDROOT
BRANCH   1   2
ATOM      2  CB  PHE A  61     -36.813 128.951  11.509  1.00 39.41     0.058 C 
BRANCH   2   3
ATOM      3  CG  PHE A  61     -37.042 128.001  10.358  1.00 39.01    -0.020 A 
ATOM      4  CD2 PHE A  61     -36.269 126.860  10.211  1.00 40.32    -0.004 A 
ATOM      5  CE2 PHE A  61     -36.479 125.989   9.150  1.00 40.20    -0.000 A 
ATOM      6  CZ  PHE A  61     -37.466 126.246   8.226  1.00 40.34    -0.000 A 
ATOM      7  CE1 PHE A  61     -38.244 127.375   8.358  1.00 41.51    -0.000 A 
ATOM      8  CD1 PHE A  61     -38.030 128.249   9.416  1.00 39.94    -0.004 A 
ENDBRANCH   2   3
ENDBRANCH   1   2
END_RES PHE A  61
BEGIN_RES VAL A 134
REMARK  1 active torsions:
REMARK  status: ('A' for Active; 'I' for Inactive)
REMARK    3  A    between atoms: CA   and  CB  
ROOT
ATOM      9  CA  VAL A 134     -29.766 132.051   9.815  1.00 40.75     0.159 C 
ENDROOT
BRANCH   9  10
ATOM     10  CB  VAL A 134     -30.864 132.765   9.009  1.00 40.76     0.029 C 
ATOM     11  CG1 VAL A 134     -31.182 131.996   7.735  1.00 41.76     0.002 C 
ATOM     12  CG2 VAL A 134     -32.120 132.979   9.839  1.00 40.56     0.002 C 
ENDBRANCH   9  10
END_RES VAL A 134
BEGIN_RES TYR A 338
REMARK  3 active torsions:
REMARK  status: ('A' for Active; 'I' for Inactive)
REMARK    4  A    between atoms: CA   and  CB  
REMARK    5  A    between atoms: CB   and  CG  
REMARK    6  A    between atoms: CZ   and  OH  
ROOT
ATOM     13  CA  TYR A 338     -41.631 124.950   6.058  1.00 38.23     0.164 C 
ENDROOT
BRANCH  13  14
ATOM     14  CB  TYR A 338     -41.621 126.456   6.339  1.00 39.15     0.058 C 
BRANCH  14  15
ATOM     15  CG  TYR A 338     -40.406 127.208   5.845  1.00 39.03    -0.020 A 
ATOM     16  CD2 TYR A 338     -40.231 128.543   6.165  1.00 40.65    -0.002 A 
ATOM     17  CE2 TYR A 338     -39.137 129.267   5.716  1.00 40.91     0.024 A 
ATOM     18  CZ  TYR A 338     -38.185 128.653   4.924  1.00 42.33     0.089 A 
ATOM     19  CE1 TYR A 338     -38.336 127.317   4.595  1.00 40.63     0.024 A 
ATOM     20  CD1 TYR A 338     -39.444 126.614   5.043  1.00 39.27    -0.002 A 
BRANCH  18  21
ATOM     21  OH  TYR A 338     -37.101 129.356   4.479  1.00 43.36    -0.359 OA
ATOM     22  HH  TYR A 338     -37.211 130.072   3.865  1.00  0.00     0.217 HD
ENDBRANCH  18  21
ENDBRANCH  14  15
ENDBRANCH  13  14
END_RES TYR A 338
ENDMDL
