MODEL 1
REMARK VINA RESULT:   -10.905      0.000      0.000
REMARK INTER + INTRA:         -13.106
REMARK INTER:                 -10.905
REMARK INTRA:                  -2.201
REMARK UNBOUND:                -2.201
REMARK  0 active torsions:
REMARK  status: ('A' for Active; 'I' for Inactive)
REMARK       I    between atoms: C3_3  and  O3_21 
REMARK       I    between atoms: C6_6  and  C7_7 
REMARK       I    between atoms: C8_8  and  C9_9 
REMARK       I    between atoms: C10_10  and  C11_11 
REMARK       I    between atoms: C12_12  and  C13_13 
REMARK       I    between atoms: C14_14  and  C15_15 
REMARK       I    between atoms: C23_25  and  O23_43 
REMARK       I    between atoms: C26_28  and  C27_29 
REMARK       I    between atoms: C28_30  and  C29_31 
REMARK       I    between atoms: C30_32  and  C31_33 
REMARK       I    between atoms: C32_34  and  C33_35 
REMARK       I    between atoms: C34_36  and  C35_37 
ROOT
HETATM    1  C1  8UH 8 314     -48.599 145.482  12.616  1.00 73.63    -0.018 C 
HETATM    2  C2  8UH 8 314     -49.304 146.097  13.821  1.00 75.58     0.045 C 
HETATM    3  C3  8UH 8 314     -48.383 146.728  14.852  1.00 77.85     0.123 C 
HETATM    4  C4  8UH 8 314     -47.453 147.718  14.171  1.00 76.46     0.066 C 
HETATM    5  C5  8UH 8 314     -46.690 147.046  13.056  1.00 74.82    -0.074 C 
HETATM    6  C6  8UH 8 314     -47.228 146.064  12.321  1.00 72.89    -0.048 C 
HETATM    7  C7  8UH 8 314     -46.486 145.500  11.167  1.00 69.76     0.009 C 
HETATM    8  C8  8UH 8 314     -45.516 144.602  11.354  1.00 67.74     0.007 C 
HETATM    9  C9  8UH 8 314     -44.762 143.993  10.240  1.00 67.19    -0.062 C 
HETATM   10  C10 8UH 8 314     -43.887 143.024  10.541  1.00 64.55     0.007 C 
HETATM   11  C11 8UH 8 314     -43.075 142.300   9.565  1.00 61.91     0.001 C 
HETATM   12  C12 8UH 8 314     -42.426 141.244  10.051  1.00 60.53     0.007 C 
HETATM   13  C13 8UH 8 314     -41.568 140.346   9.257  1.00 59.33    -0.062 C 
HETATM   14  C14 8UH 8 314     -41.102 139.242   9.865  1.00 60.00     0.007 C 
HETATM   15  C15 8UH 8 314     -40.266 138.248   9.196  1.00 60.35     0.001 C 
HETATM   16  C16 8UH 8 314     -49.501 145.669  11.402  1.00 75.09     0.020 C 
HETATM   17  C17 8UH 8 314     -48.416 143.993  12.875  1.00 73.62     0.020 C 
HETATM   18  C18 8UH 8 314     -45.381 147.669  12.669  1.00 74.16     0.044 C 
HETATM   19  C19 8UH 8 314     -44.977 144.433   8.821  1.00 68.15     0.048 C 
HETATM   20  C20 8UH 8 314     -41.243 140.649   7.824  1.00 57.80     0.048 C 
HETATM   21  O3  8UH 8 314     -49.180 147.419  15.823  1.00 79.25    -0.395 OA
ATOM     22  H3  8UH 8 314     -48.605 147.813  16.467  1.00  0.00     0.210 HD
HETATM   23  C21 8UH 8 314     -34.389 127.318   6.585  1.00 57.09    -0.018 C 
HETATM   24  C22 8UH 8 314     -33.852 126.698   5.303  1.00 57.09     0.045 C 
HETATM   25  C23 8UH 8 314     -32.675 127.385   4.636  1.00 57.09     0.123 C 
HETATM   26  C24 8UH 8 314     -31.723 127.937   5.676  1.00 57.09     0.066 C 
HETATM   27  C25 8UH 8 314     -32.475 128.891   6.556  1.00 57.09    -0.074 C 
HETATM   28  C26 8UH 8 314     -33.652 128.541   7.087  1.00 57.09    -0.048 C 
HETATM   29  C27 8UH 8 314     -34.268 129.319   8.196  1.00 57.09     0.009 C 
HETATM   30  C28 8UH 8 314     -34.955 130.444   7.973  1.00 57.09     0.007 C 
HETATM   31  C29 8UH 8 314     -35.593 131.231   9.035  1.00 75.56    -0.062 C 
HETATM   32  C30 8UH 8 314     -36.463 132.193   8.690  1.00 73.06     0.007 C 
HETATM   33  C31 8UH 8 314     -37.167 133.042   9.650  1.00 70.20     0.001 C 
HETATM   34  C32 8UH 8 314     -37.832 134.070   9.127  1.00 68.68     0.007 C 
HETATM   35  C33 8UH 8 314     -38.622 135.057   9.887  1.00 66.05    -0.062 C 
HETATM   36  C34 8UH 8 314     -39.101 136.125   9.226  1.00 63.06     0.007 C 
HETATM   37  C35 8UH 8 314     -39.911 137.153   9.869  1.00 60.73     0.001 C 
HETATM   38  C36 8UH 8 314     -34.398 126.220   7.639  1.00 57.09     0.020 C 
HETATM   39  C37 8UH 8 314     -35.812 127.753   6.313  1.00 57.09     0.020 C 
HETATM   40  C38 8UH 8 314     -31.559 129.884   7.209  1.00 57.09     0.044 C 
HETATM   41  C39 8UH 8 314     -35.270 130.966  10.476  1.00 73.18     0.048 C 
HETATM   42  C40 8UH 8 314     -38.889 134.872  11.351  1.00 66.25     0.048 C 
HETATM   43  O23 8UH 8 314     -31.986 126.409   3.854  1.00 57.09    -0.395 OA
ATOM     44  H23 8UH 8 314     -31.249 126.839   3.438  1.00  0.00     0.210 HD
ENDROOT
TORSDOF 12
BEGIN_RES PHE A  61
REMARK  2 active torsions:
REMARK  status: ('A' for Active; 'I' for Inactive)
REMARK    1  A    between atoms: CA   and  CB  
REMARK    2  A    between atoms: CB   and  CG  
ROOT
ATOM      1  CA  PHE A  61     -36.237 128.293  12.768  1.00 39.40     0.164 C 
ENDROOT
BRANCH   1   2
ATOM      2  CB  PHE A  61     -36.813 128.951  11.509  1.00 39.41     0.058 C 
BRANCH   2   3
ATOM      3  CG  PHE A  61     -37.076 127.995  10.370  1.00 39.01    -0.020 A 
ATOM      4  CD2 PHE A  61     -36.391 126.794  10.276  1.00 40.32    -0.004 A 
ATOM      5  CE2 PHE A  61     -36.632 125.917   9.226  1.00 40.20    -0.000 A 
ATOM      6  CZ  PHE A  61     -37.563 126.229   8.261  1.00 40.34    -0.000 A 
ATOM      7  CE1 PHE A  61     -38.254 127.417   8.341  1.00 41.51    -0.000 A 
ATOM      8  CD1 PHE A  61     -38.008 128.298   9.387  1.00 39.94    -0.004 A 
ENDBRANCH   2   3
ENDBRANCH   1   2
END_RES PHE A  61
BEGIN_RES VAL A 134
REMARK  1 active torsions:
REMARK  status: ('A' for Active; 'I' for Inactive)
REMARK    3  A    between atoms: CA   and  CB  
ROOT
ATOM      9  CA  VAL A 134     -29.766 132.051   9.815  1.00 40.75     0.159 C 
ENDROOT
BRANCH   9  10
ATOM     10  CB  VAL A 134     -30.864 132.765   9.009  1.00 40.76     0.029 C 
ATOM     11  CG1 VAL A 134     -30.855 132.302   7.560  1.00 41.76     0.002 C 
ATOM     12  CG2 VAL A 134     -32.237 132.565   9.632  1.00 40.56     0.002 C 
ENDBRANCH   9  10
END_RES VAL A 134
BEGIN_RES TYR A 338
REMARK  3 active torsions:
REMARK  status: ('A' for Active; 'I' for Inactive)
REMARK    4  A    between atoms: CA   and  CB  
REMARK    5  A    between atoms: CB   and  CG  
REMARK    6  A    between atoms: CZ   and  OH  
ROOT
ATOM     13  CA  TYR A 338     -41.631 124.950   6.058  1.00 38.23     0.164 C 
ENDROOT
BRANCH  13  14
ATOM     14  CB  TYR A 338     -41.621 126.456   6.339  1.00 39.15     0.058 C 
BRANCH  14  15
ATOM     15  CG  TYR A 338     -40.424 127.214   5.813  1.00 39.03    -0.020 A 
ATOM     16  CD2 TYR A 338     -40.251 128.553   6.120  1.00 40.65    -0.002 A 
ATOM     17  CE2 TYR A 338     -39.174 129.282   5.641  1.00 40.91     0.024 A 
ATOM     18  CZ  TYR A 338     -38.236 128.670   4.832  1.00 42.33     0.089 A 
ATOM     19  CE1 TYR A 338     -38.384 127.332   4.514  1.00 40.63     0.024 A 
ATOM     20  CD1 TYR A 338     -39.476 126.623   4.992  1.00 39.27    -0.002 A 
BRANCH  18  21
ATOM     21  OH  TYR A 338     -37.167 129.379   4.358  1.00 43.36    -0.359 OA
ATOM     22  HH  TYR A 338     -36.285 129.042   4.459  1.00  0.00     0.217 HD
ENDBRANCH  18  21
ENDBRANCH  14  15
ENDBRANCH  13  14
END_RES TYR A 338
ENDMDL
MODEL 2
REMARK VINA RESULT:    -9.757      1.130     16.802
REMARK INTER + INTRA:         -11.959
REMARK INTER:                  -9.412
REMARK INTRA:                  -2.546
REMARK UNBOUND:                -2.201
REMARK  0 active torsions:
REMARK  status: ('A' for Active; 'I' for Inactive)
REMARK       I    between atoms: C3_3  and  O3_21 
REMARK       I    between atoms: C6_6  and  C7_7 
REMARK       I    between atoms: C8_8  and  C9_9 
REMARK       I    between atoms: C10_10  and  C11_11 
REMARK       I    between atoms: C12_12  and  C13_13 
REMARK       I    between atoms: C14_14  and  C15_15 
REMARK       I    between atoms: C23_25  and  O23_43 
REMARK       I    between atoms: C26_28  and  C27_29 
REMARK       I    between atoms: C28_30  and  C29_31 
REMARK       I    between atoms: C30_32  and  C31_33 
REMARK       I    between atoms: C32_34  and  C33_35 
REMARK       I    between atoms: C34_36  and  C35_37 
ROOT
HETATM    1  C1  8UH 8 314     -34.392 126.789   6.362  1.00 73.63    -0.018 C 
HETATM    2  C2  8UH 8 314     -33.874 125.990   5.170  1.00 75.58     0.045 C 
HETATM    3  C3  8UH 8 314     -33.010 126.774   4.197  1.00 77.85     0.123 C 
HETATM    4  C4  8UH 8 314     -31.886 127.466   4.950  1.00 76.46     0.066 C 
HETATM    5  C5  8UH 8 314     -32.443 128.336   6.051  1.00 74.82    -0.074 C 
HETATM    6  C6  8UH 8 314     -33.554 128.004   6.722  1.00 72.89    -0.048 C 
HETATM    7  C7  8UH 8 314     -34.012 128.830   7.866  1.00 69.76     0.009 C 
HETATM    8  C8  8UH 8 314     -34.677 129.968   7.660  1.00 67.74     0.007 C 
HETATM    9  C9  8UH 8 314     -35.175 130.816   8.763  1.00 67.19    -0.062 C 
HETATM   10  C10 8UH 8 314     -35.923 131.879   8.438  1.00 64.55     0.007 C 
HETATM   11  C11 8UH 8 314     -36.514 132.809   9.398  1.00 61.91     0.001 C 
HETATM   12  C12 8UH 8 314     -37.383 133.672   8.877  1.00 60.53     0.007 C 
HETATM   13  C13 8UH 8 314     -38.124 134.687   9.649  1.00 59.33    -0.062 C 
HETATM   14  C14 8UH 8 314     -39.073 135.383   9.000  1.00 60.00     0.007 C 
HETATM   15  C15 8UH 8 314     -39.905 136.398   9.641  1.00 60.35     0.001 C 
HETATM   16  C16 8UH 8 314     -34.463 125.850   7.560  1.00 75.09     0.020 C 
HETATM   17  C17 8UH 8 314     -35.795 127.284   6.035  1.00 73.62     0.020 C 
HETATM   18  C18 8UH 8 314     -31.583 129.479   6.502  1.00 74.16     0.044 C 
HETATM   19  C19 8UH 8 314     -34.866 130.492  10.196  1.00 68.15     0.048 C 
HETATM   20  C20 8UH 8 314     -37.837 134.918  11.103  1.00 57.80     0.048 C 
HETATM   21  O3  8UH 8 314     -32.450 125.865   3.241  1.00 79.25    -0.395 OA
ATOM     22  H3  8UH 8 314     -31.911 126.356   2.632  1.00  0.00     0.210 HD
HETATM   23  C21 8UH 8 314     -49.496 144.392  11.864  1.00 57.09    -0.018 C 
HETATM   24  C22 8UH 8 314     -50.058 145.026  13.128  1.00 57.09     0.045 C 
HETATM   25  C23 8UH 8 314     -49.177 146.024  13.859  1.00 57.09     0.123 C 
HETATM   26  C24 8UH 8 314     -48.385 146.855  12.873  1.00 57.09     0.066 C 
HETATM   27  C25 8UH 8 314     -47.562 145.934  12.022  1.00 57.09    -0.074 C 
HETATM   28  C26 8UH 8 314     -48.121 144.865  11.443  1.00 57.09    -0.048 C 
HETATM   29  C27 8UH 8 314     -47.430 144.116  10.358  1.00 57.09     0.009 C 
HETATM   30  C28 8UH 8 314     -46.486 143.205  10.618  1.00 57.09     0.007 C 
HETATM   31  C29 8UH 8 314     -45.793 142.433   9.579  1.00 75.56    -0.062 C 
HETATM   32  C30 8UH 8 314     -45.054 141.376   9.948  1.00 73.06     0.007 C 
HETATM   33  C31 8UH 8 314     -44.320 140.525   9.013  1.00 70.20     0.001 C 
HETATM   34  C32 8UH 8 314     -43.483 139.652   9.568  1.00 68.68     0.007 C 
HETATM   35  C33 8UH 8 314     -42.642 138.684   8.837  1.00 66.05    -0.062 C 
HETATM   36  C34 8UH 8 314     -41.734 137.983   9.537  1.00 63.06     0.007 C 
HETATM   37  C35 8UH 8 314     -40.864 136.985   8.924  1.00 60.73     0.001 C 
HETATM   38  C36 8UH 8 314     -50.513 144.630  10.758  1.00 57.09     0.020 C 
HETATM   39  C37 8UH 8 314     -49.382 142.905  12.120  1.00 57.09     0.020 C 
HETATM   40  C38 8UH 8 314     -46.367 146.631  11.442  1.00 57.09     0.044 C 
HETATM   41  C39 8UH 8 314     -45.908 142.827   8.136  1.00 73.18     0.048 C 
HETATM   42  C40 8UH 8 314     -42.800 138.485   7.359  1.00 66.25     0.048 C 
HETATM   43  O23 8UH 8 314     -50.030 146.889  14.610  1.00 57.09    -0.395 OA
ATOM     44  H23 8UH 8 314     -49.479 147.513  15.066  1.00  0.00     0.210 HD
ENDROOT
TORSDOF 12
BEGIN_RES PHE A  61
REMARK  2 active torsions:
REMARK  status: ('A' for Active; 'I' for Inactive)
REMARK    1  A    between atoms: CA   and  CB  
REMARK    2  A    between atoms: CB   and  CG  
ROOT
ATOM      1  CA  PHE A  61     -36.237 128.293  12.768  1.00 39.40     0.164 C 
ENDROOT
BRANCH   1   2
ATOM      2  CB  PHE A  61     -36.813 128.951  11.509  1.00 39.41     0.058 C 
BRANCH   2   3
ATOM      3  CG  PHE A  61     -37.070 127.996  10.368  1.00 39.01    -0.020 A 
ATOM      4  CD2 PHE A  61     -36.387 126.793  10.279  1.00 40.32    -0.004 A 
ATOM      5  CE2 PHE A  61     -36.622 125.917   9.227  1.00 40.20    -0.000 A 
ATOM      6  CZ  PHE A  61     -37.544 126.232   8.254  1.00 40.34    -0.000 A 
ATOM      7  CE1 PHE A  61     -38.232 127.423   8.329  1.00 41.51    -0.000 A 
ATOM      8  CD1 PHE A  61     -37.993 128.302   9.378  1.00 39.94    -0.004 A 
ENDBRANCH   2   3
ENDBRANCH   1   2
END_RES PHE A  61
BEGIN_RES VAL A 134
REMARK  1 active torsions:
REMARK  status: ('A' for Active; 'I' for Inactive)
REMARK    3  A    between atoms: CA   and  CB  
ROOT
ATOM      9  CA  VAL A 134     -29.766 132.051   9.815  1.00 40.75     0.159 C 
ENDROOT
BRANCH   9  10
ATOM     10  CB  VAL A 134     -30.864 132.765   9.009  1.00 40.76     0.029 C 
ATOM     11  CG1 VAL A 134     -31.169 132.006   7.726  1.00 41.76     0.002 C 
ATOM     12  CG2 VAL A 134     -32.127 132.962   9.833  1.00 40.56     0.002 C 
ENDBRANCH   9  10
END_RES VAL A 134
BEGIN_RES TYR A 338
REMARK  3 active torsions:
REMARK  status: ('A' for Active; 'I' for Inactive)
REMARK    4  A    between atoms: CA   and  CB  
REMARK    5  A    between atoms: CB   and  CG  
REMARK    6  A    between atoms: CZ   and  OH  
ROOT
ATOM     13  CA  TYR A 338     -41.631 124.950   6.058  1.00 38.23     0.164 C 
ENDROOT
BRANCH  13  14
ATOM     14  CB  TYR A 338     -41.621 126.456   6.339  1.00 39.15     0.058 C 
BRANCH  14  15
ATOM     15  CG  TYR A 338     -40.426 127.214   5.809  1.00 39.03    -0.020 A 
ATOM     16  CD2 TYR A 338     -40.249 128.551   6.122  1.00 40.65    -0.002 A 
ATOM     17  CE2 TYR A 338     -39.173 129.282   5.641  1.00 40.91     0.024 A 
ATOM     18  CZ  TYR A 338     -38.242 128.672   4.822  1.00 42.33     0.089 A 
ATOM     19  CE1 TYR A 338     -38.394 127.335   4.499  1.00 40.63     0.024 A 
ATOM     20  CD1 TYR A 338     -39.484 126.626   4.980  1.00 39.27    -0.002 A 
BRANCH  18  21
ATOM     21  OH  TYR A 338     -37.174 129.381   4.346  1.00 43.36    -0.359 OA
ATOM     22  HH  TYR A 338     -36.518 129.721   4.943  1.00  0.00     0.217 HD
ENDBRANCH  18  21
ENDBRANCH  14  15
ENDBRANCH  13  14
END_RES TYR A 338
ENDMDL
