MODEL 1
REMARK VINA RESULT:   -11.825      0.000      0.000
REMARK INTER + INTRA:         -14.100
REMARK INTER:                 -11.825
REMARK INTRA:                  -2.276
REMARK UNBOUND:                -2.276
REMARK  0 active torsions:
REMARK  status: ('A' for Active; 'I' for Inactive)
REMARK       I    between atoms: C3_3  and  O3_21 
REMARK       I    between atoms: C6_6  and  C7_7 
REMARK       I    between atoms: C8_8  and  C9_9 
REMARK       I    between atoms: C10_10  and  C11_11 
REMARK       I    between atoms: C12_12  and  C13_13 
REMARK       I    between atoms: C14_14  and  C15_15 
REMARK       I    between atoms: C23_25  and  O23_43 
REMARK       I    between atoms: C26_28  and  C27_29 
REMARK       I    between atoms: C28_30  and  C29_31 
REMARK       I    between atoms: C30_32  and  C31_33 
REMARK       I    between atoms: C32_34  and  C33_35 
REMARK       I    between atoms: C34_36  and  C35_37 
ROOT
HETATM    1  C1  8UH 6 317     -48.192 145.724  12.719  1.00 89.78    -0.018 C 
HETATM    2  C2  8UH 6 317     -48.621 146.207  14.109  1.00 90.48     0.045 C 
HETATM    3  C3  8UH 6 317     -47.624 147.055  14.891  1.00 89.65     0.123 C 
HETATM    4  C4  8UH 6 317     -46.848 147.965  13.962  1.00 88.26     0.066 C 
HETATM    5  C5  8UH 6 317     -46.132 147.099  12.966  1.00 86.93    -0.074 C 
HETATM    6  C6  8UH 6 317     -46.791 146.143  12.320  1.00 87.83    -0.048 C 
HETATM    7  C7  8UH 6 317     -46.132 145.458  11.187  1.00 88.05     0.009 C 
HETATM    8  C8  8UH 6 317     -45.259 144.479  11.422  1.00 88.38     0.007 C 
HETATM    9  C9  8UH 6 317     -44.575 143.768  10.327  1.00 88.50    -0.062 C 
HETATM   10  C10 8UH 6 317     -43.717 142.792  10.648  1.00 89.92     0.007 C 
HETATM   11  C11 8UH 6 317     -42.978 142.005   9.665  1.00 90.53     0.001 C 
HETATM   12  C12 8UH 6 317     -42.187 141.046  10.142  1.00 91.02     0.007 C 
HETATM   13  C13 8UH 6 317     -41.384 140.158   9.281  1.00 91.35    -0.062 C 
HETATM   14  C14 8UH 6 317     -40.836 139.072   9.845  1.00 92.63     0.007 C 
HETATM   15  C15 8UH 6 317     -40.037 138.100   9.107  1.00 93.76     0.001 C 
HETATM   16  C16 8UH 6 317     -49.177 146.265  11.691  1.00 89.80     0.020 C 
HETATM   17  C17 8UH 6 317     -48.251 144.203  12.695  1.00 89.92     0.020 C 
HETATM   18  C18 8UH 6 317     -44.864 147.676  12.411  1.00 86.44     0.044 C 
HETATM   19  C19 8UH 6 317     -44.835 144.133   8.895  1.00 87.10     0.048 C 
HETATM   20  C20 8UH 6 317     -41.188 140.468   7.827  1.00 90.38     0.048 C 
HETATM   21  O3  8UH 6 317     -48.322 147.869  15.842  1.00 90.37    -0.395 OA
ATOM     22  H3  8UH 6 317     -48.808 147.298  16.425  1.00  0.00     0.210 HD
HETATM   23  C21 8UH 6 317     -34.407 127.059   6.531  1.00 71.39    -0.018 C 
HETATM   24  C22 8UH 6 317     -34.106 126.570   5.119  1.00 71.39     0.045 C 
HETATM   25  C23 8UH 6 317     -32.961 127.230   4.361  1.00 71.39     0.123 C 
HETATM   26  C24 8UH 6 317     -31.889 127.735   5.303  1.00 71.39     0.066 C 
HETATM   27  C25 8UH 6 317     -32.560 128.667   6.266  1.00 71.39    -0.074 C 
HETATM   28  C26 8UH 6 317     -33.653 128.306   6.934  1.00 71.39    -0.048 C 
HETATM   29  C27 8UH 6 317     -34.174 129.093   8.087  1.00 71.39     0.009 C 
HETATM   30  C28 8UH 6 317     -34.943 130.167   7.906  1.00 71.39     0.007 C 
HETATM   31  C29 8UH 6 317     -35.515 130.973   8.994  1.00 90.37    -0.062 C 
HETATM   32  C30 8UH 6 317     -36.357 131.954   8.650  1.00 97.58     0.007 C 
HETATM   33  C31 8UH 6 317     -37.028 132.842   9.593  1.00 95.39     0.001 C 
HETATM   34  C32 8UH 6 317     -37.654 133.873   9.034  1.00 92.75     0.007 C 
HETATM   35  C33 8UH 6 317     -38.417 134.896   9.767  1.00 90.45    -0.062 C 
HETATM   36  C34 8UH 6 317     -38.819 135.993   9.103  1.00 98.23     0.007 C 
HETATM   37  C35 8UH 6 317     -39.603 137.029   9.768  1.00 96.59     0.001 C 
HETATM   38  C36 8UH 6 317     -34.134 125.915   7.500  1.00 71.39     0.020 C 
HETATM   39  C37 8UH 6 317     -35.884 127.388   6.605  1.00 71.39     0.020 C 
HETATM   40  C38 8UH 6 317     -31.608 129.690   6.783  1.00 71.39     0.044 C 
HETATM   41  C39 8UH 6 317     -35.171 130.701  10.429  1.00 90.75     0.048 C 
HETATM   42  C40 8UH 6 317     -38.752 134.701  11.215  1.00 90.73     0.048 C 
HETATM   43  O23 8UH 6 317     -32.359 126.263   3.493  1.00 71.39    -0.395 OA
ATOM     44  H23 8UH 6 317     -31.644 126.675   3.021  1.00  0.00     0.210 HD
ENDROOT
TORSDOF 12
BEGIN_RES PHE A  61
REMARK  2 active torsions:
REMARK  status: ('A' for Active; 'I' for Inactive)
REMARK    1  A    between atoms: CA   and  CB  
REMARK    2  A    between atoms: CB   and  CG  
ROOT
ATOM      1  CA  PHE A  61     -36.237 128.293  12.768  1.00 39.40     0.164 C 
ENDROOT
BRANCH   1   2
ATOM      2  CB  PHE A  61     -36.813 128.951  11.509  1.00 39.41     0.058 C 
BRANCH   2   3
ATOM      3  CG  PHE A  61     -37.091 127.993  10.376  1.00 39.01    -0.020 A 
ATOM      4  CD2 PHE A  61     -36.375 126.813  10.250  1.00 40.32    -0.004 A 
ATOM      5  CE2 PHE A  61     -36.629 125.933   9.205  1.00 40.20    -0.000 A 
ATOM      6  CZ  PHE A  61     -37.604 126.222   8.276  1.00 40.34    -0.000 A 
ATOM      7  CE1 PHE A  61     -38.325 127.390   8.388  1.00 41.51    -0.000 A 
ATOM      8  CD1 PHE A  61     -38.067 128.272   9.429  1.00 39.94    -0.004 A 
ENDBRANCH   2   3
ENDBRANCH   1   2
END_RES PHE A  61
BEGIN_RES VAL A 134
REMARK  1 active torsions:
REMARK  status: ('A' for Active; 'I' for Inactive)
REMARK    3  A    between atoms: CA   and  CB  
ROOT
ATOM      9  CA  VAL A 134     -29.766 132.051   9.815  1.00 40.75     0.159 C 
ENDROOT
BRANCH   9  10
ATOM     10  CB  VAL A 134     -30.864 132.765   9.009  1.00 40.76     0.029 C 
ATOM     11  CG1 VAL A 134     -30.851 132.306   7.558  1.00 41.76     0.002 C 
ATOM     12  CG2 VAL A 134     -32.238 132.560   9.628  1.00 40.56     0.002 C 
ENDBRANCH   9  10
END_RES VAL A 134
BEGIN_RES TYR A 338
REMARK  3 active torsions:
REMARK  status: ('A' for Active; 'I' for Inactive)
REMARK    4  A    between atoms: CA   and  CB  
REMARK    5  A    between atoms: CB   and  CG  
REMARK    6  A    between atoms: CZ   and  OH  
ROOT
ATOM     13  CA  TYR A 338     -41.631 124.950   6.058  1.00 38.23     0.164 C 
ENDROOT
BRANCH  13  14
ATOM     14  CB  TYR A 338     -41.621 126.456   6.339  1.00 39.15     0.058 C 
BRANCH  14  15
ATOM     15  CG  TYR A 338     -40.413 127.210   5.832  1.00 39.03    -0.020 A 
ATOM     16  CD2 TYR A 338     -40.243 128.549   6.139  1.00 40.65    -0.002 A 
ATOM     17  CE2 TYR A 338     -39.156 129.276   5.678  1.00 40.91     0.024 A 
ATOM     18  CZ  TYR A 338     -38.206 128.660   4.886  1.00 42.33     0.089 A 
ATOM     19  CE1 TYR A 338     -38.351 127.321   4.569  1.00 40.63     0.024 A 
ATOM     20  CD1 TYR A 338     -39.452 126.615   5.029  1.00 39.27    -0.002 A 
BRANCH  18  21
ATOM     21  OH  TYR A 338     -37.127 129.365   4.429  1.00 43.36    -0.359 OA
ATOM     22  HH  TYR A 338     -36.396 129.551   5.006  1.00  0.00     0.217 HD
ENDBRANCH  18  21
ENDBRANCH  14  15
ENDBRANCH  13  14
END_RES TYR A 338
ENDMDL
MODEL 2
REMARK VINA RESULT:    -9.763      0.989     16.793
REMARK INTER + INTRA:         -12.039
REMARK INTER:                  -9.671
REMARK INTRA:                  -2.367
REMARK UNBOUND:                -2.276
REMARK  0 active torsions:
REMARK  status: ('A' for Active; 'I' for Inactive)
REMARK       I    between atoms: C3_3  and  O3_21 
REMARK       I    between atoms: C6_6  and  C7_7 
REMARK       I    between atoms: C8_8  and  C9_9 
REMARK       I    between atoms: C10_10  and  C11_11 
REMARK       I    between atoms: C12_12  and  C13_13 
REMARK       I    between atoms: C14_14  and  C15_15 
REMARK       I    between atoms: C23_25  and  O23_43 
REMARK       I    between atoms: C26_28  and  C27_29 
REMARK       I    between atoms: C28_30  and  C29_31 
REMARK       I    between atoms: C30_32  and  C31_33 
REMARK       I    between atoms: C32_34  and  C33_35 
REMARK       I    between atoms: C34_36  and  C35_37 
ROOT
HETATM    1  C1  8UH 6 317     -34.309 127.115   6.600  1.00 89.78    -0.018 C 
HETATM    2  C2  8UH 6 317     -33.806 126.594   5.250  1.00 90.48     0.045 C 
HETATM    3  C3  8UH 6 317     -32.655 127.352   4.596  1.00 89.65     0.123 C 
HETATM    4  C4  8UH 6 317     -31.683 127.858   5.642  1.00 88.26     0.066 C 
HETATM    5  C5  8UH 6 317     -32.441 128.758   6.574  1.00 86.93    -0.074 C 
HETATM    6  C6  8UH 6 317     -33.596 128.357   7.095  1.00 87.83    -0.048 C 
HETATM    7  C7  8UH 6 317     -34.209 129.154   8.179  1.00 88.05     0.009 C 
HETATM    8  C8  8UH 6 317     -34.905 130.251   7.882  1.00 88.38     0.007 C 
HETATM    9  C9  8UH 6 317     -35.534 131.079   8.928  1.00 88.50    -0.062 C 
HETATM   10  C10 8UH 6 317     -36.220 132.162   8.545  1.00 89.92     0.007 C 
HETATM   11  C11 8UH 6 317     -36.896 133.065   9.473  1.00 90.53     0.001 C 
HETATM   12  C12 8UH 6 317     -37.568 134.080   8.935  1.00 91.02     0.007 C 
HETATM   13  C13 8UH 6 317     -38.311 135.071   9.734  1.00 91.35    -0.062 C 
HETATM   14  C14 8UH 6 317     -39.157 135.886   9.087  1.00 92.63     0.007 C 
HETATM   15  C15 8UH 6 317     -39.968 136.897   9.756  1.00 93.76     0.001 C 
HETATM   16  C16 8UH 6 317     -34.148 126.010   7.638  1.00 89.80     0.020 C 
HETATM   17  C17 8UH 6 317     -35.791 127.445   6.471  1.00 89.92     0.020 C 
HETATM   18  C18 8UH 6 317     -31.625 129.830   7.234  1.00 86.44     0.044 C 
HETATM   19  C19 8UH 6 317     -35.401 130.716  10.378  1.00 87.10     0.048 C 
HETATM   20  C20 8UH 6 317     -38.118 135.163  11.219  1.00 90.38     0.048 C 
HETATM   21  O3  8UH 6 317     -31.947 126.482   3.704  1.00 90.37    -0.395 OA
ATOM     22  H3  8UH 6 317     -32.556 126.166   3.048  1.00  0.00     0.210 HD
HETATM   23  C21 8UH 6 317     -49.440 145.124  11.439  1.00 71.39    -0.018 C 
HETATM   24  C22 8UH 6 317     -49.985 145.521  12.806  1.00 71.39     0.045 C 
HETATM   25  C23 8UH 6 317     -49.142 146.451  13.671  1.00 71.39     0.123 C 
HETATM   26  C24 8UH 6 317     -48.286 147.370  12.827  1.00 71.39     0.066 C 
HETATM   27  C25 8UH 6 317     -47.456 146.496  11.937  1.00 71.39    -0.074 C 
HETATM   28  C26 8UH 6 317     -48.008 145.541  11.192  1.00 71.39    -0.048 C 
HETATM   29  C27 8UH 6 317     -47.260 144.851  10.105  1.00 71.39     0.009 C 
HETATM   30  C28 8UH 6 317     -46.440 143.831  10.360  1.00 71.39     0.007 C 
HETATM   31  C29 8UH 6 317     -45.693 143.087   9.337  1.00 90.37    -0.062 C 
HETATM   32  C30 8UH 6 317     -44.999 142.017   9.743  1.00 97.58     0.007 C 
HETATM   33  C31 8UH 6 317     -44.214 141.154   8.868  1.00 95.39     0.001 C 
HETATM   34  C32 8UH 6 317     -43.440 140.279   9.501  1.00 92.75     0.007 C 
HETATM   35  C33 8UH 6 317     -42.570 139.290   8.845  1.00 90.45    -0.062 C 
HETATM   36  C34 8UH 6 317     -41.688 138.612   9.598  1.00 98.23     0.007 C 
HETATM   37  C35 8UH 6 317     -40.819 137.599   9.008  1.00 96.59     0.001 C 
HETATM   38  C36 8UH 6 317     -50.369 145.693  10.372  1.00 71.39     0.020 C 
HETATM   39  C37 8UH 6 317     -49.489 143.614  11.340  1.00 71.39     0.020 C 
HETATM   40  C38 8UH 6 317     -46.177 147.162  11.562  1.00 71.39     0.044 C 
HETATM   41  C39 8UH 6 317     -45.715 143.507   7.896  1.00 90.75     0.048 C 
HETATM   42  C40 8UH 6 317     -42.689 139.034   7.372  1.00 90.73     0.048 C 
HETATM   43  O23 8UH 6 317     -50.012 147.268  14.461  1.00 71.39    -0.395 OA
ATOM     44  H23 8UH 6 317     -49.486 147.848  15.000  1.00  0.00     0.210 HD
ENDROOT
TORSDOF 12
BEGIN_RES PHE A  61
REMARK  2 active torsions:
REMARK  status: ('A' for Active; 'I' for Inactive)
REMARK    1  A    between atoms: CA   and  CB  
REMARK    2  A    between atoms: CB   and  CG  
ROOT
ATOM      1  CA  PHE A  61     -36.237 128.293  12.768  1.00 39.40     0.164 C 
ENDROOT
BRANCH   1   2
ATOM      2  CB  PHE A  61     -36.813 128.951  11.509  1.00 39.41     0.058 C 
BRANCH   2   3
ATOM      3  CG  PHE A  61     -37.081 127.994  10.372  1.00 39.01    -0.020 A 
ATOM      4  CD2 PHE A  61     -36.366 126.813  10.252  1.00 40.32    -0.004 A 
ATOM      5  CE2 PHE A  61     -36.611 125.935   9.204  1.00 40.20    -0.000 A 
ATOM      6  CZ  PHE A  61     -37.575 126.227   8.266  1.00 40.34    -0.000 A 
ATOM      7  CE1 PHE A  61     -38.295 127.396   8.371  1.00 41.51    -0.000 A 
ATOM      8  CD1 PHE A  61     -38.046 128.277   9.416  1.00 39.94    -0.004 A 
ENDBRANCH   2   3
ENDBRANCH   1   2
END_RES PHE A  61
BEGIN_RES VAL A 134
REMARK  1 active torsions:
REMARK  status: ('A' for Active; 'I' for Inactive)
REMARK    3  A    between atoms: CA   and  CB  
ROOT
ATOM      9  CA  VAL A 134     -29.766 132.051   9.815  1.00 40.75     0.159 C 
ENDROOT
BRANCH   9  10
ATOM     10  CB  VAL A 134     -30.864 132.765   9.009  1.00 40.76     0.029 C 
ATOM     11  CG1 VAL A 134     -30.851 132.307   7.558  1.00 41.76     0.002 C 
ATOM     12  CG2 VAL A 134     -32.238 132.559   9.628  1.00 40.56     0.002 C 
ENDBRANCH   9  10
END_RES VAL A 134
BEGIN_RES TYR A 338
REMARK  3 active torsions:
REMARK  status: ('A' for Active; 'I' for Inactive)
REMARK    4  A    between atoms: CA   and  CB  
REMARK    5  A    between atoms: CB   and  CG  
REMARK    6  A    between atoms: CZ   and  OH  
ROOT
ATOM     13  CA  TYR A 338     -41.631 124.950   6.058  1.00 38.23     0.164 C 
ENDROOT
BRANCH  13  14
ATOM     14  CB  TYR A 338     -41.621 126.456   6.339  1.00 39.15     0.058 C 
BRANCH  14  15
ATOM     15  CG  TYR A 338     -40.416 127.211   5.826  1.00 39.03    -0.020 A 
ATOM     16  CD2 TYR A 338     -40.249 128.552   6.127  1.00 40.65    -0.002 A 
ATOM     17  CE2 TYR A 338     -39.165 129.279   5.661  1.00 40.91     0.024 A 
ATOM     18  CZ  TYR A 338     -38.215 128.663   4.869  1.00 42.33     0.089 A 
ATOM     19  CE1 TYR A 338     -38.357 127.322   4.558  1.00 40.63     0.024 A 
ATOM     20  CD1 TYR A 338     -39.456 126.616   5.024  1.00 39.27    -0.002 A 
BRANCH  18  21
ATOM     21  OH  TYR A 338     -37.139 129.369   4.407  1.00 43.36    -0.359 OA
ATOM     22  HH  TYR A 338     -36.721 130.021   4.957  1.00  0.00     0.217 HD
ENDBRANCH  18  21
ENDBRANCH  14  15
ENDBRANCH  13  14
END_RES TYR A 338
ENDMDL
