MODEL 1
REMARK VINA RESULT:   -10.258      0.000      0.000
REMARK INTER + INTRA:         -11.301
REMARK INTER:                 -10.258
REMARK INTRA:                  -1.044
REMARK UNBOUND:                -1.044
REMARK  0 active torsions:
REMARK  status: ('A' for Active; 'I' for Inactive)
REMARK       I    between atoms: C3_3  and  O3_21 
REMARK       I    between atoms: C6_6  and  C7_7 
REMARK       I    between atoms: C8_8  and  C9_9 
REMARK       I    between atoms: C10_10  and  C11_11 
REMARK       I    between atoms: C12_12  and  C13_13 
REMARK       I    between atoms: C14_14  and  C15_15 
REMARK       I    between atoms: C23_25  and  O23_43 
REMARK       I    between atoms: C26_28  and  C27_29 
REMARK       I    between atoms: C28_30  and  C29_31 
REMARK       I    between atoms: C30_32  and  C31_33 
REMARK       I    between atoms: C32_34  and  C33_35 
REMARK       I    between atoms: C34_36  and  C35_37 
ROOT
HETATM    1  C1  8UH D3621     -49.397 146.784  11.593  1.00 23.41    -0.018 C 
HETATM    2  C2  8UH D3621     -50.451 147.290  12.593  1.00 23.79     0.045 C 
HETATM    3  C3  8UH D3621     -50.025 148.005  13.872  1.00 23.28     0.123 C 
HETATM    4  C4  8UH D3621     -48.599 148.577  13.826  1.00 23.70     0.066 C 
HETATM    5  C5  8UH D3621     -47.599 148.073  12.825  1.00 23.84    -0.074 C 
HETATM    6  C6  8UH D3621     -47.921 147.244  11.769  1.00 22.99    -0.048 C 
HETATM    7  C7  8UH D3621     -46.953 146.740  10.758  1.00 20.55     0.009 C 
HETATM    8  C8  8UH D3621     -46.126 145.688  10.940  1.00 19.35     0.007 C 
HETATM    9  C9  8UH D3621     -45.099 145.131  10.057  1.00 18.45    -0.062 C 
HETATM   10  C10 8UH D3621     -44.506 143.981  10.445  1.00 18.11     0.007 C 
HETATM   11  C11 8UH D3621     -43.546 143.212   9.705  1.00 18.44     0.001 C 
HETATM   12  C12 8UH D3621     -43.071 142.026  10.150  1.00 19.34     0.007 C 
HETATM   13  C13 8UH D3621     -42.166 141.123   9.414  1.00 20.12    -0.062 C 
HETATM   14  C14 8UH D3621     -41.808 139.953   9.995  1.00 19.73     0.007 C 
HETATM   15  C15 8UH D3621     -40.972 138.899   9.426  1.00 19.24     0.001 C 
HETATM   16  C16 8UH D3621     -49.966 147.293  10.264  1.00 23.73     0.020 C 
HETATM   17  C17 8UH D3621     -49.470 145.252  11.583  1.00 23.42     0.020 C 
HETATM   18  C18 8UH D3621     -46.263 148.636  13.145  1.00 22.78     0.044 C 
HETATM   19  C19 8UH D3621     -44.835 145.830   8.759  1.00 16.12     0.048 C 
HETATM   20  C20 8UH D3621     -41.723 141.565   8.047  1.00 17.75     0.048 C 
HETATM   21  O3  8UH D3621     -50.962 149.023  14.199  1.00 21.52    -0.395 OA
ATOM     22  H3  8UH D3621     -51.843 148.669  14.228  1.00  0.00     0.210 HD
HETATM   23  C21 8UH D3621     -34.016 128.248   6.886  1.00 87.69    -0.018 C 
HETATM   24  C22 8UH D3621     -33.435 127.879   5.535  1.00 87.69     0.045 C 
HETATM   25  C23 8UH D3621     -31.960 128.201   5.314  1.00 87.69     0.123 C 
HETATM   26  C24 8UH D3621     -31.432 129.397   6.093  1.00 87.69     0.066 C 
HETATM   27  C25 8UH D3621     -32.516 130.201   6.765  1.00 87.69    -0.074 C 
HETATM   28  C26 8UH D3621     -33.569 129.615   7.329  1.00 87.69    -0.048 C 
HETATM   29  C27 8UH D3621     -34.306 130.272   8.432  1.00 87.69     0.009 C 
HETATM   30  C28 8UH D3621     -35.227 131.197   8.182  1.00 87.69     0.007 C 
HETATM   31  C29 8UH D3621     -36.026 131.886   9.246  1.00 21.21    -0.062 C 
HETATM   32  C30 8UH D3621     -36.896 132.850   8.859  1.00 20.08     0.007 C 
HETATM   33  C31 8UH D3621     -37.742 133.636   9.728  1.00 17.89     0.001 C 
HETATM   34  C32 8UH D3621     -38.431 134.723   9.303  1.00 17.64     0.007 C 
HETATM   35  C33 8UH D3621     -39.284 135.639  10.100  1.00 17.45    -0.062 C 
HETATM   36  C34 8UH D3621     -39.784 136.738   9.486  1.00 15.95     0.007 C 
HETATM   37  C35 8UH D3621     -40.599 137.785  10.083  1.00 18.41     0.001 C 
HETATM   38  C36 8UH D3621     -33.679 127.188   7.930  1.00 87.69     0.020 C 
HETATM   39  C37 8UH D3621     -35.519 128.294   6.727  1.00 87.69     0.020 C 
HETATM   40  C38 8UH D3621     -31.727 131.246   7.491  1.00 87.69     0.044 C 
HETATM   41  C39 8UH D3621     -35.755 131.532  10.684  1.00 22.05     0.048 C 
HETATM   42  C40 8UH D3621     -39.472 135.321  11.563  1.00 11.49     0.048 C 
HETATM   43  O23 8UH D3621     -31.215 127.051   5.710  1.00 87.69    -0.395 OA
ATOM     44  H23 8UH D3621     -30.297 127.251   5.573  1.00  0.00     0.210 HD
ENDROOT
TORSDOF 12
BEGIN_RES PHE A  61
REMARK  2 active torsions:
REMARK  status: ('A' for Active; 'I' for Inactive)
REMARK    1  A    between atoms: CA   and  CB  
REMARK    2  A    between atoms: CB   and  CG  
ROOT
ATOM      1  CA  PHE A  61     -36.237 128.293  12.768  1.00 39.40     0.164 C 
ENDROOT
BRANCH   1   2
ATOM      2  CB  PHE A  61     -36.813 128.951  11.509  1.00 39.41     0.058 C 
BRANCH   2   3
ATOM      3  CG  PHE A  61     -36.986 128.013  10.338  1.00 39.01    -0.020 A 
ATOM      4  CD2 PHE A  61     -36.164 126.908  10.184  1.00 40.32    -0.004 A 
ATOM      5  CE2 PHE A  61     -36.323 126.048   9.105  1.00 40.20    -0.000 A 
ATOM      6  CZ  PHE A  61     -37.307 126.280   8.171  1.00 40.34    -0.000 A 
ATOM      7  CE1 PHE A  61     -38.133 127.373   8.311  1.00 41.51    -0.000 A 
ATOM      8  CD1 PHE A  61     -37.971 128.237   9.386  1.00 39.94    -0.004 A 
ENDBRANCH   2   3
ENDBRANCH   1   2
END_RES PHE A  61
BEGIN_RES VAL A 134
REMARK  1 active torsions:
REMARK  status: ('A' for Active; 'I' for Inactive)
REMARK    3  A    between atoms: CA   and  CB  
ROOT
ATOM      9  CA  VAL A 134     -29.766 132.051   9.815  1.00 40.75     0.159 C 
ENDROOT
BRANCH   9  10
ATOM     10  CB  VAL A 134     -30.864 132.765   9.009  1.00 40.76     0.029 C 
ATOM     11  CG1 VAL A 134     -32.119 132.945   9.851  1.00 41.76     0.002 C 
ATOM     12  CG2 VAL A 134     -30.382 134.101   8.465  1.00 40.56     0.002 C 
ENDBRANCH   9  10
END_RES VAL A 134
BEGIN_RES TYR A 338
REMARK  3 active torsions:
REMARK  status: ('A' for Active; 'I' for Inactive)
REMARK    4  A    between atoms: CA   and  CB  
REMARK    5  A    between atoms: CB   and  CG  
REMARK    6  A    between atoms: CZ   and  OH  
ROOT
ATOM     13  CA  TYR A 338     -41.631 124.950   6.058  1.00 38.23     0.164 C 
ENDROOT
BRANCH  13  14
ATOM     14  CB  TYR A 338     -41.621 126.456   6.339  1.00 39.15     0.058 C 
BRANCH  14  15
ATOM     15  CG  TYR A 338     -40.413 127.210   5.832  1.00 39.03    -0.020 A 
ATOM     16  CD2 TYR A 338     -40.257 128.556   6.116  1.00 40.65    -0.002 A 
ATOM     17  CE2 TYR A 338     -39.171 129.282   5.654  1.00 40.91     0.024 A 
ATOM     18  CZ  TYR A 338     -38.206 128.659   4.885  1.00 42.33     0.089 A 
ATOM     19  CE1 TYR A 338     -38.337 127.313   4.592  1.00 40.63     0.024 A 
ATOM     20  CD1 TYR A 338     -39.438 126.608   5.052  1.00 39.27    -0.002 A 
BRANCH  18  21
ATOM     21  OH  TYR A 338     -37.127 129.364   4.428  1.00 43.36    -0.359 OA
ATOM     22  HH  TYR A 338     -36.613 129.896   5.025  1.00  0.00     0.217 HD
ENDBRANCH  18  21
ENDBRANCH  14  15
ENDBRANCH  13  14
END_RES TYR A 338
ENDMDL
MODEL 2
REMARK VINA RESULT:    -9.328      1.335     17.209
REMARK INTER + INTRA:         -10.372
REMARK INTER:                  -7.150
REMARK INTRA:                  -3.222
REMARK UNBOUND:                -1.044
REMARK  0 active torsions:
REMARK  status: ('A' for Active; 'I' for Inactive)
REMARK       I    between atoms: C3_3  and  O3_21 
REMARK       I    between atoms: C6_6  and  C7_7 
REMARK       I    between atoms: C8_8  and  C9_9 
REMARK       I    between atoms: C10_10  and  C11_11 
REMARK       I    between atoms: C12_12  and  C13_13 
REMARK       I    between atoms: C14_14  and  C15_15 
REMARK       I    between atoms: C23_25  and  O23_43 
REMARK       I    between atoms: C26_28  and  C27_29 
REMARK       I    between atoms: C28_30  and  C29_31 
REMARK       I    between atoms: C30_32  and  C31_33 
REMARK       I    between atoms: C32_34  and  C33_35 
REMARK       I    between atoms: C34_36  and  C35_37 
ROOT
HETATM    1  C1  8UH D3621     -34.597 127.236   6.015  1.00 23.41    -0.018 C 
HETATM    2  C2  8UH D3621     -34.109 126.485   4.763  1.00 23.79     0.045 C 
HETATM    3  C3  8UH D3621     -32.873 126.963   4.007  1.00 23.28     0.123 C 
HETATM    4  C4  8UH D3621     -31.946 127.872   4.829  1.00 23.70     0.066 C 
HETATM    5  C5  8UH D3621     -32.449 128.577   6.057  1.00 23.84    -0.074 C 
HETATM    6  C6  8UH D3621     -33.669 128.313   6.647  1.00 22.99    -0.048 C 
HETATM    7  C7  8UH D3621     -34.186 128.987   7.868  1.00 20.55     0.009 C 
HETATM    8  C8  8UH D3621     -34.778 130.200   7.887  1.00 19.35     0.007 C 
HETATM    9  C9  8UH D3621     -35.275 130.992   9.014  1.00 18.45    -0.062 C 
HETATM   10  C10 8UH D3621     -35.949 132.127   8.727  1.00 18.11     0.007 C 
HETATM   11  C11 8UH D3621     -36.598 133.005   9.658  1.00 18.44     0.001 C 
HETATM   12  C12 8UH D3621     -37.319 134.078   9.257  1.00 19.34     0.007 C 
HETATM   13  C13 8UH D3621     -38.101 134.973  10.132  1.00 20.12    -0.062 C 
HETATM   14  C14 8UH D3621     -38.794 135.988   9.564  1.00 19.73     0.007 C 
HETATM   15  C15 8UH D3621     -39.666 136.950  10.232  1.00 19.24     0.001 C 
HETATM   16  C16 8UH D3621     -34.828 126.080   6.995  1.00 23.73     0.020 C 
HETATM   17  C17 8UH D3621     -35.961 127.852   5.680  1.00 23.42     0.020 C 
HETATM   18  C18 8UH D3621     -31.421 129.543   6.520  1.00 22.78     0.044 C 
HETATM   19  C19 8UH D3621     -35.068 130.451  10.396  1.00 16.12     0.048 C 
HETATM   20  C20 8UH D3621     -38.088 134.670  11.605  1.00 17.75     0.048 C 
HETATM   21  O3  8UH D3621     -32.154 125.850   3.492  1.00 21.52    -0.395 OA
ATOM     22  H3  8UH D3621     -32.727 125.288   2.983  1.00  0.00     0.210 HD
HETATM   23  C21 8UH D3621     -47.748 146.548  13.524  1.00 87.69    -0.018 C 
HETATM   24  C22 8UH D3621     -48.395 146.725  14.884  1.00 87.69     0.045 C 
HETATM   25  C23 8UH D3621     -47.737 147.726  15.829  1.00 87.69     0.123 C 
HETATM   26  C24 8UH D3621     -46.237 147.900  15.647  1.00 87.69     0.066 C 
HETATM   27  C25 8UH D3621     -45.620 146.880  14.725  1.00 87.69    -0.074 C 
HETATM   28  C26 8UH D3621     -46.250 146.465  13.628  1.00 87.69    -0.048 C 
HETATM   29  C27 8UH D3621     -45.493 145.945  12.467  1.00 87.69     0.009 C 
HETATM   30  C28 8UH D3621     -45.066 144.687  12.437  1.00 87.69     0.007 C 
HETATM   31  C29 8UH D3621     -44.315 144.088  11.287  1.00 21.21    -0.062 C 
HETATM   32  C30 8UH D3621     -43.890 142.808  11.407  1.00 20.08     0.007 C 
HETATM   33  C31 8UH D3621     -43.142 142.060  10.423  1.00 17.89     0.001 C 
HETATM   34  C32 8UH D3621     -42.566 140.861  10.684  1.00 17.64     0.007 C 
HETATM   35  C33 8UH D3621     -41.734 140.025   9.784  1.00 17.45    -0.062 C 
HETATM   36  C34 8UH D3621     -41.160 138.912  10.301  1.00 15.95     0.007 C 
HETATM   37  C35 8UH D3621     -40.277 137.980   9.617  1.00 18.41     0.001 C 
HETATM   38  C36 8UH D3621     -48.179 147.658  12.570  1.00 87.69     0.020 C 
HETATM   39  C37 8UH D3621     -48.237 145.230  12.966  1.00 87.69     0.020 C 
HETATM   40  C38 8UH D3621     -44.190 147.320  14.680  1.00 87.69     0.044 C 
HETATM   41  C39 8UH D3621     -44.001 144.967  10.105  1.00 22.05     0.048 C 
HETATM   42  C40 8UH D3621     -41.523 140.516   8.373  1.00 11.49     0.048 C 
HETATM   43  O23 8UH D3621     -48.361 148.988  15.605  1.00 87.69    -0.395 OA
ATOM     44  H23 8UH D3621     -47.951 149.612  16.193  1.00  0.00     0.210 HD
ENDROOT
TORSDOF 12
BEGIN_RES PHE A  61
REMARK  2 active torsions:
REMARK  status: ('A' for Active; 'I' for Inactive)
REMARK    1  A    between atoms: CA   and  CB  
REMARK    2  A    between atoms: CB   and  CG  
ROOT
ATOM      1  CA  PHE A  61     -36.237 128.293  12.768  1.00 39.40     0.164 C 
ENDROOT
BRANCH   1   2
ATOM      2  CB  PHE A  61     -36.813 128.951  11.509  1.00 39.41     0.058 C 
BRANCH   2   3
ATOM      3  CG  PHE A  61     -37.005 128.009  10.345  1.00 39.01    -0.020 A 
ATOM      4  CD2 PHE A  61     -36.212 126.880  10.204  1.00 40.32    -0.004 A 
ATOM      5  CE2 PHE A  61     -36.388 126.016   9.131  1.00 40.20    -0.000 A 
ATOM      6  CZ  PHE A  61     -37.359 126.268   8.188  1.00 40.34    -0.000 A 
ATOM      7  CE1 PHE A  61     -38.156 127.384   8.315  1.00 41.51    -0.000 A 
ATOM      8  CD1 PHE A  61     -37.976 128.252   9.384  1.00 39.94    -0.004 A 
ENDBRANCH   2   3
ENDBRANCH   1   2
END_RES PHE A  61
BEGIN_RES VAL A 134
REMARK  1 active torsions:
REMARK  status: ('A' for Active; 'I' for Inactive)
REMARK    3  A    between atoms: CA   and  CB  
ROOT
ATOM      9  CA  VAL A 134     -29.766 132.051   9.815  1.00 40.75     0.159 C 
ENDROOT
BRANCH   9  10
ATOM     10  CB  VAL A 134     -30.864 132.765   9.009  1.00 40.76     0.029 C 
ATOM     11  CG1 VAL A 134     -31.133 132.034   7.702  1.00 41.76     0.002 C 
ATOM     12  CG2 VAL A 134     -32.144 132.917   9.817  1.00 40.56     0.002 C 
ENDBRANCH   9  10
END_RES VAL A 134
BEGIN_RES TYR A 338
REMARK  3 active torsions:
REMARK  status: ('A' for Active; 'I' for Inactive)
REMARK    4  A    between atoms: CA   and  CB  
REMARK    5  A    between atoms: CB   and  CG  
REMARK    6  A    between atoms: CZ   and  OH  
ROOT
ATOM     13  CA  TYR A 338     -41.631 124.950   6.058  1.00 38.23     0.164 C 
ENDROOT
BRANCH  13  14
ATOM     14  CB  TYR A 338     -41.621 126.456   6.339  1.00 39.15     0.058 C 
BRANCH  14  15
ATOM     15  CG  TYR A 338     -40.437 127.218   5.789  1.00 39.03    -0.020 A 
ATOM     16  CD2 TYR A 338     -40.262 128.557   6.095  1.00 40.65    -0.002 A 
ATOM     17  CE2 TYR A 338     -39.197 129.291   5.596  1.00 40.91     0.024 A 
ATOM     18  CZ  TYR A 338     -38.275 128.683   4.766  1.00 42.33     0.089 A 
ATOM     19  CE1 TYR A 338     -38.425 127.344   4.449  1.00 40.63     0.024 A 
ATOM     20  CD1 TYR A 338     -39.505 126.631   4.948  1.00 39.27    -0.002 A 
BRANCH  18  21
ATOM     21  OH  TYR A 338     -37.218 129.395   4.271  1.00 43.36    -0.359 OA
ATOM     22  HH  TYR A 338     -37.340 130.287   3.966  1.00  0.00     0.217 HD
ENDBRANCH  18  21
ENDBRANCH  14  15
ENDBRANCH  13  14
END_RES TYR A 338
ENDMDL
MODEL 3
REMARK VINA RESULT:    -9.050      1.396     17.210
REMARK INTER + INTRA:         -10.094
REMARK INTER:                  -9.636
REMARK INTRA:                  -0.458
REMARK UNBOUND:                -1.044
REMARK  0 active torsions:
REMARK  status: ('A' for Active; 'I' for Inactive)
REMARK       I    between atoms: C3_3  and  O3_21 
REMARK       I    between atoms: C6_6  and  C7_7 
REMARK       I    between atoms: C8_8  and  C9_9 
REMARK       I    between atoms: C10_10  and  C11_11 
REMARK       I    between atoms: C12_12  and  C13_13 
REMARK       I    between atoms: C14_14  and  C15_15 
REMARK       I    between atoms: C23_25  and  O23_43 
REMARK       I    between atoms: C26_28  and  C27_29 
REMARK       I    between atoms: C28_30  and  C29_31 
REMARK       I    between atoms: C30_32  and  C31_33 
REMARK       I    between atoms: C32_34  and  C33_35 
REMARK       I    between atoms: C34_36  and  C35_37 
ROOT
HETATM    1  C1  8UH D3621     -34.077 128.245   7.131  1.00 23.41    -0.018 C 
HETATM    2  C2  8UH D3621     -33.246 127.495   6.074  1.00 23.79     0.045 C 
HETATM    3  C3  8UH D3621     -31.973 128.115   5.507  1.00 23.28     0.123 C 
HETATM    4  C4  8UH D3621     -31.372 129.226   6.382  1.00 23.70     0.066 C 
HETATM    5  C5  8UH D3621     -32.205 129.927   7.417  1.00 23.84    -0.074 C 
HETATM    6  C6  8UH D3621     -33.463 129.507   7.802  1.00 22.99    -0.048 C 
HETATM    7  C7  8UH D3621     -34.303 130.175   8.832  1.00 20.55     0.009 C 
HETATM    8  C8  8UH D3621     -35.064 131.270   8.615  1.00 19.35     0.007 C 
HETATM    9  C9  8UH D3621     -35.884 132.049   9.545  1.00 18.45    -0.062 C 
HETATM   10  C10 8UH D3621     -36.653 133.029   9.022  1.00 18.11     0.007 C 
HETATM   11  C11 8UH D3621     -37.596 133.854   9.722  1.00 18.44     0.001 C 
HETATM   12  C12 8UH D3621     -38.378 134.757   9.087  1.00 19.34     0.007 C 
HETATM   13  C13 8UH D3621     -39.441 135.571   9.706  1.00 20.12    -0.062 C 
HETATM   14  C14 8UH D3621     -40.155 136.410   8.918  1.00 19.73     0.007 C 
HETATM   15  C15 8UH D3621     -41.275 137.259   9.313  1.00 19.24     0.001 C 
HETATM   16  C16 8UH D3621     -34.317 127.144   8.170  1.00 23.73     0.020 C 
HETATM   17  C17 8UH D3621     -35.426 128.596   6.492  1.00 23.42     0.020 C 
HETATM   18  C18 8UH D3621     -31.444 131.084   7.953  1.00 22.78     0.044 C 
HETATM   19  C19 8UH D3621     -35.872 131.657  10.990  1.00 16.12     0.048 C 
HETATM   20  C20 8UH D3621     -39.670 135.387  11.181  1.00 17.75     0.048 C 
HETATM   21  O3  8UH D3621     -31.008 127.103   5.251  1.00 21.52    -0.395 OA
ATOM     22  H3  8UH D3621     -31.379 126.416   4.710  1.00  0.00     0.210 HD
HETATM   23  C21 8UH D3621     -51.197 145.583  10.059  1.00 87.69    -0.018 C 
HETATM   24  C22 8UH D3621     -52.116 145.751  11.254  1.00 87.69     0.045 C 
HETATM   25  C23 8UH D3621     -51.814 146.916  12.190  1.00 87.69     0.123 C 
HETATM   26  C24 8UH D3621     -50.350 147.327  12.264  1.00 87.69     0.066 C 
HETATM   27  C25 8UH D3621     -49.419 146.358  11.581  1.00 87.69    -0.074 C 
HETATM   28  C26 8UH D3621     -49.753 145.761  10.439  1.00 87.69    -0.048 C 
HETATM   29  C27 8UH D3621     -48.714 145.289   9.495  1.00 87.69     0.009 C 
HETATM   30  C28 8UH D3621     -48.105 144.123   9.676  1.00 87.69     0.007 C 
HETATM   31  C29 8UH D3621     -47.063 143.574   8.751  1.00 21.21    -0.062 C 
HETATM   32  C30 8UH D3621     -46.481 142.395   9.080  1.00 20.08     0.007 C 
HETATM   33  C31 8UH D3621     -45.452 141.712   8.331  1.00 17.89     0.001 C 
HETATM   34  C32 8UH D3621     -44.764 140.650   8.818  1.00 17.64     0.007 C 
HETATM   35  C33 8UH D3621     -43.656 139.901   8.176  1.00 17.45    -0.062 C 
HETATM   36  C34 8UH D3621     -43.033 138.942   8.903  1.00 15.95     0.007 C 
HETATM   37  C35 8UH D3621     -41.903 138.123   8.492  1.00 18.41     0.001 C 
HETATM   38  C36 8UH D3621     -51.596 146.529   8.930  1.00 87.69     0.020 C 
HETATM   39  C37 8UH D3621     -51.363 144.163   9.565  1.00 87.69     0.020 C 
HETATM   40  C38 8UH D3621     -48.091 147.027  11.748  1.00 87.69     0.044 C 
HETATM   41  C39 8UH D3621     -46.661 144.401   7.558  1.00 22.05     0.048 C 
HETATM   42  C40 8UH D3621     -43.251 140.312   6.783  1.00 11.49     0.048 C 
HETATM   43  O23 8UH D3621     -52.564 148.035  11.725  1.00 87.69    -0.395 OA
ATOM     44  H23 8UH D3621     -52.376 148.762  12.308  1.00  0.00     0.210 HD
ENDROOT
TORSDOF 12
BEGIN_RES PHE A  61
REMARK  2 active torsions:
REMARK  status: ('A' for Active; 'I' for Inactive)
REMARK    1  A    between atoms: CA   and  CB  
REMARK    2  A    between atoms: CB   and  CG  
ROOT
ATOM      1  CA  PHE A  61     -36.237 128.293  12.768  1.00 39.40     0.164 C 
ENDROOT
BRANCH   1   2
ATOM      2  CB  PHE A  61     -36.813 128.951  11.509  1.00 39.41     0.058 C 
BRANCH   2   3
ATOM      3  CG  PHE A  61     -37.021 128.005  10.350  1.00 39.01    -0.020 A 
ATOM      4  CD2 PHE A  61     -36.292 126.831  10.251  1.00 40.32    -0.004 A 
ATOM      5  CE2 PHE A  61     -36.482 125.963   9.182  1.00 40.20    -0.000 A 
ATOM      6  CZ  PHE A  61     -37.405 126.258   8.204  1.00 40.34    -0.000 A 
ATOM      7  CE1 PHE A  61     -38.138 127.421   8.290  1.00 41.51    -0.000 A 
ATOM      8  CD1 PHE A  61     -37.944 128.292   9.354  1.00 39.94    -0.004 A 
ENDBRANCH   2   3
ENDBRANCH   1   2
END_RES PHE A  61
BEGIN_RES VAL A 134
REMARK  1 active torsions:
REMARK  status: ('A' for Active; 'I' for Inactive)
REMARK    3  A    between atoms: CA   and  CB  
ROOT
ATOM      9  CA  VAL A 134     -29.766 132.051   9.815  1.00 40.75     0.159 C 
ENDROOT
BRANCH   9  10
ATOM     10  CB  VAL A 134     -30.864 132.765   9.009  1.00 40.76     0.029 C 
ATOM     11  CG1 VAL A 134     -32.107 132.976   9.862  1.00 41.76     0.002 C 
ATOM     12  CG2 VAL A 134     -30.371 134.085   8.436  1.00 40.56     0.002 C 
ENDBRANCH   9  10
END_RES VAL A 134
BEGIN_RES TYR A 338
REMARK  3 active torsions:
REMARK  status: ('A' for Active; 'I' for Inactive)
REMARK    4  A    between atoms: CA   and  CB  
REMARK    5  A    between atoms: CB   and  CG  
REMARK    6  A    between atoms: CZ   and  OH  
ROOT
ATOM     13  CA  TYR A 338     -41.631 124.950   6.058  1.00 38.23     0.164 C 
ENDROOT
BRANCH  13  14
ATOM     14  CB  TYR A 338     -41.621 126.456   6.339  1.00 39.15     0.058 C 
BRANCH  14  15
ATOM     15  CG  TYR A 338     -40.413 127.210   5.833  1.00 39.03    -0.020 A 
ATOM     16  CD2 TYR A 338     -40.259 128.557   6.114  1.00 40.65    -0.002 A 
ATOM     17  CE2 TYR A 338     -39.171 129.283   5.653  1.00 40.91     0.024 A 
ATOM     18  CZ  TYR A 338     -38.204 128.659   4.888  1.00 42.33     0.089 A 
ATOM     19  CE1 TYR A 338     -38.333 127.312   4.598  1.00 40.63     0.024 A 
ATOM     20  CD1 TYR A 338     -39.435 126.607   5.057  1.00 39.27    -0.002 A 
BRANCH  18  21
ATOM     21  OH  TYR A 338     -37.125 129.364   4.432  1.00 43.36    -0.359 OA
ATOM     22  HH  TYR A 338     -36.331 128.912   4.172  1.00  0.00     0.217 HD
ENDBRANCH  18  21
ENDBRANCH  14  15
ENDBRANCH  13  14
END_RES TYR A 338
ENDMDL
