MODEL 1
REMARK VINA RESULT:    -9.140      0.000      0.000
REMARK INTER + INTRA:         -11.031
REMARK INTER:                  -9.140
REMARK INTRA:                  -1.891
REMARK UNBOUND:                -1.891
REMARK  0 active torsions:
REMARK  status: ('A' for Active; 'I' for Inactive)
REMARK       I    between atoms: C3_3  and  O3_21 
REMARK       I    between atoms: C6_6  and  C7_7 
REMARK       I    between atoms: C8_8  and  C9_9 
REMARK       I    between atoms: C10_10  and  C11_11 
REMARK       I    between atoms: C12_12  and  C13_13 
REMARK       I    between atoms: C14_14  and  C15_15 
REMARK       I    between atoms: C23_25  and  O23_43 
REMARK       I    between atoms: C26_28  and  C27_29 
REMARK       I    between atoms: C28_30  and  C29_31 
REMARK       I    between atoms: C30_32  and  C31_33 
REMARK       I    between atoms: C32_34  and  C33_35 
REMARK       I    between atoms: C34_36  and  C35_37 
ROOT
HETATM    1  C1  8UH Y1621     -47.993 145.548  12.601  1.00 37.60    -0.018 C 
HETATM    2  C2  8UH Y1621     -48.941 146.153  13.623  1.00 37.60     0.045 C 
HETATM    3  C3  8UH Y1621     -48.299 146.810  14.823  1.00 37.60     0.123 C 
HETATM    4  C4  8UH Y1621     -47.230 147.764  14.357  1.00 37.60     0.066 C 
HETATM    5  C5  8UH Y1621     -46.247 147.116  13.431  1.00 37.60    -0.074 C 
HETATM    6  C6  8UH Y1621     -46.604 146.153  12.569  1.00 37.60    -0.048 C 
HETATM    7  C7  8UH Y1621     -45.667 145.675  11.516  1.00 37.60     0.009 C 
HETATM    8  C8  8UH Y1621     -44.712 144.764  11.736  1.00 37.60     0.007 C 
HETATM    9  C9  8UH Y1621     -43.812 144.301  10.679  1.00 37.60    -0.062 C 
HETATM   10  C10 8UH Y1621     -43.294 143.084  10.833  1.00 37.60     0.007 C 
HETATM   11  C11 8UH Y1621     -42.398 142.431   9.894  1.00 37.60     0.001 C 
HETATM   12  C12 8UH Y1621     -42.132 141.178  10.226  1.00 37.60     0.007 C 
HETATM   13  C13 8UH Y1621     -41.293 140.240   9.477  1.00 37.60    -0.062 C 
HETATM   14  C14 8UH Y1621     -41.017 139.063  10.042  1.00 37.60     0.007 C 
HETATM   15  C15 8UH Y1621     -40.224 138.072   9.335  1.00 37.60     0.001 C 
HETATM   16  C16 8UH Y1621     -48.709 145.635  11.263  1.00 37.60     0.020 C 
HETATM   17  C17 8UH Y1621     -47.799 144.087  12.934  1.00 37.60     0.020 C 
HETATM   18  C18 8UH Y1621     -44.953 147.864  13.333  1.00 37.60     0.044 C 
HETATM   19  C19 8UH Y1621     -43.492 145.155   9.497  1.00 37.60     0.048 C 
HETATM   20  C20 8UH Y1621     -40.783 140.580   8.113  1.00 37.60     0.048 C 
HETATM   21  O3  8UH Y1621     -49.291 147.586  15.490  1.00 37.60    -0.395 OA
ATOM     22  H3  8UH Y1621     -49.965 146.985  15.784  1.00  0.00     0.210 HD
HETATM   23  C21 8UH Y1621     -34.532 127.064   6.448  1.00 21.58    -0.018 C 
HETATM   24  C22 8UH Y1621     -34.042 126.289   5.207  1.00 21.20     0.045 C 
HETATM   25  C23 8UH Y1621     -32.920 126.860   4.333  1.00 20.61     0.123 C 
HETATM   26  C24 8UH Y1621     -32.210 128.100   4.899  1.00 19.82     0.066 C 
HETATM   27  C25 8UH Y1621     -32.792 128.888   6.031  1.00 19.81    -0.074 C 
HETATM   28  C26 8UH Y1621     -33.861 128.453   6.788  1.00 19.95    -0.048 C 
HETATM   29  C27 8UH Y1621     -34.444 129.205   7.937  1.00 17.10     0.009 C 
HETATM   30  C28 8UH Y1621     -35.311 130.234   7.815  1.00 17.58     0.007 C 
HETATM   31  C29 8UH Y1621     -35.912 131.014   8.851  1.00 37.60    -0.062 C 
HETATM   32  C30 8UH Y1621     -36.917 131.826   8.533  1.00 37.60     0.007 C 
HETATM   33  C31 8UH Y1621     -37.628 132.672   9.473  1.00 37.60     0.001 C 
HETATM   34  C32 8UH Y1621     -37.990 133.845   8.983  1.00 37.60     0.007 C 
HETATM   35  C33 8UH Y1621     -38.728 134.832   9.772  1.00 37.60    -0.062 C 
HETATM   36  C34 8UH Y1621     -39.041 136.001   9.215  1.00 37.60     0.007 C 
HETATM   37  C35 8UH Y1621     -39.799 136.991   9.963  1.00 37.60     0.001 C 
HETATM   38  C36 8UH Y1621     -34.283 126.046   7.584  1.00 19.38     0.020 C 
HETATM   39  C37 8UH Y1621     -36.060 127.234   6.286  1.00 19.65     0.020 C 
HETATM   40  C38 8UH Y1621     -31.991 130.129   6.197  1.00 20.06     0.044 C 
HETATM   41  C39 8UH Y1621     -35.402 130.888  10.249  1.00 37.60     0.048 C 
HETATM   42  C40 8UH Y1621     -39.137 134.506  11.169  1.00 37.60     0.048 C 
HETATM   43  O23 8UH Y1621     -31.970 125.850   4.030  1.00 18.88    -0.395 OA
ATOM     44  H23 8UH Y1621     -31.275 126.204   3.489  1.00  0.00     0.210 HD
ENDROOT
TORSDOF 12
BEGIN_RES PHE A  61
REMARK  2 active torsions:
REMARK  status: ('A' for Active; 'I' for Inactive)
REMARK    1  A    between atoms: CA   and  CB  
REMARK    2  A    between atoms: CB   and  CG  
ROOT
ATOM      1  CA  PHE A  61     -36.237 128.293  12.768  1.00 39.40     0.164 C 
ENDROOT
BRANCH   1   2
ATOM      2  CB  PHE A  61     -36.813 128.951  11.509  1.00 39.41     0.058 C 
BRANCH   2   3
ATOM      3  CG  PHE A  61     -37.104 127.991  10.380  1.00 39.01    -0.020 A 
ATOM      4  CD2 PHE A  61     -36.409 126.797  10.265  1.00 40.32    -0.004 A 
ATOM      5  CE2 PHE A  61     -36.675 125.916   9.224  1.00 40.20    -0.000 A 
ATOM      6  CZ  PHE A  61     -37.641 126.217   8.291  1.00 40.34    -0.000 A 
ATOM      7  CE1 PHE A  61     -38.341 127.398   8.392  1.00 41.51    -0.000 A 
ATOM      8  CD1 PHE A  61     -38.071 128.282   9.429  1.00 39.94    -0.004 A 
ENDBRANCH   2   3
ENDBRANCH   1   2
END_RES PHE A  61
BEGIN_RES VAL A 134
REMARK  1 active torsions:
REMARK  status: ('A' for Active; 'I' for Inactive)
REMARK    3  A    between atoms: CA   and  CB  
ROOT
ATOM      9  CA  VAL A 134     -29.766 132.051   9.815  1.00 40.75     0.159 C 
ENDROOT
BRANCH   9  10
ATOM     10  CB  VAL A 134     -30.864 132.765   9.009  1.00 40.76     0.029 C 
ATOM     11  CG1 VAL A 134     -30.853 132.304   7.559  1.00 41.76     0.002 C 
ATOM     12  CG2 VAL A 134     -32.238 132.563   9.630  1.00 40.56     0.002 C 
ENDBRANCH   9  10
END_RES VAL A 134
BEGIN_RES TYR A 338
REMARK  3 active torsions:
REMARK  status: ('A' for Active; 'I' for Inactive)
REMARK    4  A    between atoms: CA   and  CB  
REMARK    5  A    between atoms: CB   and  CG  
REMARK    6  A    between atoms: CZ   and  OH  
ROOT
ATOM     13  CA  TYR A 338     -41.631 124.950   6.058  1.00 38.23     0.164 C 
ENDROOT
BRANCH  13  14
ATOM     14  CB  TYR A 338     -41.621 126.456   6.339  1.00 39.15     0.058 C 
BRANCH  14  15
ATOM     15  CG  TYR A 338     -40.423 127.213   5.814  1.00 39.03    -0.020 A 
ATOM     16  CD2 TYR A 338     -40.242 128.548   6.134  1.00 40.65    -0.002 A 
ATOM     17  CE2 TYR A 338     -39.164 129.278   5.658  1.00 40.91     0.024 A 
ATOM     18  CZ  TYR A 338     -38.234 128.670   4.836  1.00 42.33     0.089 A 
ATOM     19  CE1 TYR A 338     -38.390 127.335   4.505  1.00 40.63     0.024 A 
ATOM     20  CD1 TYR A 338     -39.482 126.627   4.982  1.00 39.27    -0.002 A 
BRANCH  18  21
ATOM     21  OH  TYR A 338     -37.164 129.378   4.364  1.00 43.36    -0.359 OA
ATOM     22  HH  TYR A 338     -36.434 128.929   3.954  1.00  0.00     0.217 HD
ENDBRANCH  18  21
ENDBRANCH  14  15
ENDBRANCH  13  14
END_RES TYR A 338
ENDMDL
MODEL 2
REMARK VINA RESULT:    -9.032      0.920      1.102
REMARK INTER + INTRA:         -10.923
REMARK INTER:                 -10.524
REMARK INTRA:                  -0.399
REMARK UNBOUND:                -1.891
REMARK  0 active torsions:
REMARK  status: ('A' for Active; 'I' for Inactive)
REMARK       I    between atoms: C3_3  and  O3_21 
REMARK       I    between atoms: C6_6  and  C7_7 
REMARK       I    between atoms: C8_8  and  C9_9 
REMARK       I    between atoms: C10_10  and  C11_11 
REMARK       I    between atoms: C12_12  and  C13_13 
REMARK       I    between atoms: C14_14  and  C15_15 
REMARK       I    between atoms: C23_25  and  O23_43 
REMARK       I    between atoms: C26_28  and  C27_29 
REMARK       I    between atoms: C28_30  and  C29_31 
REMARK       I    between atoms: C30_32  and  C31_33 
REMARK       I    between atoms: C32_34  and  C33_35 
REMARK       I    between atoms: C34_36  and  C35_37 
ROOT
HETATM    1  C1  8UH Y1621     -49.114 145.656  12.077  1.00 37.60    -0.018 C 
HETATM    2  C2  8UH Y1621     -50.201 146.177  13.001  1.00 37.60     0.045 C 
HETATM    3  C3  8UH Y1621     -49.734 146.820  14.286  1.00 37.60     0.123 C 
HETATM    4  C4  8UH Y1621     -48.670 147.840  13.977  1.00 37.60     0.066 C 
HETATM    5  C5  8UH Y1621     -47.556 147.274  13.151  1.00 37.60    -0.074 C 
HETATM    6  C6  8UH Y1621     -47.763 146.327  12.224  1.00 37.60    -0.048 C 
HETATM    7  C7  8UH Y1621     -46.689 145.933  11.271  1.00 37.60     0.009 C 
HETATM    8  C8  8UH Y1621     -45.720 145.061  11.571  1.00 37.60     0.007 C 
HETATM    9  C9  8UH Y1621     -44.683 144.680  10.611  1.00 37.60    -0.062 C 
HETATM   10  C10 8UH Y1621     -44.124 143.484  10.785  1.00 37.60     0.007 C 
HETATM   11  C11 8UH Y1621     -43.095 142.909   9.936  1.00 37.60     0.001 C 
HETATM   12  C12 8UH Y1621     -42.805 141.659  10.258  1.00 37.60     0.007 C 
HETATM   13  C13 8UH Y1621     -41.840 140.790   9.582  1.00 37.60    -0.062 C 
HETATM   14  C14 8UH Y1621     -41.569 139.608  10.138  1.00 37.60     0.007 C 
HETATM   15  C15 8UH Y1621     -40.651 138.682   9.497  1.00 37.60     0.001 C 
HETATM   16  C16 8UH Y1621     -49.677 145.758  10.668  1.00 37.60     0.020 C 
HETATM   17  C17 8UH Y1621     -48.884 144.195  12.384  1.00 37.60     0.020 C 
HETATM   18  C18 8UH Y1621     -46.299 148.086  13.225  1.00 37.60     0.044 C 
HETATM   19  C19 8UH Y1621     -44.276 145.591   9.501  1.00 37.60     0.048 C 
HETATM   20  C20 8UH Y1621     -41.196 141.204   8.297  1.00 37.60     0.048 C 
HETATM   21  O3  8UH Y1621     -50.834 147.524  14.859  1.00 37.60    -0.395 OA
ATOM     22  H3  8UH Y1621     -51.505 146.881  15.054  1.00  0.00     0.210 HD
HETATM   23  C21 8UH Y1621     -34.111 128.070   6.944  1.00 21.58    -0.018 C 
HETATM   24  C22 8UH Y1621     -33.444 127.364   5.745  1.00 21.20     0.045 C 
HETATM   25  C23 8UH Y1621     -32.261 128.020   5.024  1.00 20.61     0.123 C 
HETATM   26  C24 8UH Y1621     -31.684 129.270   5.707  1.00 19.82     0.066 C 
HETATM   27  C25 8UH Y1621     -32.431 129.988   6.788  1.00 19.81    -0.074 C 
HETATM   28  C26 8UH Y1621     -33.556 129.475   7.402  1.00 19.95    -0.048 C 
HETATM   29  C27 8UH Y1621     -34.303 130.156   8.499  1.00 17.10     0.009 C 
HETATM   30  C28 8UH Y1621     -35.202 131.147   8.310  1.00 17.58     0.007 C 
HETATM   31  C29 8UH Y1621     -35.956 131.859   9.294  1.00 37.60    -0.062 C 
HETATM   32  C30 8UH Y1621     -36.958 132.634   8.888  1.00 37.60     0.007 C 
HETATM   33  C31 8UH Y1621     -37.814 133.410   9.766  1.00 37.60     0.001 C 
HETATM   34  C32 8UH Y1621     -38.178 134.581   9.274  1.00 37.60     0.007 C 
HETATM   35  C33 8UH Y1621     -39.051 135.502  10.003  1.00 37.60    -0.062 C 
HETATM   36  C34 8UH Y1621     -39.357 136.674   9.450  1.00 37.60     0.007 C 
HETATM   37  C35 8UH Y1621     -40.246 137.599  10.136  1.00 37.60     0.001 C 
HETATM   38  C36 8UH Y1621     -33.941 127.023   8.070  1.00 19.38     0.020 C 
HETATM   39  C37 8UH Y1621     -35.618 128.172   6.614  1.00 19.65     0.020 C 
HETATM   40  C38 8UH Y1621     -31.719 131.258   7.083  1.00 20.06     0.044 C 
HETATM   41  C39 8UH Y1621     -35.601 131.705  10.737  1.00 37.60     0.048 C 
HETATM   42  C40 8UH Y1621     -39.598 135.107  11.333  1.00 37.60     0.048 C 
HETATM   43  O23 8UH Y1621     -31.233 127.067   4.801  1.00 18.88    -0.395 OA
ATOM     44  H23 8UH Y1621     -30.500 127.474   4.355  1.00  0.00     0.210 HD
ENDROOT
TORSDOF 12
BEGIN_RES PHE A  61
REMARK  2 active torsions:
REMARK  status: ('A' for Active; 'I' for Inactive)
REMARK    1  A    between atoms: CA   and  CB  
REMARK    2  A    between atoms: CB   and  CG  
ROOT
ATOM      1  CA  PHE A  61     -36.237 128.293  12.768  1.00 39.40     0.164 C 
ENDROOT
BRANCH   1   2
ATOM      2  CB  PHE A  61     -36.813 128.951  11.509  1.00 39.41     0.058 C 
BRANCH   2   3
ATOM      3  CG  PHE A  61     -37.027 128.004  10.352  1.00 39.01    -0.020 A 
ATOM      4  CD2 PHE A  61     -36.275 126.847  10.231  1.00 40.32    -0.004 A 
ATOM      5  CE2 PHE A  61     -36.470 125.978   9.165  1.00 40.20    -0.000 A 
ATOM      6  CZ  PHE A  61     -37.423 126.255   8.211  1.00 40.34    -0.000 A 
ATOM      7  CE1 PHE A  61     -38.181 127.400   8.318  1.00 41.51    -0.000 A 
ATOM      8  CD1 PHE A  61     -37.980 128.272   9.380  1.00 39.94    -0.004 A 
ENDBRANCH   2   3
ENDBRANCH   1   2
END_RES PHE A  61
BEGIN_RES VAL A 134
REMARK  1 active torsions:
REMARK  status: ('A' for Active; 'I' for Inactive)
REMARK    3  A    between atoms: CA   and  CB  
ROOT
ATOM      9  CA  VAL A 134     -29.766 132.051   9.815  1.00 40.75     0.159 C 
ENDROOT
BRANCH   9  10
ATOM     10  CB  VAL A 134     -30.864 132.765   9.009  1.00 40.76     0.029 C 
ATOM     11  CG1 VAL A 134     -32.123 132.935   9.847  1.00 41.76     0.002 C 
ATOM     12  CG2 VAL A 134     -30.386 134.106   8.474  1.00 40.56     0.002 C 
ENDBRANCH   9  10
END_RES VAL A 134
BEGIN_RES TYR A 338
REMARK  3 active torsions:
REMARK  status: ('A' for Active; 'I' for Inactive)
REMARK    4  A    between atoms: CA   and  CB  
REMARK    5  A    between atoms: CB   and  CG  
REMARK    6  A    between atoms: CZ   and  OH  
ROOT
ATOM     13  CA  TYR A 338     -41.631 124.950   6.058  1.00 38.23     0.164 C 
ENDROOT
BRANCH  13  14
ATOM     14  CB  TYR A 338     -41.621 126.456   6.339  1.00 39.15     0.058 C 
BRANCH  14  15
ATOM     15  CG  TYR A 338     -40.420 127.212   5.820  1.00 39.03    -0.020 A 
ATOM     16  CD2 TYR A 338     -40.264 128.559   6.102  1.00 40.65    -0.002 A 
ATOM     17  CE2 TYR A 338     -39.183 129.287   5.630  1.00 40.91     0.024 A 
ATOM     18  CZ  TYR A 338     -38.225 128.666   4.851  1.00 42.33     0.089 A 
ATOM     19  CE1 TYR A 338     -38.356 127.320   4.559  1.00 40.63     0.024 A 
ATOM     20  CD1 TYR A 338     -39.451 126.612   5.030  1.00 39.27    -0.002 A 
BRANCH  18  21
ATOM     21  OH  TYR A 338     -37.153 129.373   4.383  1.00 43.36    -0.359 OA
ATOM     22  HH  TYR A 338     -36.459 129.642   4.975  1.00  0.00     0.217 HD
ENDBRANCH  18  21
ENDBRANCH  14  15
ENDBRANCH  13  14
END_RES TYR A 338
ENDMDL
MODEL 3
REMARK VINA RESULT:    -8.324      1.560     16.763
REMARK INTER + INTRA:         -10.216
REMARK INTER:                  -5.217
REMARK INTRA:                  -4.999
REMARK UNBOUND:                -1.891
REMARK  0 active torsions:
REMARK  status: ('A' for Active; 'I' for Inactive)
REMARK       I    between atoms: C3_3  and  O3_21 
REMARK       I    between atoms: C6_6  and  C7_7 
REMARK       I    between atoms: C8_8  and  C9_9 
REMARK       I    between atoms: C10_10  and  C11_11 
REMARK       I    between atoms: C12_12  and  C13_13 
REMARK       I    between atoms: C14_14  and  C15_15 
REMARK       I    between atoms: C23_25  and  O23_43 
REMARK       I    between atoms: C26_28  and  C27_29 
REMARK       I    between atoms: C28_30  and  C29_31 
REMARK       I    between atoms: C30_32  and  C31_33 
REMARK       I    between atoms: C32_34  and  C33_35 
REMARK       I    between atoms: C34_36  and  C35_37 
ROOT
HETATM    1  C1  8UH Y1621     -34.574 127.021   5.359  1.00 37.60    -0.018 C 
HETATM    2  C2  8UH Y1621     -33.908 126.215   4.257  1.00 37.60     0.045 C 
HETATM    3  C3  8UH Y1621     -32.708 126.853   3.596  1.00 37.60     0.123 C 
HETATM    4  C4  8UH Y1621     -31.749 127.329   4.655  1.00 37.60     0.066 C 
HETATM    5  C5  8UH Y1621     -32.408 128.208   5.673  1.00 37.60    -0.074 C 
HETATM    6  C6  8UH Y1621     -33.680 128.025   6.058  1.00 37.60    -0.048 C 
HETATM    7  C7  8UH Y1621     -34.248 128.766   7.217  1.00 37.60     0.009 C 
HETATM    8  C8  8UH Y1621     -34.725 130.012   7.135  1.00 37.60     0.007 C 
HETATM    9  C9  8UH Y1621     -35.291 130.714   8.288  1.00 37.60    -0.062 C 
HETATM   10  C10 8UH Y1621     -36.181 131.669   8.023  1.00 37.60     0.007 C 
HETATM   11  C11 8UH Y1621     -36.873 132.468   9.019  1.00 37.60     0.001 C 
HETATM   12  C12 8UH Y1621     -37.795 133.257   8.493  1.00 37.60     0.007 C 
HETATM   13  C13 8UH Y1621     -38.686 134.160   9.224  1.00 37.60    -0.062 C 
HETATM   14  C14 8UH Y1621     -39.451 134.991   8.513  1.00 37.60     0.007 C 
HETATM   15  C15 8UH Y1621     -40.385 135.884   9.177  1.00 37.60     0.001 C 
HETATM   16  C16 8UH Y1621     -35.182 126.004   6.312  1.00 37.60     0.020 C 
HETATM   17  C17 8UH Y1621     -35.700 127.824   4.751  1.00 37.60     0.020 C 
HETATM   18  C18 8UH Y1621     -31.437 129.056   6.433  1.00 37.60     0.044 C 
HETATM   19  C19 8UH Y1621     -34.885 130.374   9.684  1.00 37.60     0.048 C 
HETATM   20  C20 8UH Y1621     -38.754 134.135  10.718  1.00 37.60     0.048 C 
HETATM   21  O3  8UH Y1621     -32.032 125.852   2.838  1.00 37.60    -0.395 OA
ATOM     22  H3  8UH Y1621     -32.636 125.551   2.170  1.00  0.00     0.210 HD
HETATM   23  C21 8UH Y1621     -49.750 144.312  10.966  1.00 21.58    -0.018 C 
HETATM   24  C22 8UH Y1621     -50.771 144.716  12.050  1.00 21.20     0.045 C 
HETATM   25  C23 8UH Y1621     -50.289 145.277  13.392  1.00 20.61     0.123 C 
HETATM   26  C24 8UH Y1621     -48.788 145.594  13.474  1.00 19.82     0.066 C 
HETATM   27  C25 8UH Y1621     -47.820 145.074  12.456  1.00 19.81    -0.074 C 
HETATM   28  C26 8UH Y1621     -48.210 144.480  11.273  1.00 19.95    -0.048 C 
HETATM   29  C27 8UH Y1621     -47.269 143.977  10.230  1.00 17.10     0.009 C 
HETATM   30  C28 8UH Y1621     -46.627 142.790  10.290  1.00 17.58     0.007 C 
HETATM   31  C29 8UH Y1621     -45.708 142.232   9.348  1.00 37.60    -0.062 C 
HETATM   32  C30 8UH Y1621     -45.368 140.951   9.475  1.00 37.60     0.007 C 
HETATM   33  C31 8UH Y1621     -44.455 140.246   8.595  1.00 37.60     0.001 C 
HETATM   34  C32 8UH Y1621     -43.688 139.359   9.206  1.00 37.60     0.007 C 
HETATM   35  C33 8UH Y1621     -42.712 138.538   8.489  1.00 37.60    -0.062 C 
HETATM   36  C34 8UH Y1621     -41.961 137.680   9.177  1.00 37.60     0.007 C 
HETATM   37  C35 8UH Y1621     -41.003 136.828   8.490  1.00 37.60     0.001 C 
HETATM   38  C36 8UH Y1621     -50.169 145.207   9.777  1.00 19.38     0.020 C 
HETATM   39  C37 8UH Y1621     -50.063 142.845  10.591  1.00 19.65     0.020 C 
HETATM   40  C38 8UH Y1621     -46.442 145.369  12.929  1.00 20.06     0.044 C 
HETATM   41  C39 8UH Y1621     -45.167 143.096   8.257  1.00 37.60     0.048 C 
HETATM   42  C40 8UH Y1621     -42.592 138.657   7.007  1.00 37.60     0.048 C 
HETATM   43  O23 8UH Y1621     -51.050 146.421  13.748  1.00 18.88    -0.395 OA
ATOM     44  H23 8UH Y1621     -50.751 146.769  14.580  1.00  0.00     0.210 HD
ENDROOT
TORSDOF 12
BEGIN_RES PHE A  61
REMARK  2 active torsions:
REMARK  status: ('A' for Active; 'I' for Inactive)
REMARK    1  A    between atoms: CA   and  CB  
REMARK    2  A    between atoms: CB   and  CG  
ROOT
ATOM      1  CA  PHE A  61     -36.237 128.293  12.768  1.00 39.40     0.164 C 
ENDROOT
BRANCH   1   2
ATOM      2  CB  PHE A  61     -36.813 128.951  11.509  1.00 39.41     0.058 C 
BRANCH   2   3
ATOM      3  CG  PHE A  61     -36.878 128.043  10.304  1.00 39.01    -0.020 A 
ATOM      4  CD2 PHE A  61     -35.920 127.063  10.099  1.00 40.32    -0.004 A 
ATOM      5  CE2 PHE A  61     -35.979 126.230   8.989  1.00 40.20    -0.000 A 
ATOM      6  CZ  PHE A  61     -36.998 126.365   8.074  1.00 40.34    -0.000 A 
ATOM      7  CE1 PHE A  61     -37.960 127.333   8.264  1.00 41.51    -0.000 A 
ATOM      8  CD1 PHE A  61     -37.897 128.170   9.371  1.00 39.94    -0.004 A 
ENDBRANCH   2   3
ENDBRANCH   1   2
END_RES PHE A  61
BEGIN_RES VAL A 134
REMARK  1 active torsions:
REMARK  status: ('A' for Active; 'I' for Inactive)
REMARK    3  A    between atoms: CA   and  CB  
ROOT
ATOM      9  CA  VAL A 134     -29.766 132.051   9.815  1.00 40.75     0.159 C 
ENDROOT
BRANCH   9  10
ATOM     10  CB  VAL A 134     -30.864 132.765   9.009  1.00 40.76     0.029 C 
ATOM     11  CG1 VAL A 134     -31.187 131.993   7.738  1.00 41.76     0.002 C 
ATOM     12  CG2 VAL A 134     -32.118 132.985   9.841  1.00 40.56     0.002 C 
ENDBRANCH   9  10
END_RES VAL A 134
BEGIN_RES TYR A 338
REMARK  3 active torsions:
REMARK  status: ('A' for Active; 'I' for Inactive)
REMARK    4  A    between atoms: CA   and  CB  
REMARK    5  A    between atoms: CB   and  CG  
REMARK    6  A    between atoms: CZ   and  OH  
ROOT
ATOM     13  CA  TYR A 338     -41.631 124.950   6.058  1.00 38.23     0.164 C 
ENDROOT
BRANCH  13  14
ATOM     14  CB  TYR A 338     -41.621 126.456   6.339  1.00 39.15     0.058 C 
BRANCH  14  15
ATOM     15  CG  TYR A 338     -40.422 127.213   5.815  1.00 39.03    -0.020 A 
ATOM     16  CD2 TYR A 338     -40.239 128.546   6.141  1.00 40.65    -0.002 A 
ATOM     17  CE2 TYR A 338     -39.160 129.276   5.666  1.00 40.91     0.024 A 
ATOM     18  CZ  TYR A 338     -38.231 128.669   4.841  1.00 42.33     0.089 A 
ATOM     19  CE1 TYR A 338     -38.391 127.336   4.505  1.00 40.63     0.024 A 
ATOM     20  CD1 TYR A 338     -39.484 126.628   4.980  1.00 39.27    -0.002 A 
BRANCH  18  21
ATOM     21  OH  TYR A 338     -37.161 129.377   4.370  1.00 43.36    -0.359 OA
ATOM     22  HH  TYR A 338     -37.242 130.306   4.187  1.00  0.00     0.217 HD
ENDBRANCH  18  21
ENDBRANCH  14  15
ENDBRANCH  13  14
END_RES TYR A 338
ENDMDL
MODEL 4
REMARK VINA RESULT:    -7.219      1.311     16.766
REMARK INTER + INTRA:          -9.110
REMARK INTER:                  -5.204
REMARK INTRA:                  -3.907
REMARK UNBOUND:                -1.891
REMARK  0 active torsions:
REMARK  status: ('A' for Active; 'I' for Inactive)
REMARK       I    between atoms: C3_3  and  O3_21 
REMARK       I    between atoms: C6_6  and  C7_7 
REMARK       I    between atoms: C8_8  and  C9_9 
REMARK       I    between atoms: C10_10  and  C11_11 
REMARK       I    between atoms: C12_12  and  C13_13 
REMARK       I    between atoms: C14_14  and  C15_15 
REMARK       I    between atoms: C23_25  and  O23_43 
REMARK       I    between atoms: C26_28  and  C27_29 
REMARK       I    between atoms: C28_30  and  C29_31 
REMARK       I    between atoms: C30_32  and  C31_33 
REMARK       I    between atoms: C32_34  and  C33_35 
REMARK       I    between atoms: C34_36  and  C35_37 
ROOT
HETATM    1  C1  8UH Y1621     -34.686 128.752   6.243  1.00 37.60    -0.018 C 
HETATM    2  C2  8UH Y1621     -33.732 128.066   5.281  1.00 37.60     0.045 C 
HETATM    3  C3  8UH Y1621     -32.305 128.564   5.288  1.00 37.60     0.123 C 
HETATM    4  C4  8UH Y1621     -31.798 128.608   6.705  1.00 37.60     0.066 C 
HETATM    5  C5  8UH Y1621     -32.705 129.379   7.615  1.00 37.60    -0.074 C 
HETATM    6  C6  8UH Y1621     -34.037 129.388   7.457  1.00 37.60    -0.048 C 
HETATM    7  C7  8UH Y1621     -34.931 129.980   8.488  1.00 37.60     0.009 C 
HETATM    8  C8  8UH Y1621     -35.193 131.288   8.576  1.00 37.60     0.007 C 
HETATM    9  C9  8UH Y1621     -36.088 131.844   9.593  1.00 37.60    -0.062 C 
HETATM   10  C10 8UH Y1621     -36.685 132.995   9.291  1.00 37.60     0.007 C 
HETATM   11  C11 8UH Y1621     -37.622 133.701  10.148  1.00 37.60     0.001 C 
HETATM   12  C12 8UH Y1621     -38.164 134.753   9.557  1.00 37.60     0.007 C 
HETATM   13  C13 8UH Y1621     -39.164 135.654  10.134  1.00 37.60    -0.062 C 
HETATM   14  C14 8UH Y1621     -39.486 136.751   9.446  1.00 37.60     0.007 C 
HETATM   15  C15 8UH Y1621     -40.500 137.664   9.943  1.00 37.60     0.001 C 
HETATM   16  C16 8UH Y1621     -35.733 127.711   6.609  1.00 37.60     0.020 C 
HETATM   17  C17 8UH Y1621     -35.380 129.876   5.511  1.00 37.60     0.020 C 
HETATM   18  C18 8UH Y1621     -32.026 129.837   8.868  1.00 37.60     0.044 C 
HETATM   19  C19 8UH Y1621     -36.310 131.153  10.897  1.00 37.60     0.048 C 
HETATM   20  C20 8UH Y1621     -39.822 135.342  11.440  1.00 37.60     0.048 C 
HETATM   21  O3  8UH Y1621     -31.501 127.619   4.584  1.00 37.60    -0.395 OA
ATOM     22  H3  8UH Y1621     -31.820 127.591   3.691  1.00  0.00     0.210 HD
HETATM   23  C21 8UH Y1621     -48.794 147.301  10.440  1.00 21.58    -0.018 C 
HETATM   24  C22 8UH Y1621     -50.109 147.680  11.154  1.00 21.20     0.045 C 
HETATM   25  C23 8UH Y1621     -50.140 147.846  12.676  1.00 20.61     0.123 C 
HETATM   26  C24 8UH Y1621     -48.769 147.824  13.371  1.00 19.82     0.066 C 
HETATM   27  C25 8UH Y1621     -47.543 147.333  12.667  1.00 19.81    -0.074 C 
HETATM   28  C26 8UH Y1621     -47.495 147.083  11.311  1.00 19.95    -0.048 C 
HETATM   29  C27 8UH Y1621     -46.280 146.619  10.579  1.00 17.10     0.009 C 
HETATM   30  C28 8UH Y1621     -45.852 145.337  10.546  1.00 17.58     0.007 C 
HETATM   31  C29 8UH Y1621     -44.703 144.804   9.883  1.00 37.60    -0.062 C 
HETATM   32  C30 8UH Y1621     -44.588 143.483   9.777  1.00 37.60     0.007 C 
HETATM   33  C31 8UH Y1621     -43.486 142.797   9.129  1.00 37.60     0.001 C 
HETATM   34  C32 8UH Y1621     -43.130 141.666   9.713  1.00 37.60     0.007 C 
HETATM   35  C33 8UH Y1621     -42.049 140.824   9.202  1.00 37.60    -0.062 C 
HETATM   36  C34 8UH Y1621     -41.734 139.708   9.858  1.00 37.60     0.007 C 
HETATM   37  C35 8UH Y1621     -40.684 138.834   9.359  1.00 37.60     0.001 C 
HETATM   38  C36 8UH Y1621     -48.603 148.485   9.465  1.00 19.38     0.020 C 
HETATM   39  C37 8UH Y1621     -49.095 146.038   9.602  1.00 19.65     0.020 C 
HETATM   40  C38 8UH Y1621     -46.442 147.235  13.661  1.00 20.06     0.044 C 
HETATM   41  C39 8UH Y1621     -43.680 145.740   9.329  1.00 37.60     0.048 C 
HETATM   42  C40 8UH Y1621     -41.338 141.212   7.950  1.00 37.60     0.048 C 
HETATM   43  O23 8UH Y1621     -50.846 149.027  13.028  1.00 18.88    -0.395 OA
ATOM     44  H23 8UH Y1621     -50.865 149.130  13.972  1.00  0.00     0.210 HD
ENDROOT
TORSDOF 12
BEGIN_RES PHE A  61
REMARK  2 active torsions:
REMARK  status: ('A' for Active; 'I' for Inactive)
REMARK    1  A    between atoms: CA   and  CB  
REMARK    2  A    between atoms: CB   and  CG  
ROOT
ATOM      1  CA  PHE A  61     -36.237 128.293  12.768  1.00 39.40     0.164 C 
ENDROOT
BRANCH   1   2
ATOM      2  CB  PHE A  61     -36.813 128.951  11.509  1.00 39.41     0.058 C 
BRANCH   2   3
ATOM      3  CG  PHE A  61     -36.934 128.026  10.321  1.00 39.01    -0.020 A 
ATOM      4  CD2 PHE A  61     -37.995 128.139   9.437  1.00 40.32    -0.004 A 
ATOM      5  CE2 PHE A  61     -38.107 127.285   8.347  1.00 40.20    -0.000 A 
ATOM      6  CZ  PHE A  61     -37.159 126.313   8.126  1.00 40.34    -0.000 A 
ATOM      7  CE1 PHE A  61     -36.097 126.190   8.995  1.00 41.51    -0.000 A 
ATOM      8  CD1 PHE A  61     -35.988 127.038  10.089  1.00 39.94    -0.004 A 
ENDBRANCH   2   3
ENDBRANCH   1   2
END_RES PHE A  61
BEGIN_RES VAL A 134
REMARK  1 active torsions:
REMARK  status: ('A' for Active; 'I' for Inactive)
REMARK    3  A    between atoms: CA   and  CB  
ROOT
ATOM      9  CA  VAL A 134     -29.766 132.051   9.815  1.00 40.75     0.159 C 
ENDROOT
BRANCH   9  10
ATOM     10  CB  VAL A 134     -30.864 132.765   9.009  1.00 40.76     0.029 C 
ATOM     11  CG1 VAL A 134     -30.974 132.176   7.610  1.00 41.76     0.002 C 
ATOM     12  CG2 VAL A 134     -32.206 132.716   9.723  1.00 40.56     0.002 C 
ENDBRANCH   9  10
END_RES VAL A 134
BEGIN_RES TYR A 338
REMARK  3 active torsions:
REMARK  status: ('A' for Active; 'I' for Inactive)
REMARK    4  A    between atoms: CA   and  CB  
REMARK    5  A    between atoms: CB   and  CG  
REMARK    6  A    between atoms: CZ   and  OH  
ROOT
ATOM     13  CA  TYR A 338     -41.631 124.950   6.058  1.00 38.23     0.164 C 
ENDROOT
BRANCH  13  14
ATOM     14  CB  TYR A 338     -41.621 126.456   6.339  1.00 39.15     0.058 C 
BRANCH  14  15
ATOM     15  CG  TYR A 338     -40.441 127.219   5.782  1.00 39.03    -0.020 A 
ATOM     16  CD2 TYR A 338     -40.263 128.557   6.093  1.00 40.65    -0.002 A 
ATOM     17  CE2 TYR A 338     -39.201 129.292   5.588  1.00 40.91     0.024 A 
ATOM     18  CZ  TYR A 338     -38.286 128.686   4.747  1.00 42.33     0.089 A 
ATOM     19  CE1 TYR A 338     -38.440 127.349   4.426  1.00 40.63     0.024 A 
ATOM     20  CD1 TYR A 338     -39.516 126.635   4.931  1.00 39.27    -0.002 A 
BRANCH  18  21
ATOM     21  OH  TYR A 338     -37.233 129.400   4.247  1.00 43.36    -0.359 OA
ATOM     22  HH  TYR A 338     -37.031 130.263   4.589  1.00  0.00     0.217 HD
ENDBRANCH  18  21
ENDBRANCH  14  15
ENDBRANCH  13  14
END_RES TYR A 338
ENDMDL
