MODEL 1
REMARK VINA RESULT:    -9.769      0.000      0.000
REMARK INTER + INTRA:         -12.052
REMARK INTER:                  -9.769
REMARK INTRA:                  -2.283
REMARK UNBOUND:                -2.283
REMARK  0 active torsions:
REMARK  status: ('A' for Active; 'I' for Inactive)
REMARK       I    between atoms: C3_3  and  O3_21 
REMARK       I    between atoms: C6_6  and  C7_7 
REMARK       I    between atoms: C8_8  and  C9_9 
REMARK       I    between atoms: C10_10  and  C11_11 
REMARK       I    between atoms: C12_12  and  C13_13 
REMARK       I    between atoms: C14_14  and  C15_15 
REMARK       I    between atoms: C23_25  and  O23_43 
REMARK       I    between atoms: C26_28  and  C27_29 
REMARK       I    between atoms: C28_30  and  C29_31 
REMARK       I    between atoms: C30_32  and  C31_33 
REMARK       I    between atoms: C32_34  and  C33_35 
REMARK       I    between atoms: C34_36  and  C35_37 
ROOT
HETATM    1  C1  8UH G1620     -48.511 145.063  12.086  1.00 66.29    -0.018 C 
HETATM    2  C2  8UH G1620     -49.271 145.279  13.389  1.00 66.29     0.045 C 
HETATM    3  C3  8UH G1620     -48.580 146.044  14.507  1.00 66.29     0.123 C 
HETATM    4  C4  8UH G1620     -47.639 147.097  13.961  1.00 66.29     0.066 C 
HETATM    5  C5  8UH G1620     -46.667 146.451  13.020  1.00 66.29    -0.074 C 
HETATM    6  C6  8UH G1620     -47.081 145.571  12.102  1.00 66.29    -0.048 C 
HETATM    7  C7  8UH G1620     -46.148 145.078  11.056  1.00 66.29     0.009 C 
HETATM    8  C8  8UH G1620     -45.357 144.023  11.266  1.00 66.29     0.007 C 
HETATM    9  C9  8UH G1620     -44.436 143.509  10.244  1.00 66.29    -0.062 C 
HETATM   10  C10 8UH G1620     -43.632 142.502  10.595  1.00 66.29     0.007 C 
HETATM   11  C11 8UH G1620     -42.683 141.885   9.684  1.00 66.29     0.001 C 
HETATM   12  C12 8UH G1620     -42.122 140.768  10.122  1.00 66.29     0.007 C 
HETATM   13  C13 8UH G1620     -41.152 139.992   9.338  1.00 66.29    -0.062 C 
HETATM   14  C14 8UH G1620     -40.757 138.816   9.837  1.00 66.29     0.007 C 
HETATM   15  C15 8UH G1620     -39.821 137.951   9.138  1.00 66.29     0.001 C 
HETATM   16  C16 8UH G1620     -49.313 145.726  10.973  1.00 66.29     0.020 C 
HETATM   17  C17 8UH G1620     -48.473 143.565  11.824  1.00 66.29     0.020 C 
HETATM   18  C18 8UH G1620     -45.320 147.111  12.958  1.00 66.29     0.044 C 
HETATM   19  C19 8UH G1620     -44.414 144.090   8.863  1.00 66.29     0.048 C 
HETATM   20  C20 8UH G1620     -40.636 140.496   8.025  1.00 66.29     0.048 C 
HETATM   21  O3  8UH G1620     -49.579 146.691  15.300  1.00 66.29    -0.395 OA
ATOM     22  H3  8UH G1620     -50.169 146.030  15.643  1.00  0.00     0.210 HD
HETATM   23  C21 8UH G1620     -34.164 126.724   6.629  1.00 27.99    -0.018 C 
HETATM   24  C22 8UH G1620     -34.081 126.237   5.176  1.00 27.99     0.045 C 
HETATM   25  C23 8UH G1620     -33.494 127.234   4.186  1.00 27.99     0.123 C 
HETATM   26  C24 8UH G1620     -32.310 127.922   4.836  1.00 27.99     0.066 C 
HETATM   27  C25 8UH G1620     -32.886 128.739   5.956  1.00 27.99    -0.074 C 
HETATM   28  C26 8UH G1620     -33.645 128.134   6.877  1.00 27.99    -0.048 C 
HETATM   29  C27 8UH G1620     -34.198 128.862   8.042  1.00 27.99     0.009 C 
HETATM   30  C28 8UH G1620     -34.602 130.126   7.856  1.00 27.99     0.007 C 
HETATM   31  C29 8UH G1620     -35.386 130.804   8.915  1.00 66.29    -0.062 C 
HETATM   32  C30 8UH G1620     -36.071 131.884   8.531  1.00 66.29     0.007 C 
HETATM   33  C31 8UH G1620     -36.911 132.683   9.410  1.00 66.29     0.001 C 
HETATM   34  C32 8UH G1620     -37.417 133.785   8.872  1.00 66.29     0.007 C 
HETATM   35  C33 8UH G1620     -38.303 134.697   9.605  1.00 66.29    -0.062 C 
HETATM   36  C34 8UH G1620     -38.712 135.808   8.984  1.00 66.29     0.007 C 
HETATM   37  C35 8UH G1620     -39.612 136.742   9.644  1.00 66.29     0.001 C 
HETATM   38  C36 8UH G1620     -33.227 125.850   7.465  1.00 27.99     0.020 C 
HETATM   39  C37 8UH G1620     -35.603 126.555   7.112  1.00 27.99     0.020 C 
HETATM   40  C38 8UH G1620     -31.998 129.912   6.272  1.00 27.99     0.044 C 
HETATM   41  C39 8UH G1620     -35.407 130.314  10.333  1.00 66.29     0.048 C 
HETATM   42  C40 8UH G1620     -38.740 134.366  11.001  1.00 66.29     0.048 C 
HETATM   43  O23 8UH G1620     -33.084 126.562   2.988  1.00 27.99    -0.395 OA
ATOM     44  H23 8UH G1620     -33.827 126.131   2.581  1.00  0.00     0.210 HD
ENDROOT
TORSDOF 12
BEGIN_RES PHE A  61
REMARK  2 active torsions:
REMARK  status: ('A' for Active; 'I' for Inactive)
REMARK    1  A    between atoms: CA   and  CB  
REMARK    2  A    between atoms: CB   and  CG  
ROOT
ATOM      1  CA  PHE A  61     -36.237 128.293  12.768  1.00 39.40     0.164 C 
ENDROOT
BRANCH   1   2
ATOM      2  CB  PHE A  61     -36.813 128.951  11.509  1.00 39.41     0.058 C 
BRANCH   2   3
ATOM      3  CG  PHE A  61     -37.097 127.992  10.378  1.00 39.01    -0.020 A 
ATOM      4  CD2 PHE A  61     -36.397 126.801  10.262  1.00 40.32    -0.004 A 
ATOM      5  CE2 PHE A  61     -36.657 125.921   9.219  1.00 40.20    -0.000 A 
ATOM      6  CZ  PHE A  61     -37.622 126.219   8.283  1.00 40.34    -0.000 A 
ATOM      7  CE1 PHE A  61     -38.328 127.398   8.386  1.00 41.51    -0.000 A 
ATOM      8  CD1 PHE A  61     -38.063 128.281   9.425  1.00 39.94    -0.004 A 
ENDBRANCH   2   3
ENDBRANCH   1   2
END_RES PHE A  61
BEGIN_RES VAL A 134
REMARK  1 active torsions:
REMARK  status: ('A' for Active; 'I' for Inactive)
REMARK    3  A    between atoms: CA   and  CB  
ROOT
ATOM      9  CA  VAL A 134     -29.766 132.051   9.815  1.00 40.75     0.159 C 
ENDROOT
BRANCH   9  10
ATOM     10  CB  VAL A 134     -30.864 132.765   9.009  1.00 40.76     0.029 C 
ATOM     11  CG1 VAL A 134     -30.881 132.272   7.569  1.00 41.76     0.002 C 
ATOM     12  CG2 VAL A 134     -32.232 132.598   9.654  1.00 40.56     0.002 C 
ENDBRANCH   9  10
END_RES VAL A 134
BEGIN_RES TYR A 338
REMARK  3 active torsions:
REMARK  status: ('A' for Active; 'I' for Inactive)
REMARK    4  A    between atoms: CA   and  CB  
REMARK    5  A    between atoms: CB   and  CG  
REMARK    6  A    between atoms: CZ   and  OH  
ROOT
ATOM     13  CA  TYR A 338     -41.631 124.950   6.058  1.00 38.23     0.164 C 
ENDROOT
BRANCH  13  14
ATOM     14  CB  TYR A 338     -41.621 126.456   6.339  1.00 39.15     0.058 C 
BRANCH  14  15
ATOM     15  CG  TYR A 338     -40.397 127.204   5.863  1.00 39.03    -0.020 A 
ATOM     16  CD2 TYR A 338     -39.411 126.550   5.144  1.00 40.65    -0.002 A 
ATOM     17  CE2 TYR A 338     -38.269 127.201   4.706  1.00 40.91     0.024 A 
ATOM     18  CZ  TYR A 338     -38.092 128.542   4.987  1.00 42.33     0.089 A 
ATOM     19  CE1 TYR A 338     -39.066 129.220   5.700  1.00 40.63     0.024 A 
ATOM     20  CD1 TYR A 338     -40.195 128.547   6.141  1.00 39.27    -0.002 A 
BRANCH  18  21
ATOM     21  OH  TYR A 338     -36.972 129.196   4.556  1.00 43.36    -0.359 OA
ATOM     22  HH  TYR A 338     -36.131 129.032   4.968  1.00  0.00     0.217 HD
ENDBRANCH  18  21
ENDBRANCH  14  15
ENDBRANCH  13  14
END_RES TYR A 338
ENDMDL
MODEL 2
REMARK VINA RESULT:    -9.721      1.606     16.615
REMARK INTER + INTRA:         -12.004
REMARK INTER:                 -11.637
REMARK INTRA:                  -0.367
REMARK UNBOUND:                -2.283
REMARK  0 active torsions:
REMARK  status: ('A' for Active; 'I' for Inactive)
REMARK       I    between atoms: C3_3  and  O3_21 
REMARK       I    between atoms: C6_6  and  C7_7 
REMARK       I    between atoms: C8_8  and  C9_9 
REMARK       I    between atoms: C10_10  and  C11_11 
REMARK       I    between atoms: C12_12  and  C13_13 
REMARK       I    between atoms: C14_14  and  C15_15 
REMARK       I    between atoms: C23_25  and  O23_43 
REMARK       I    between atoms: C26_28  and  C27_29 
REMARK       I    between atoms: C28_30  and  C29_31 
REMARK       I    between atoms: C30_32  and  C31_33 
REMARK       I    between atoms: C32_34  and  C33_35 
REMARK       I    between atoms: C34_36  and  C35_37 
ROOT
HETATM    1  C1  8UH G1620     -34.171 128.184   6.952  1.00 66.29    -0.018 C 
HETATM    2  C2  8UH G1620     -33.435 127.767   5.685  1.00 66.29     0.045 C 
HETATM    3  C3  8UH G1620     -32.128 128.468   5.347  1.00 66.29     0.123 C 
HETATM    4  C4  8UH G1620     -31.376 128.873   6.597  1.00 66.29     0.066 C 
HETATM    5  C5  8UH G1620     -32.270 129.710   7.463  1.00 66.29    -0.074 C 
HETATM    6  C6  8UH G1620     -33.538 129.350   7.692  1.00 66.29    -0.048 C 
HETATM    7  C7  8UH G1620     -34.359 130.076   8.694  1.00 66.29     0.009 C 
HETATM    8  C8  8UH G1620     -35.051 131.171   8.369  1.00 66.29     0.007 C 
HETATM    9  C9  8UH G1620     -35.879 131.900   9.338  1.00 66.29    -0.062 C 
HETATM   10  C10 8UH G1620     -36.457 133.030   8.923  1.00 66.29     0.007 C 
HETATM   11  C11 8UH G1620     -37.314 133.844   9.768  1.00 66.29     0.001 C 
HETATM   12  C12 8UH G1620     -37.975 134.806   9.143  1.00 66.29     0.007 C 
HETATM   13  C13 8UH G1620     -38.902 135.721   9.823  1.00 66.29    -0.062 C 
HETATM   14  C14 8UH G1620     -39.605 136.565   9.061  1.00 66.29     0.007 C 
HETATM   15  C15 8UH G1620     -40.570 137.497   9.621  1.00 66.29     0.001 C 
HETATM   16  C16 8UH G1620     -34.269 126.958   7.851  1.00 66.29     0.020 C 
HETATM   17  C17 8UH G1620     -35.578 128.596   6.548  1.00 66.29     0.020 C 
HETATM   18  C18 8UH G1620     -31.557 130.732   8.299  1.00 66.29     0.044 C 
HETATM   19  C19 8UH G1620     -36.071 131.382  10.732  1.00 66.29     0.048 C 
HETATM   20  C20 8UH G1620     -39.060 135.698  11.313  1.00 66.29     0.048 C 
HETATM   21  O3  8UH G1620     -31.312 127.568   4.594  1.00 66.29    -0.395 OA
ATOM     22  H3  8UH G1620     -31.783 127.314   3.810  1.00  0.00     0.210 HD
HETATM   23  C21 8UH G1620     -50.672 145.368   9.045  1.00 27.99    -0.018 C 
HETATM   24  C22 8UH G1620     -51.806 145.206  10.067  1.00 27.99     0.045 C 
HETATM   25  C23 8UH G1620     -51.371 145.185  11.526  1.00 27.99     0.123 C 
HETATM   26  C24 8UH G1620     -50.299 146.239  11.726  1.00 27.99     0.066 C 
HETATM   27  C25 8UH G1620     -49.116 145.763  10.934  1.00 27.99    -0.074 C 
HETATM   28  C26 8UH G1620     -49.273 145.490   9.633  1.00 27.99    -0.048 C 
HETATM   29  C27 8UH G1620     -48.141 145.073   8.775  1.00 27.99     0.009 C 
HETATM   30  C28 8UH G1620     -47.208 144.276   9.313  1.00 27.99     0.007 C 
HETATM   31  C29 8UH G1620     -46.201 143.635   8.434  1.00 66.29    -0.062 C 
HETATM   32  C30 8UH G1620     -45.562 142.583   8.952  1.00 66.29     0.007 C 
HETATM   33  C31 8UH G1620     -44.550 141.806   8.252  1.00 66.29     0.001 C 
HETATM   34  C32 8UH G1620     -43.945 140.872   8.973  1.00 66.29     0.007 C 
HETATM   35  C33 8UH G1620     -42.916 139.982   8.424  1.00 66.29    -0.062 C 
HETATM   36  C34 8UH G1620     -42.332 139.112   9.254  1.00 66.29     0.007 C 
HETATM   37  C35 8UH G1620     -41.323 138.182   8.769  1.00 66.29     0.001 C 
HETATM   38  C36 8UH G1620     -50.876 146.708   8.336  1.00 27.99     0.020 C 
HETATM   39  C37 8UH G1620     -50.768 144.226   8.036  1.00 27.99     0.020 C 
HETATM   40  C38 8UH G1620     -47.836 146.312  11.503  1.00 27.99     0.044 C 
HETATM   41  C39 8UH G1620     -45.913 144.136   7.049  1.00 66.29     0.048 C 
HETATM   42  C40 8UH G1620     -42.558 140.048   6.969  1.00 66.29     0.048 C 
HETATM   43  O23 8UH G1620     -52.491 145.445  12.382  1.00 27.99    -0.395 OA
ATOM     44  H23 8UH G1620     -53.162 144.785  12.256  1.00  0.00     0.210 HD
ENDROOT
TORSDOF 12
BEGIN_RES PHE A  61
REMARK  2 active torsions:
REMARK  status: ('A' for Active; 'I' for Inactive)
REMARK    1  A    between atoms: CA   and  CB  
REMARK    2  A    between atoms: CB   and  CG  
ROOT
ATOM      1  CA  PHE A  61     -36.237 128.293  12.768  1.00 39.40     0.164 C 
ENDROOT
BRANCH   1   2
ATOM      2  CB  PHE A  61     -36.813 128.951  11.509  1.00 39.41     0.058 C 
BRANCH   2   3
ATOM      3  CG  PHE A  61     -37.022 128.005  10.351  1.00 39.01    -0.020 A 
ATOM      4  CD2 PHE A  61     -36.270 126.847  10.233  1.00 40.32    -0.004 A 
ATOM      5  CE2 PHE A  61     -36.461 125.979   9.165  1.00 40.20    -0.000 A 
ATOM      6  CZ  PHE A  61     -37.407 126.258   8.205  1.00 40.34    -0.000 A 
ATOM      7  CE1 PHE A  61     -38.164 127.404   8.309  1.00 41.51    -0.000 A 
ATOM      8  CD1 PHE A  61     -37.969 128.275   9.373  1.00 39.94    -0.004 A 
ENDBRANCH   2   3
ENDBRANCH   1   2
END_RES PHE A  61
BEGIN_RES VAL A 134
REMARK  1 active torsions:
REMARK  status: ('A' for Active; 'I' for Inactive)
REMARK    3  A    between atoms: CA   and  CB  
ROOT
ATOM      9  CA  VAL A 134     -29.766 132.051   9.815  1.00 40.75     0.159 C 
ENDROOT
BRANCH   9  10
ATOM     10  CB  VAL A 134     -30.864 132.765   9.009  1.00 40.76     0.029 C 
ATOM     11  CG1 VAL A 134     -32.106 132.976   9.862  1.00 41.76     0.002 C 
ATOM     12  CG2 VAL A 134     -30.371 134.085   8.436  1.00 40.56     0.002 C 
ENDBRANCH   9  10
END_RES VAL A 134
BEGIN_RES TYR A 338
REMARK  3 active torsions:
REMARK  status: ('A' for Active; 'I' for Inactive)
REMARK    4  A    between atoms: CA   and  CB  
REMARK    5  A    between atoms: CB   and  CG  
REMARK    6  A    between atoms: CZ   and  OH  
ROOT
ATOM     13  CA  TYR A 338     -41.631 124.950   6.058  1.00 38.23     0.164 C 
ENDROOT
BRANCH  13  14
ATOM     14  CB  TYR A 338     -41.621 126.456   6.339  1.00 39.15     0.058 C 
BRANCH  14  15
ATOM     15  CG  TYR A 338     -40.423 127.213   5.815  1.00 39.03    -0.020 A 
ATOM     16  CD2 TYR A 338     -40.265 128.559   6.098  1.00 40.65    -0.002 A 
ATOM     17  CE2 TYR A 338     -39.187 129.289   5.621  1.00 40.91     0.024 A 
ATOM     18  CZ  TYR A 338     -38.233 128.669   4.836  1.00 42.33     0.089 A 
ATOM     19  CE1 TYR A 338     -38.366 127.323   4.543  1.00 40.63     0.024 A 
ATOM     20  CD1 TYR A 338     -39.458 126.615   5.019  1.00 39.27    -0.002 A 
BRANCH  18  21
ATOM     21  OH  TYR A 338     -37.164 129.377   4.363  1.00 43.36    -0.359 OA
ATOM     22  HH  TYR A 338     -37.296 130.201   3.910  1.00  0.00     0.217 HD
ENDBRANCH  18  21
ENDBRANCH  14  15
ENDBRANCH  13  14
END_RES TYR A 338
ENDMDL
