MODEL 1
REMARK VINA RESULT:   -12.695      0.000      0.000
REMARK INTER + INTRA:         -12.968
REMARK INTER:                 -12.695
REMARK INTRA:                  -0.274
REMARK UNBOUND:                -0.274
REMARK  0 active torsions:
REMARK  status: ('A' for Active; 'I' for Inactive)
REMARK       I    between atoms: C3_3  and  O3_21 
REMARK       I    between atoms: C6_6  and  C7_7 
REMARK       I    between atoms: C8_8  and  C9_9 
REMARK       I    between atoms: C10_10  and  C11_11 
REMARK       I    between atoms: C12_12  and  C13_13 
REMARK       I    between atoms: C14_14  and  C15_15 
REMARK       I    between atoms: C23_25  and  O23_43 
REMARK       I    between atoms: C26_28  and  C27_29 
REMARK       I    between atoms: C28_30  and  C29_31 
REMARK       I    between atoms: C30_32  and  C31_33 
REMARK       I    between atoms: C32_34  and  C33_35 
REMARK       I    between atoms: C34_36  and  C35_37 
ROOT
HETATM    1  C1  8UH 6 621     -50.133 144.275  12.961  1.00 27.76    -0.018 C 
HETATM    2  C2  8UH 6 621     -50.617 144.574  14.377  1.00 27.76     0.045 C 
HETATM    3  C3  8UH 6 621     -49.982 145.718  15.160  1.00 27.76     0.123 C 
HETATM    4  C4  8UH 6 621     -49.412 146.788  14.256  1.00 27.76     0.066 C 
HETATM    5  C5  8UH 6 621     -48.512 146.142  13.239  1.00 27.76    -0.074 C 
HETATM    6  C6  8UH 6 621     -48.897 145.056  12.565  1.00 27.76    -0.048 C 
HETATM    7  C7  8UH 6 621     -48.108 144.620  11.386  1.00 27.76     0.009 C 
HETATM    8  C8  8UH 6 621     -47.124 143.717  11.464  1.00 27.76     0.007 C 
HETATM    9  C9  8UH 6 621     -46.354 143.315  10.275  1.00 27.76    -0.062 C 
HETATM   10  C10 8UH 6 621     -45.403 142.371  10.415  1.00 27.76     0.007 C 
HETATM   11  C11 8UH 6 621     -44.523 141.856   9.365  1.00 27.76     0.001 C 
HETATM   12  C12 8UH 6 621     -43.546 141.050   9.770  1.00 27.76     0.007 C 
HETATM   13  C13 8UH 6 621     -42.532 140.375   8.939  1.00 27.76    -0.062 C 
HETATM   14  C14 8UH 6 621     -41.866 139.364   9.515  1.00 27.76     0.007 C 
HETATM   15  C15 8UH 6 621     -40.854 138.550   8.853  1.00 27.76     0.001 C 
HETATM   16  C16 8UH 6 621     -51.302 144.545  12.018  1.00 27.76     0.020 C 
HETATM   17  C17 8UH 6 621     -49.778 142.800  12.876  1.00 27.76     0.020 C 
HETATM   18  C18 8UH 6 621     -47.450 147.059  12.706  1.00 27.76     0.044 C 
HETATM   19  C19 8UH 6 621     -46.650 143.970   8.964  1.00 27.76     0.048 C 
HETATM   20  C20 8UH 6 621     -42.254 140.781   7.527  1.00 27.76     0.048 C 
HETATM   21  O3  8UH 6 621     -50.966 146.317  16.008  1.00 27.76    -0.395 OA
ATOM     22  H3  8UH 6 621     -50.570 147.030  16.495  1.00  0.00     0.210 HD
HETATM   23  C21 8UH 6 621     -34.155 128.069   7.025  1.00 56.99    -0.018 C 
HETATM   24  C22 8UH 6 621     -33.583 127.684   5.662  1.00 56.99     0.045 C 
HETATM   25  C23 8UH 6 621     -32.326 128.404   5.190  1.00 56.99     0.123 C 
HETATM   26  C24 8UH 6 621     -31.446 128.819   6.351  1.00 56.99     0.066 C 
HETATM   27  C25 8UH 6 621     -32.261 129.642   7.308  1.00 56.99    -0.074 C 
HETATM   28  C26 8UH 6 621     -33.490 129.272   7.665  1.00 56.99    -0.048 C 
HETATM   29  C27 8UH 6 621     -34.214 130.037   8.716  1.00 56.99     0.009 C 
HETATM   30  C28 8UH 6 621     -35.052 131.028   8.406  1.00 56.99     0.007 C 
HETATM   31  C29 8UH 6 621     -35.794 131.815   9.398  1.00 27.76    -0.062 C 
HETATM   32  C30 8UH 6 621     -36.725 132.640   8.911  1.00 27.76     0.007 C 
HETATM   33  C31 8UH 6 621     -37.596 133.497   9.702  1.00 27.76     0.001 C 
HETATM   34  C32 8UH 6 621     -38.220 134.442   9.011  1.00 27.76     0.007 C 
HETATM   35  C33 8UH 6 621     -39.168 135.395   9.598  1.00 27.76    -0.062 C 
HETATM   36  C34 8UH 6 621     -39.603 136.437   8.869  1.00 27.76     0.007 C 
HETATM   37  C35 8UH 6 621     -40.571 137.380   9.424  1.00 27.76     0.001 C 
HETATM   38  C36 8UH 6 621     -34.093 126.840   7.929  1.00 56.99     0.020 C 
HETATM   39  C37 8UH 6 621     -35.612 128.429   6.818  1.00 56.99     0.020 C 
HETATM   40  C38 8UH 6 621     -31.529 130.735   8.019  1.00 56.99     0.044 C 
HETATM   41  C39 8UH 6 621     -35.523 131.686  10.867  1.00 27.76     0.048 C 
HETATM   42  C40 8UH 6 621     -39.657 135.163  10.989  1.00 27.76     0.048 C 
HETATM   43  O23 8UH 6 621     -31.575 127.518   4.355  1.00 56.99    -0.395 OA
ATOM     44  H23 8UH 6 621     -30.791 127.967   4.060  1.00  0.00     0.210 HD
ENDROOT
TORSDOF 12
BEGIN_RES PHE A  61
REMARK  2 active torsions:
REMARK  status: ('A' for Active; 'I' for Inactive)
REMARK    1  A    between atoms: CA   and  CB  
REMARK    2  A    between atoms: CB   and  CG  
ROOT
ATOM      1  CA  PHE A  61     -36.237 128.293  12.768  1.00 39.40     0.164 C 
ENDROOT
BRANCH   1   2
ATOM      2  CB  PHE A  61     -36.813 128.951  11.509  1.00 39.41     0.058 C 
BRANCH   2   3
ATOM      3  CG  PHE A  61     -37.044 128.001  10.358  1.00 39.01    -0.020 A 
ATOM      4  CD2 PHE A  61     -36.301 126.837  10.236  1.00 40.32    -0.004 A 
ATOM      5  CE2 PHE A  61     -36.512 125.966   9.175  1.00 40.20    -0.000 A 
ATOM      6  CZ  PHE A  61     -37.470 126.245   8.227  1.00 40.34    -0.000 A 
ATOM      7  CE1 PHE A  61     -38.218 127.397   8.336  1.00 41.51    -0.000 A 
ATOM      8  CD1 PHE A  61     -38.003 128.272   9.393  1.00 39.94    -0.004 A 
ENDBRANCH   2   3
ENDBRANCH   1   2
END_RES PHE A  61
BEGIN_RES VAL A 134
REMARK  1 active torsions:
REMARK  status: ('A' for Active; 'I' for Inactive)
REMARK    3  A    between atoms: CA   and  CB  
ROOT
ATOM      9  CA  VAL A 134     -29.766 132.051   9.815  1.00 40.75     0.159 C 
ENDROOT
BRANCH   9  10
ATOM     10  CB  VAL A 134     -30.864 132.765   9.009  1.00 40.76     0.029 C 
ATOM     11  CG1 VAL A 134     -32.107 132.975   9.862  1.00 41.76     0.002 C 
ATOM     12  CG2 VAL A 134     -30.371 134.085   8.437  1.00 40.56     0.002 C 
ENDBRANCH   9  10
END_RES VAL A 134
BEGIN_RES TYR A 338
REMARK  3 active torsions:
REMARK  status: ('A' for Active; 'I' for Inactive)
REMARK    4  A    between atoms: CA   and  CB  
REMARK    5  A    between atoms: CB   and  CG  
REMARK    6  A    between atoms: CZ   and  OH  
ROOT
ATOM     13  CA  TYR A 338     -41.631 124.950   6.058  1.00 38.23     0.164 C 
ENDROOT
BRANCH  13  14
ATOM     14  CB  TYR A 338     -41.621 126.456   6.339  1.00 39.15     0.058 C 
BRANCH  14  15
ATOM     15  CG  TYR A 338     -40.414 127.210   5.831  1.00 39.03    -0.020 A 
ATOM     16  CD2 TYR A 338     -40.260 128.557   6.110  1.00 40.65    -0.002 A 
ATOM     17  CE2 TYR A 338     -39.174 129.284   5.647  1.00 40.91     0.024 A 
ATOM     18  CZ  TYR A 338     -38.208 128.660   4.881  1.00 42.33     0.089 A 
ATOM     19  CE1 TYR A 338     -38.337 127.313   4.592  1.00 40.63     0.024 A 
ATOM     20  CD1 TYR A 338     -39.437 126.607   5.053  1.00 39.27    -0.002 A 
BRANCH  18  21
ATOM     21  OH  TYR A 338     -37.131 129.365   4.422  1.00 43.36    -0.359 OA
ATOM     22  HH  TYR A 338     -37.253 130.199   3.984  1.00  0.00     0.217 HD
ENDBRANCH  18  21
ENDBRANCH  14  15
ENDBRANCH  13  14
END_RES TYR A 338
ENDMDL
MODEL 2
REMARK VINA RESULT:   -12.528      1.607     16.680
REMARK INTER + INTRA:         -12.802
REMARK INTER:                  -9.618
REMARK INTRA:                  -3.184
REMARK UNBOUND:                -0.274
REMARK  0 active torsions:
REMARK  status: ('A' for Active; 'I' for Inactive)
REMARK       I    between atoms: C3_3  and  O3_21 
REMARK       I    between atoms: C6_6  and  C7_7 
REMARK       I    between atoms: C8_8  and  C9_9 
REMARK       I    between atoms: C10_10  and  C11_11 
REMARK       I    between atoms: C12_12  and  C13_13 
REMARK       I    between atoms: C14_14  and  C15_15 
REMARK       I    between atoms: C23_25  and  O23_43 
REMARK       I    between atoms: C26_28  and  C27_29 
REMARK       I    between atoms: C28_30  and  C29_31 
REMARK       I    between atoms: C30_32  and  C31_33 
REMARK       I    between atoms: C32_34  and  C33_35 
REMARK       I    between atoms: C34_36  and  C35_37 
ROOT
HETATM    1  C1  8UH 6 621     -34.339 127.570   6.366  1.00 27.76    -0.018 C 
HETATM    2  C2  8UH 6 621     -33.707 127.153   5.041  1.00 27.76     0.045 C 
HETATM    3  C3  8UH 6 621     -32.337 127.700   4.661  1.00 27.76     0.123 C 
HETATM    4  C4  8UH 6 621     -31.509 128.075   5.870  1.00 27.76     0.066 C 
HETATM    5  C5  8UH 6 621     -32.323 128.974   6.760  1.00 27.76    -0.074 C 
HETATM    6  C6  8UH 6 621     -33.585 128.675   7.078  1.00 27.76    -0.048 C 
HETATM    7  C7  8UH 6 621     -34.253 129.426   8.169  1.00 27.76     0.009 C 
HETATM    8  C8  8UH 6 621     -35.001 130.514   7.949  1.00 27.76     0.007 C 
HETATM    9  C9  8UH 6 621     -35.641 131.243   9.057  1.00 27.76    -0.062 C 
HETATM   10  C10 8UH 6 621     -36.414 132.306   8.764  1.00 27.76     0.007 C 
HETATM   11  C11 8UH 6 621     -37.113 133.167   9.719  1.00 27.76     0.001 C 
HETATM   12  C12 8UH 6 621     -37.678 134.258   9.212  1.00 27.76     0.007 C 
HETATM   13  C13 8UH 6 621     -38.457 135.286   9.928  1.00 27.76    -0.062 C 
HETATM   14  C14 8UH 6 621     -39.200 136.105   9.171  1.00 27.76     0.007 C 
HETATM   15  C15 8UH 6 621     -40.066 137.159   9.687  1.00 27.76     0.001 C 
HETATM   16  C16 8UH 6 621     -34.454 126.315   7.228  1.00 27.76     0.020 C 
HETATM   17  C17 8UH 6 621     -35.740 128.091   6.088  1.00 27.76     0.020 C 
HETATM   18  C18 8UH 6 621     -31.492 129.879   7.622  1.00 27.76     0.044 C 
HETATM   19  C19 8UH 6 621     -35.406 130.781  10.459  1.00 27.76     0.048 C 
HETATM   20  C20 8UH 6 621     -38.434 135.415  11.417  1.00 27.76     0.048 C 
HETATM   21  O3  8UH 6 621     -31.623 126.713   3.911  1.00 27.76    -0.395 OA
ATOM     22  H3  8UH 6 621     -30.769 127.054   3.675  1.00  0.00     0.210 HD
HETATM   23  C21 8UH 6 621     -49.953 144.914   9.294  1.00 56.99    -0.018 C 
HETATM   24  C22 8UH 6 621     -50.644 145.433  10.554  1.00 56.99     0.045 C 
HETATM   25  C23 8UH 6 621     -49.967 146.560  11.323  1.00 56.99     0.123 C 
HETATM   26  C24 8UH 6 621     -49.164 147.462  10.408  1.00 56.99     0.066 C 
HETATM   27  C25 8UH 6 621     -48.190 146.623   9.631  1.00 56.99    -0.074 C 
HETATM   28  C26 8UH 6 621     -48.562 145.474   9.069  1.00 56.99    -0.048 C 
HETATM   29  C27 8UH 6 621     -47.609 144.739   8.194  1.00 56.99     0.009 C 
HETATM   30  C28 8UH 6 621     -46.827 143.770   8.674  1.00 56.99     0.007 C 
HETATM   31  C29 8UH 6 621     -45.871 143.009   7.861  1.00 27.76    -0.062 C 
HETATM   32  C30 8UH 6 621     -45.306 141.956   8.457  1.00 27.76     0.007 C 
HETATM   33  C31 8UH 6 621     -44.350 141.046   7.842  1.00 27.76     0.001 C 
HETATM   34  C32 8UH 6 621     -43.698 140.267   8.696  1.00 27.76     0.007 C 
HETATM   35  C33 8UH 6 621     -42.715 139.255   8.295  1.00 27.76    -0.062 C 
HETATM   36  C34 8UH 6 621     -41.962 138.651   9.229  1.00 27.76     0.007 C 
HETATM   37  C35 8UH 6 621     -40.999 137.618   8.854  1.00 27.76     0.001 C 
HETATM   38  C36 8UH 6 621     -50.872 145.184   8.104  1.00 56.99     0.020 C 
HETATM   39  C37 8UH 6 621     -49.806 143.414   9.445  1.00 56.99     0.020 C 
HETATM   40  C38 8UH 6 621     -46.879 147.267   9.315  1.00 56.99     0.044 C 
HETATM   41  C39 8UH 6 621     -45.561 143.394   6.446  1.00 27.76     0.048 C 
HETATM   42  C40 8UH 6 621     -42.598 138.895   6.851  1.00 27.76     0.048 C 
HETATM   43  O23 8UH 6 621     -50.974 147.351  11.960  1.00 56.99    -0.395 OA
ATOM     44  H23 8UH 6 621     -50.551 148.054  12.440  1.00  0.00     0.210 HD
ENDROOT
TORSDOF 12
BEGIN_RES PHE A  61
REMARK  2 active torsions:
REMARK  status: ('A' for Active; 'I' for Inactive)
REMARK    1  A    between atoms: CA   and  CB  
REMARK    2  A    between atoms: CB   and  CG  
ROOT
ATOM      1  CA  PHE A  61     -36.237 128.293  12.768  1.00 39.40     0.164 C 
ENDROOT
BRANCH   1   2
ATOM      2  CB  PHE A  61     -36.813 128.951  11.509  1.00 39.41     0.058 C 
BRANCH   2   3
ATOM      3  CG  PHE A  61     -37.004 128.009  10.344  1.00 39.01    -0.020 A 
ATOM      4  CD2 PHE A  61     -36.201 126.889  10.196  1.00 40.32    -0.004 A 
ATOM      5  CE2 PHE A  61     -36.376 126.025   9.122  1.00 40.20    -0.000 A 
ATOM      6  CZ  PHE A  61     -37.357 126.269   8.188  1.00 40.34    -0.000 A 
ATOM      7  CE1 PHE A  61     -38.165 127.376   8.323  1.00 41.51    -0.000 A 
ATOM      8  CD1 PHE A  61     -37.986 128.244   9.392  1.00 39.94    -0.004 A 
ENDBRANCH   2   3
ENDBRANCH   1   2
END_RES PHE A  61
BEGIN_RES VAL A 134
REMARK  1 active torsions:
REMARK  status: ('A' for Active; 'I' for Inactive)
REMARK    3  A    between atoms: CA   and  CB  
ROOT
ATOM      9  CA  VAL A 134     -29.766 132.051   9.815  1.00 40.75     0.159 C 
ENDROOT
BRANCH   9  10
ATOM     10  CB  VAL A 134     -30.864 132.765   9.009  1.00 40.76     0.029 C 
ATOM     11  CG1 VAL A 134     -30.861 132.295   7.562  1.00 41.76     0.002 C 
ATOM     12  CG2 VAL A 134     -32.236 132.572   9.636  1.00 40.56     0.002 C 
ENDBRANCH   9  10
END_RES VAL A 134
BEGIN_RES TYR A 338
REMARK  3 active torsions:
REMARK  status: ('A' for Active; 'I' for Inactive)
REMARK    4  A    between atoms: CA   and  CB  
REMARK    5  A    between atoms: CB   and  CG  
REMARK    6  A    between atoms: CZ   and  OH  
ROOT
ATOM     13  CA  TYR A 338     -41.631 124.950   6.058  1.00 38.23     0.164 C 
ENDROOT
BRANCH  13  14
ATOM     14  CB  TYR A 338     -41.621 126.456   6.339  1.00 39.15     0.058 C 
BRANCH  14  15
ATOM     15  CG  TYR A 338     -40.429 127.215   5.804  1.00 39.03    -0.020 A 
ATOM     16  CD2 TYR A 338     -40.263 128.558   6.098  1.00 40.65    -0.002 A 
ATOM     17  CE2 TYR A 338     -39.191 129.289   5.612  1.00 40.91     0.024 A 
ATOM     18  CZ  TYR A 338     -38.250 128.675   4.806  1.00 42.33     0.089 A 
ATOM     19  CE1 TYR A 338     -38.391 127.332   4.502  1.00 40.63     0.024 A 
ATOM     20  CD1 TYR A 338     -39.478 126.622   4.988  1.00 39.27    -0.002 A 
BRANCH  18  21
ATOM     21  OH  TYR A 338     -37.186 129.385   4.325  1.00 43.36    -0.359 OA
ATOM     22  HH  TYR A 338     -37.039 129.454   3.389  1.00  0.00     0.217 HD
ENDBRANCH  18  21
ENDBRANCH  14  15
ENDBRANCH  13  14
END_RES TYR A 338
ENDMDL
