MODEL 1
REMARK VINA RESULT:   -12.034      0.000      0.000
REMARK INTER + INTRA:         -14.303
REMARK INTER:                 -12.034
REMARK INTRA:                  -2.269
REMARK UNBOUND:                -2.269
REMARK  0 active torsions:
REMARK  status: ('A' for Active; 'I' for Inactive)
REMARK       I    between atoms: C3_3  and  O3_21 
REMARK       I    between atoms: C6_6  and  C7_7 
REMARK       I    between atoms: C8_8  and  C9_9 
REMARK       I    between atoms: C10_10  and  C11_11 
REMARK       I    between atoms: C12_12  and  C13_13 
REMARK       I    between atoms: C14_14  and  C15_15 
REMARK       I    between atoms: C23_25  and  O23_43 
REMARK       I    between atoms: C26_28  and  C27_29 
REMARK       I    between atoms: C28_30  and  C29_31 
REMARK       I    between atoms: C30_32  and  C31_33 
REMARK       I    between atoms: C32_34  and  C33_35 
REMARK       I    between atoms: C34_36  and  C35_37 
ROOT
HETATM    1  C1  8UH C2620     -49.296 144.799  12.002  1.00 23.07    -0.018 C 
HETATM    2  C2  8UH C2620     -49.917 145.423  13.266  1.00 21.39     0.045 C 
HETATM    3  C3  8UH C2620     -49.093 146.456  14.027  1.00 23.10     0.123 C 
HETATM    4  C4  8UH C2620     -48.119 147.258  13.160  1.00 23.25     0.066 C 
HETATM    5  C5  8UH C2620     -47.423 146.540  12.047  1.00 22.57    -0.074 C 
HETATM    6  C6  8UH C2620     -47.948 145.397  11.489  1.00 22.63    -0.048 C 
HETATM    7  C7  8UH C2620     -47.265 144.694  10.394  1.00 23.01     0.009 C 
HETATM    8  C8  8UH C2620     -46.199 143.881  10.522  1.00 21.85     0.007 C 
HETATM    9  C9  8UH C2620     -45.418 143.258   9.460  1.00 21.21    -0.062 C 
HETATM   10  C10 8UH C2620     -44.451 142.386   9.823  1.00 18.43     0.007 C 
HETATM   11  C11 8UH C2620     -43.591 141.643   8.948  1.00 19.90     0.001 C 
HETATM   12  C12 8UH C2620     -42.781 140.684   9.439  1.00 21.34     0.007 C 
HETATM   13  C13 8UH C2620     -41.876 139.791   8.702  1.00 23.03    -0.062 C 
HETATM   14  C14 8UH C2620     -41.234 138.832   9.406  1.00 23.84     0.007 C 
HETATM   15  C15 8UH C2620     -40.375 137.804   8.891  1.00 23.61     0.001 C 
HETATM   16  C16 8UH C2620     -50.394 145.004  10.942  1.00 21.40     0.020 C 
HETATM   17  C17 8UH C2620     -49.150 143.282  12.258  1.00 21.74     0.020 C 
HETATM   18  C18 8UH C2620     -46.178 147.283  11.712  1.00 21.99     0.044 C 
HETATM   19  C19 8UH C2620     -45.784 143.588   8.035  1.00 18.93     0.048 C 
HETATM   20  C20 8UH C2620     -41.771 139.953   7.213  1.00 19.82     0.048 C 
HETATM   21  O3  8UH C2620     -49.944 147.333  14.741  1.00 24.94    -0.395 OA
ATOM     22  H3  8UH C2620     -49.431 147.977  15.215  1.00  0.00     0.210 HD
HETATM   23  C21 8UH C2620     -34.319 127.124   6.616  1.00 33.20    -0.018 C 
HETATM   24  C22 8UH C2620     -33.995 126.733   5.181  1.00 33.20     0.045 C 
HETATM   25  C23 8UH C2620     -32.859 127.476   4.500  1.00 33.20     0.123 C 
HETATM   26  C24 8UH C2620     -31.766 127.810   5.471  1.00 33.20     0.066 C 
HETATM   27  C25 8UH C2620     -32.318 128.609   6.600  1.00 33.20    -0.074 C 
HETATM   28  C26 8UH C2620     -33.492 128.285   7.139  1.00 33.20    -0.048 C 
HETATM   29  C27 8UH C2620     -33.997 129.069   8.281  1.00 33.20     0.009 C 
HETATM   30  C28 8UH C2620     -34.807 130.093   8.063  1.00 33.20     0.007 C 
HETATM   31  C29 8UH C2620     -35.385 130.948   9.139  1.00 28.48    -0.062 C 
HETATM   32  C30 8UH C2620     -36.192 131.966   8.772  1.00 28.77     0.007 C 
HETATM   33  C31 8UH C2620     -36.875 132.872   9.655  1.00 29.15     0.001 C 
HETATM   34  C32 8UH C2620     -37.617 133.890   9.185  1.00 28.55     0.007 C 
HETATM   35  C33 8UH C2620     -38.367 134.902   9.932  1.00 27.96    -0.062 C 
HETATM   36  C34 8UH C2620     -39.017 135.847   9.219  1.00 26.60     0.007 C 
HETATM   37  C35 8UH C2620     -39.822 136.920   9.713  1.00 25.80     0.001 C 
HETATM   38  C36 8UH C2620     -34.164 125.863   7.459  1.00 33.20     0.020 C 
HETATM   39  C37 8UH C2620     -35.778 127.543   6.645  1.00 33.20     0.020 C 
HETATM   40  C38 8UH C2620     -31.445 129.716   7.102  1.00 33.20     0.044 C 
HETATM   41  C39 8UH C2620     -35.032 130.648  10.564  1.00 27.66     0.048 C 
HETATM   42  C40 8UH C2620     -38.351 134.825  11.434  1.00 25.55     0.048 C 
HETATM   43  O23 8UH C2620     -32.281 126.638   3.501  1.00 33.20    -0.395 OA
ATOM     44  H23 8UH C2620     -31.571 127.103   3.075  1.00  0.00     0.210 HD
ENDROOT
TORSDOF 12
BEGIN_RES PHE A  61
REMARK  2 active torsions:
REMARK  status: ('A' for Active; 'I' for Inactive)
REMARK    1  A    between atoms: CA   and  CB  
REMARK    2  A    between atoms: CB   and  CG  
ROOT
ATOM      1  CA  PHE A  61     -36.237 128.293  12.768  1.00 39.40     0.164 C 
ENDROOT
BRANCH   1   2
ATOM      2  CB  PHE A  61     -36.813 128.951  11.509  1.00 39.41     0.058 C 
BRANCH   2   3
ATOM      3  CG  PHE A  61     -37.085 127.994  10.373  1.00 39.01    -0.020 A 
ATOM      4  CD2 PHE A  61     -38.052 128.275   9.421  1.00 40.32    -0.004 A 
ATOM      5  CE2 PHE A  61     -38.304 127.392   8.379  1.00 40.20    -0.000 A 
ATOM      6  CZ  PHE A  61     -37.589 126.220   8.274  1.00 40.34    -0.000 A 
ATOM      7  CE1 PHE A  61     -36.623 125.927   9.211  1.00 41.51    -0.000 A 
ATOM      8  CD1 PHE A  61     -36.376 126.807  10.257  1.00 39.94    -0.004 A 
ENDBRANCH   2   3
ENDBRANCH   1   2
END_RES PHE A  61
BEGIN_RES VAL A 134
REMARK  1 active torsions:
REMARK  status: ('A' for Active; 'I' for Inactive)
REMARK    3  A    between atoms: CA   and  CB  
ROOT
ATOM      9  CA  VAL A 134     -29.766 132.051   9.815  1.00 40.75     0.159 C 
ENDROOT
BRANCH   9  10
ATOM     10  CB  VAL A 134     -30.864 132.765   9.009  1.00 40.76     0.029 C 
ATOM     11  CG1 VAL A 134     -30.872 132.282   7.566  1.00 41.76     0.002 C 
ATOM     12  CG2 VAL A 134     -32.234 132.587   9.646  1.00 40.56     0.002 C 
ENDBRANCH   9  10
END_RES VAL A 134
BEGIN_RES TYR A 338
REMARK  3 active torsions:
REMARK  status: ('A' for Active; 'I' for Inactive)
REMARK    4  A    between atoms: CA   and  CB  
REMARK    5  A    between atoms: CB   and  CG  
REMARK    6  A    between atoms: CZ   and  OH  
ROOT
ATOM     13  CA  TYR A 338     -41.631 124.950   6.058  1.00 38.23     0.164 C 
ENDROOT
BRANCH  13  14
ATOM     14  CB  TYR A 338     -41.621 126.456   6.339  1.00 39.15     0.058 C 
BRANCH  14  15
ATOM     15  CG  TYR A 338     -40.418 127.212   5.822  1.00 39.03    -0.020 A 
ATOM     16  CD2 TYR A 338     -40.251 128.553   6.123  1.00 40.65    -0.002 A 
ATOM     17  CE2 TYR A 338     -39.169 129.281   5.654  1.00 40.91     0.024 A 
ATOM     18  CZ  TYR A 338     -38.221 128.665   4.859  1.00 42.33     0.089 A 
ATOM     19  CE1 TYR A 338     -38.363 127.324   4.548  1.00 40.63     0.024 A 
ATOM     20  CD1 TYR A 338     -39.460 126.617   5.017  1.00 39.27    -0.002 A 
BRANCH  18  21
ATOM     21  OH  TYR A 338     -37.147 129.372   4.394  1.00 43.36    -0.359 OA
ATOM     22  HH  TYR A 338     -36.278 129.212   4.744  1.00  0.00     0.217 HD
ENDBRANCH  18  21
ENDBRANCH  14  15
ENDBRANCH  13  14
END_RES TYR A 338
ENDMDL
MODEL 2
REMARK VINA RESULT:    -9.053      0.471     16.810
REMARK INTER + INTRA:         -11.322
REMARK INTER:                  -9.030
REMARK INTRA:                  -2.293
REMARK UNBOUND:                -2.269
REMARK  0 active torsions:
REMARK  status: ('A' for Active; 'I' for Inactive)
REMARK       I    between atoms: C3_3  and  O3_21 
REMARK       I    between atoms: C6_6  and  C7_7 
REMARK       I    between atoms: C8_8  and  C9_9 
REMARK       I    between atoms: C10_10  and  C11_11 
REMARK       I    between atoms: C12_12  and  C13_13 
REMARK       I    between atoms: C14_14  and  C15_15 
REMARK       I    between atoms: C23_25  and  O23_43 
REMARK       I    between atoms: C26_28  and  C27_29 
REMARK       I    between atoms: C28_30  and  C29_31 
REMARK       I    between atoms: C30_32  and  C31_33 
REMARK       I    between atoms: C32_34  and  C33_35 
REMARK       I    between atoms: C34_36  and  C35_37 
ROOT
HETATM    1  C1  8UH C2620     -34.474 127.135   6.384  1.00 23.07    -0.018 C 
HETATM    2  C2  8UH C2620     -33.921 126.478   5.105  1.00 21.39     0.045 C 
HETATM    3  C3  8UH C2620     -32.751 127.160   4.404  1.00 23.10     0.123 C 
HETATM    4  C4  8UH C2620     -31.830 127.957   5.333  1.00 23.25     0.066 C 
HETATM    5  C5  8UH C2620     -32.459 128.709   6.462  1.00 22.57    -0.074 C 
HETATM    6  C6  8UH C2620     -33.685 128.348   6.971  1.00 22.63    -0.048 C 
HETATM    7  C7  8UH C2620     -34.302 129.086   8.083  1.00 23.01     0.009 C 
HETATM    8  C8  8UH C2620     -34.934 130.271   7.989  1.00 21.85     0.007 C 
HETATM    9  C9  8UH C2620     -35.455 131.094   9.073  1.00 21.21    -0.062 C 
HETATM   10  C10 8UH C2620     -36.153 132.202   8.738  1.00 18.43     0.007 C 
HETATM   11  C11 8UH C2620     -36.776 133.131   9.638  1.00 19.90     0.001 C 
HETATM   12  C12 8UH C2620     -37.582 134.102   9.166  1.00 21.34     0.007 C 
HETATM   13  C13 8UH C2620     -38.342 135.105   9.926  1.00 23.03    -0.062 C 
HETATM   14  C14 8UH C2620     -39.168 135.921   9.234  1.00 23.84     0.007 C 
HETATM   15  C15 8UH C2620     -40.061 136.909   9.768  1.00 23.61     0.001 C 
HETATM   16  C16 8UH C2620     -34.474 125.973   7.395  1.00 21.40     0.020 C 
HETATM   17  C17 8UH C2620     -35.942 127.530   6.104  1.00 21.74     0.020 C 
HETATM   18  C18 8UH C2620     -31.539 129.804   6.871  1.00 21.99     0.044 C 
HETATM   19  C19 8UH C2620     -35.227 130.619  10.486  1.00 18.93     0.048 C 
HETATM   20  C20 8UH C2620     -38.206 135.119  11.421  1.00 19.82     0.048 C 
HETATM   21  O3  8UH C2620     -31.999 126.212   3.669  1.00 24.94    -0.395 OA
ATOM     22  H3  8UH C2620     -31.270 126.637   3.233  1.00  0.00     0.210 HD
HETATM   23  C21 8UH C2620     -49.714 144.477  12.107  1.00 33.20    -0.018 C 
HETATM   24  C22 8UH C2620     -50.089 144.796  13.547  1.00 33.20     0.045 C 
HETATM   25  C23 8UH C2620     -49.195 145.769  14.296  1.00 33.20     0.123 C 
HETATM   26  C24 8UH C2620     -48.667 146.836  13.384  1.00 33.20     0.066 C 
HETATM   27  C25 8UH C2620     -47.934 146.214  12.247  1.00 33.20    -0.074 C 
HETATM   28  C26 8UH C2620     -48.423 145.130  11.647  1.00 33.20    -0.048 C 
HETATM   29  C27 8UH C2620     -47.698 144.558  10.498  1.00 33.20     0.009 C 
HETATM   30  C28 8UH C2620     -46.820 143.587  10.699  1.00 33.20     0.007 C 
HETATM   31  C29 8UH C2620     -46.037 142.927   9.615  1.00 28.48    -0.062 C 
HETATM   32  C30 8UH C2620     -45.170 141.955   9.964  1.00 28.77     0.007 C 
HETATM   33  C31 8UH C2620     -44.358 141.175   9.069  1.00 29.15     0.001 C 
HETATM   34  C32 8UH C2620     -43.483 140.262   9.523  1.00 28.55     0.007 C 
HETATM   35  C33 8UH C2620     -42.581 139.394   8.763  1.00 27.96    -0.062 C 
HETATM   36  C34 8UH C2620     -41.770 138.573   9.464  1.00 26.60     0.007 C 
HETATM   37  C35 8UH C2620     -40.824 137.630   8.955  1.00 25.80     0.001 C 
HETATM   38  C36 8UH C2620     -50.912 144.865  11.246  1.00 33.20     0.020 C 
HETATM   39  C37 8UH C2620     -49.529 142.972  12.017  1.00 33.20     0.020 C 
HETATM   40  C38 8UH C2620     -46.689 146.921  11.809  1.00 33.20     0.044 C 
HETATM   41  C39 8UH C2620     -46.238 143.385   8.202  1.00 27.66     0.048 C 
HETATM   42  C40 8UH C2620     -42.613 139.487   7.263  1.00 25.55     0.048 C 
HETATM   43  O23 8UH C2620     -49.959 146.429  15.303  1.00 33.20    -0.395 OA
ATOM     44  H23 8UH C2620     -49.400 147.037  15.772  1.00  0.00     0.210 HD
ENDROOT
TORSDOF 12
BEGIN_RES PHE A  61
REMARK  2 active torsions:
REMARK  status: ('A' for Active; 'I' for Inactive)
REMARK    1  A    between atoms: CA   and  CB  
REMARK    2  A    between atoms: CB   and  CG  
ROOT
ATOM      1  CA  PHE A  61     -36.237 128.293  12.768  1.00 39.40     0.164 C 
ENDROOT
BRANCH   1   2
ATOM      2  CB  PHE A  61     -36.813 128.951  11.509  1.00 39.41     0.058 C 
BRANCH   2   3
ATOM      3  CG  PHE A  61     -37.069 127.996  10.368  1.00 39.01    -0.020 A 
ATOM      4  CD2 PHE A  61     -36.356 126.814  10.255  1.00 40.32    -0.004 A 
ATOM      5  CE2 PHE A  61     -36.590 125.938   9.203  1.00 40.20    -0.000 A 
ATOM      6  CZ  PHE A  61     -37.543 126.232   8.254  1.00 40.34    -0.000 A 
ATOM      7  CE1 PHE A  61     -38.262 127.402   8.353  1.00 41.51    -0.000 A 
ATOM      8  CD1 PHE A  61     -38.023 128.282   9.401  1.00 39.94    -0.004 A 
ENDBRANCH   2   3
ENDBRANCH   1   2
END_RES PHE A  61
BEGIN_RES VAL A 134
REMARK  1 active torsions:
REMARK  status: ('A' for Active; 'I' for Inactive)
REMARK    3  A    between atoms: CA   and  CB  
ROOT
ATOM      9  CA  VAL A 134     -29.766 132.051   9.815  1.00 40.75     0.159 C 
ENDROOT
BRANCH   9  10
ATOM     10  CB  VAL A 134     -30.864 132.765   9.009  1.00 40.76     0.029 C 
ATOM     11  CG1 VAL A 134     -30.859 132.298   7.561  1.00 41.76     0.002 C 
ATOM     12  CG2 VAL A 134     -32.236 132.570   9.635  1.00 40.56     0.002 C 
ENDBRANCH   9  10
END_RES VAL A 134
BEGIN_RES TYR A 338
REMARK  3 active torsions:
REMARK  status: ('A' for Active; 'I' for Inactive)
REMARK    4  A    between atoms: CA   and  CB  
REMARK    5  A    between atoms: CB   and  CG  
REMARK    6  A    between atoms: CZ   and  OH  
ROOT
ATOM     13  CA  TYR A 338     -41.631 124.950   6.058  1.00 38.23     0.164 C 
ENDROOT
BRANCH  13  14
ATOM     14  CB  TYR A 338     -41.621 126.456   6.339  1.00 39.15     0.058 C 
BRANCH  14  15
ATOM     15  CG  TYR A 338     -40.428 127.215   5.806  1.00 39.03    -0.020 A 
ATOM     16  CD2 TYR A 338     -40.250 128.552   6.119  1.00 40.65    -0.002 A 
ATOM     17  CE2 TYR A 338     -39.177 129.283   5.635  1.00 40.91     0.024 A 
ATOM     18  CZ  TYR A 338     -38.247 128.674   4.813  1.00 42.33     0.089 A 
ATOM     19  CE1 TYR A 338     -38.400 127.337   4.489  1.00 40.63     0.024 A 
ATOM     20  CD1 TYR A 338     -39.488 126.627   4.973  1.00 39.27    -0.002 A 
BRANCH  18  21
ATOM     21  OH  TYR A 338     -37.182 129.384   4.333  1.00 43.36    -0.359 OA
ATOM     22  HH  TYR A 338     -36.429 129.553   4.887  1.00  0.00     0.217 HD
ENDBRANCH  18  21
ENDBRANCH  14  15
ENDBRANCH  13  14
END_RES TYR A 338
ENDMDL
