REMARK VINA RESULT:    -8.426      2.200      2.739
REMARK INTER + INTRA:         -11.978
REMARK INTER:                 -11.231
REMARK INTRA:                  -0.747
REMARK UNBOUND:                -3.552
REMARK  0 active torsions:
REMARK  status: ('A' for Active; 'I' for Inactive)
REMARK       I    between atoms: C3_3  and  O3_21 
REMARK       I    between atoms: C6_6  and  C7_7 
REMARK       I    between atoms: C8_8  and  C9_9 
REMARK       I    between atoms: C10_10  and  C11_11 
REMARK       I    between atoms: C12_12  and  C13_13 
REMARK       I    between atoms: C14_14  and  C15_15 
REMARK       I    between atoms: C23_25  and  O23_43 
REMARK       I    between atoms: C26_28  and  C27_29 
REMARK       I    between atoms: C28_30  and  C29_31 
REMARK       I    between atoms: C30_32  and  C31_33 
REMARK       I    between atoms: C32_34  and  C33_35 
REMARK       I    between atoms: C34_36  and  C35_37 
ROOT
HETATM    1  C1  STQ 3 622     -34.140 128.294   6.917  1.00 17.54    -0.018 C 
HETATM    2  C2  STQ 3 622     -33.455 128.107   5.573  1.00 17.54     0.045 C 
HETATM    3  C3  STQ 3 622     -31.929 128.117   5.541  1.00 17.54     0.123 C 
HETATM    4  C4  STQ 3 622     -31.270 128.975   6.611  1.00 17.54     0.066 C 
HETATM    5  C5  STQ 3 622     -32.239 129.807   7.411  1.00 17.54    -0.074 C 
HETATM    6  C6  STQ 3 622     -33.517 129.467   7.629  1.00 17.54    -0.048 C 
HETATM    7  C7  STQ 3 622     -34.332 130.225   8.609  1.00 17.54     0.009 C 
HETATM    8  C8  STQ 3 622     -35.143 131.221   8.261  1.00 17.54     0.007 C 
HETATM    9  C9  STQ 3 622     -35.926 131.944   9.278  1.00 17.54    -0.062 C 
HETATM   10  C10 STQ 3 622     -36.727 132.935   8.868  1.00 17.54     0.007 C 
HETATM   11  C11 STQ 3 622     -37.568 133.741   9.751  1.00 17.54     0.001 C 
HETATM   12  C12 STQ 3 622     -38.455 134.501   9.121  1.00 17.54     0.007 C 
HETATM   13  C13 STQ 3 622     -39.442 135.417   9.716  1.00 17.54    -0.062 C 
HETATM   14  C14 STQ 3 622     -40.109 136.201   8.860  1.00 17.54     0.007 C 
HETATM   15  C15 STQ 3 622     -41.132 137.150   9.270  1.00 17.54     0.001 C 
HETATM   16  C16 STQ 3 622     -34.097 127.025   7.768  1.00 17.54     0.020 C 
HETATM   17  C17 STQ 3 622     -35.600 128.586   6.630  1.00 17.54     0.020 C 
HETATM   18  C18 STQ 3 622     -31.571 130.843   8.245  1.00 17.54     0.044 C 
HETATM   19  C19 STQ 3 622     -35.824 131.571  10.725  1.00 17.54     0.048 C 
HETATM   20  C20 STQ 3 622     -39.700 135.477  11.191  1.00 17.54     0.048 C 
HETATM   21  O3  STQ 3 622     -31.467 126.770   5.676  1.00 17.54    -0.395 OA
ATOM     22  H3  STQ 3 622     -30.517 126.776   5.656  1.00  0.00     0.210 HD
HETATM   23  C21 STQ 3 622     -50.538 145.717   9.732  1.00 17.54    -0.035 C 
HETATM   24  C22 STQ 3 622     -51.516 146.414  10.671  1.00 17.54     0.045 C 
HETATM   25  C23 STQ 3 622     -51.045 147.762  11.194  1.00 17.54     0.142 C 
HETATM   26  C24 STQ 3 622     -49.576 147.763  11.541  1.00 17.54     0.007 C 
HETATM   27  C25 STQ 3 622     -48.704 146.894  11.016  1.00 17.54    -0.077 C 
HETATM   28  C26 STQ 3 622     -49.147 145.608  10.368  1.00 17.54     0.044 C 
HETATM   29  C27 STQ 3 622     -48.133 145.143   9.341  1.00 17.54    -0.016 C 
HETATM   30  C28 STQ 3 622     -47.508 143.989   9.541  1.00 17.54     0.003 C 
HETATM   31  C29 STQ 3 622     -46.519 143.457   8.593  1.00 17.54    -0.062 C 
HETATM   32  C30 STQ 3 622     -46.001 142.259   8.877  1.00 17.54     0.007 C 
HETATM   33  C31 STQ 3 622     -45.013 141.572   8.060  1.00 17.54     0.001 C 
HETATM   34  C32 STQ 3 622     -44.362 140.596   8.674  1.00 17.54     0.007 C 
HETATM   35  C33 STQ 3 622     -43.322 139.771   8.042  1.00 17.54    -0.062 C 
HETATM   36  C34 STQ 3 622     -42.778 138.808   8.796  1.00 17.54     0.007 C 
HETATM   37  C35 STQ 3 622     -41.741 137.890   8.351  1.00 17.54     0.001 C 
HETATM   38  C36 STQ 3 622     -50.484 146.419   8.377  1.00 17.54     0.016 C 
HETATM   39  C37 STQ 3 622     -51.083 144.316   9.499  1.00 17.54     0.016 C 
HETATM   40  C38 STQ 3 622     -47.245 147.227  11.100  1.00 17.54     0.044 C 
HETATM   41  C39 STQ 3 622     -46.124 144.227   7.371  1.00 17.54     0.048 C 
HETATM   42  C40 STQ 3 622     -42.893 140.010   6.628  1.00 17.54     0.048 C 
HETATM   43  O23 STQ 3 622     -51.780 148.089  12.379  1.00 17.54    -0.392 OA
ATOM     44  H23 STQ 3 622     -51.485 148.931  12.706  1.00  0.00     0.210 HD
ENDROOT
TORSDOF 12
