REMARK VINA RESULT:    -9.180      0.000      0.000
REMARK INTER + INTRA:         -11.945
REMARK INTER:                  -9.180
REMARK INTRA:                  -2.765
REMARK UNBOUND:                -2.765
REMARK  0 active torsions:
REMARK  status: ('A' for Active; 'I' for Inactive)
REMARK       I    between atoms: C3_3  and  O3_21 
REMARK       I    between atoms: C6_6  and  C7_7 
REMARK       I    between atoms: C8_8  and  C9_9 
REMARK       I    between atoms: C10_10  and  C11_11 
REMARK       I    between atoms: C12_12  and  C13_13 
REMARK       I    between atoms: C14_14  and  C15_15 
REMARK       I    between atoms: C23_25  and  O23_43 
REMARK       I    between atoms: C26_28  and  C27_29 
REMARK       I    between atoms: C28_30  and  C29_31 
REMARK       I    between atoms: C30_32  and  C31_33 
REMARK       I    between atoms: C32_34  and  C33_35 
REMARK       I    between atoms: C34_36  and  C35_37 
ROOT
HETATM    1  C1  STQ 8 314     -34.379 126.783   6.349  1.00 73.63    -0.018 C 
HETATM    2  C2  STQ 8 314     -33.851 125.980   5.165  1.00 75.58     0.045 C 
HETATM    3  C3  STQ 8 314     -32.988 126.764   4.190  1.00 77.85     0.123 C 
HETATM    4  C4  STQ 8 314     -31.872 127.467   4.944  1.00 76.46     0.066 C 
HETATM    5  C5  STQ 8 314     -32.439 128.340   6.037  1.00 74.82    -0.074 C 
HETATM    6  C6  STQ 8 314     -33.550 128.005   6.706  1.00 72.89    -0.048 C 
HETATM    7  C7  STQ 8 314     -34.018 128.834   7.843  1.00 69.76     0.009 C 
HETATM    8  C8  STQ 8 314     -34.689 129.968   7.628  1.00 67.74     0.007 C 
HETATM    9  C9  STQ 8 314     -35.196 130.819   8.724  1.00 67.19    -0.062 C 
HETATM   10  C10 STQ 8 314     -35.950 131.875   8.389  1.00 64.55     0.007 C 
HETATM   11  C11 STQ 8 314     -36.550 132.807   9.342  1.00 61.91     0.001 C 
HETATM   12  C12 STQ 8 314     -37.423 133.661   8.813  1.00 60.53     0.007 C 
HETATM   13  C13 STQ 8 314     -38.174 134.676   9.575  1.00 59.33    -0.062 C 
HETATM   14  C14 STQ 8 314     -39.124 135.362   8.919  1.00 60.00     0.007 C 
HETATM   15  C15 STQ 8 314     -39.964 136.376   9.550  1.00 60.35     0.001 C 
HETATM   16  C16 STQ 8 314     -34.449 125.850   7.552  1.00 75.09     0.020 C 
HETATM   17  C17 STQ 8 314     -35.784 127.267   6.014  1.00 73.62     0.020 C 
HETATM   18  C18 STQ 8 314     -31.587 129.491   6.485  1.00 74.16     0.044 C 
HETATM   19  C19 STQ 8 314     -34.892 130.504  10.160  1.00 68.15     0.048 C 
HETATM   20  C20 STQ 8 314     -37.894 134.918  11.030  1.00 57.80     0.048 C 
HETATM   21  O3  STQ 8 314     -32.419 125.853   3.242  1.00 79.25    -0.395 OA
ATOM     22  H3  STQ 8 314     -31.880 126.343   2.632  1.00  0.00     0.210 HD
HETATM   23  C21 STQ 8 314     -49.713 144.498  11.323  1.00 83.87    -0.035 C 
HETATM   24  C22 STQ 8 314     -50.460 145.445  12.256  1.00 82.82     0.045 C 
HETATM   25  C23 STQ 8 314     -50.244 146.912  11.908  1.00 81.80     0.142 C 
HETATM   26  C24 STQ 8 314     -48.787 147.201  11.635  1.00 82.59     0.007 C 
HETATM   27  C25 STQ 8 314     -47.949 146.277  11.144  1.00 82.34    -0.077 C 
HETATM   28  C26 STQ 8 314     -48.215 144.806  11.301  1.00 82.52     0.044 C 
HETATM   29  C27 STQ 8 314     -47.533 144.045  10.182  1.00 81.59    -0.016 C 
HETATM   30  C28 STQ 8 314     -46.591 143.149  10.476  1.00 79.39     0.003 C 
HETATM   31  C29 STQ 8 314     -45.890 142.374   9.430  1.00 75.56    -0.062 C 
HETATM   32  C30 STQ 8 314     -45.146 141.324   9.807  1.00 73.06     0.007 C 
HETATM   33  C31 STQ 8 314     -44.402 140.472   8.880  1.00 70.20     0.001 C 
HETATM   34  C32 STQ 8 314     -43.562 139.607   9.444  1.00 68.68     0.007 C 
HETATM   35  C33 STQ 8 314     -42.712 138.640   8.722  1.00 66.05    -0.062 C 
HETATM   36  C34 STQ 8 314     -41.803 137.949   9.430  1.00 63.06     0.007 C 
HETATM   37  C35 STQ 8 314     -40.925 136.953   8.826  1.00 60.73     0.001 C 
HETATM   38  C36 STQ 8 314     -50.300 144.585   9.919  1.00 84.49     0.016 C 
HETATM   39  C37 STQ 8 314     -49.909 143.076  11.834  1.00 84.41     0.016 C 
HETATM   40  C38 STQ 8 314     -46.716 146.727  10.422  1.00 81.79     0.044 C 
HETATM   41  C39 STQ 8 314     -46.000 142.760   7.983  1.00 73.18     0.048 C 
HETATM   42  C40 STQ 8 314     -42.863 138.432   7.244  1.00 66.25     0.048 C 
HETATM   43  O23 STQ 8 314     -50.669 147.724  13.009  1.00 80.62    -0.392 OA
ATOM     44  H23 STQ 8 314     -50.535 148.639  12.792  1.00  0.00     0.210 HD
ENDROOT
TORSDOF 12
