REMARK VINA RESULT:    -5.423      2.001      2.557
REMARK INTER + INTRA:          -9.789
REMARK INTER:                  -7.058
REMARK INTRA:                  -2.731
REMARK UNBOUND:                -4.366
REMARK  0 active torsions:
REMARK  status: ('A' for Active; 'I' for Inactive)
REMARK       I    between atoms: C3_3  and  O3_21 
REMARK       I    between atoms: C6_6  and  C7_7 
REMARK       I    between atoms: C8_8  and  C9_9 
REMARK       I    between atoms: C10_10  and  C11_11 
REMARK       I    between atoms: C12_12  and  C13_13 
REMARK       I    between atoms: C14_14  and  C15_15 
REMARK       I    between atoms: C23_25  and  O23_43 
REMARK       I    between atoms: C26_28  and  C27_29 
REMARK       I    between atoms: C28_30  and  C29_31 
REMARK       I    between atoms: C30_32  and  C31_33 
REMARK       I    between atoms: C32_34  and  C33_35 
REMARK       I    between atoms: C34_36  and  C35_37 
ROOT
HETATM    1  C1  STQ 8 618     -34.512 128.011   6.201  1.00 13.13    -0.018 C 
HETATM    2  C2  STQ 8 618     -33.635 127.231   5.232  1.00 13.13     0.045 C 
HETATM    3  C3  STQ 8 618     -32.330 127.901   4.869  1.00 13.13     0.123 C 
HETATM    4  C4  STQ 8 618     -31.592 128.284   6.127  1.00 13.13     0.066 C 
HETATM    5  C5  STQ 8 618     -32.445 129.151   7.011  1.00 13.13    -0.074 C 
HETATM    6  C6  STQ 8 618     -33.774 128.982   7.110  1.00 13.13    -0.048 C 
HETATM    7  C7  STQ 8 618     -34.581 129.685   8.149  1.00 13.13     0.009 C 
HETATM    8  C8  STQ 8 618     -35.017 130.948   8.052  1.00 13.13     0.007 C 
HETATM    9  C9  STQ 8 618     -35.829 131.588   9.104  1.00 13.13    -0.062 C 
HETATM   10  C10 STQ 8 618     -36.558 132.650   8.753  1.00 13.13     0.007 C 
HETATM   11  C11 STQ 8 618     -37.438 133.391   9.646  1.00 13.13     0.001 C 
HETATM   12  C12 STQ 8 618     -38.259 134.209   9.005  1.00 13.13     0.007 C 
HETATM   13  C13 STQ 8 618     -39.292 135.084   9.578  1.00 13.13    -0.062 C 
HETATM   14  C14 STQ 8 618     -39.831 136.019   8.782  1.00 13.13     0.007 C 
HETATM   15  C15 STQ 8 618     -40.887 136.902   9.249  1.00 13.13     0.001 C 
HETATM   16  C16 STQ 8 618     -35.251 126.958   7.009  1.00 13.13     0.020 C 
HETATM   17  C17 STQ 8 618     -35.500 128.836   5.391  1.00 13.13     0.020 C 
HETATM   18  C18 STQ 8 618     -31.651 129.951   7.997  1.00 13.13     0.044 C 
HETATM   19  C19 STQ 8 618     -35.839 131.070  10.509  1.00 13.13     0.048 C 
HETATM   20  C20 STQ 8 618     -39.762 134.918  10.986  1.00 13.13     0.048 C 
HETATM   21  O3  STQ 8 618     -31.529 126.966   4.147  1.00 13.13    -0.395 OA
ATOM     22  H3  STQ 8 618     -31.994 126.724   3.354  1.00  0.00     0.210 HD
HETATM   23  C21 STQ 8 618     -50.130 145.883   9.217  1.00 13.13    -0.035 C 
HETATM   24  C22 STQ 8 618     -51.211 146.520  10.075  1.00 13.13     0.045 C 
HETATM   25  C23 STQ 8 618     -50.708 147.555  11.056  1.00 13.13     0.142 C 
HETATM   26  C24 STQ 8 618     -49.523 147.030  11.810  1.00 13.13     0.007 C 
HETATM   27  C25 STQ 8 618     -48.631 146.223  11.234  1.00 13.13    -0.077 C 
HETATM   28  C26 STQ 8 618     -48.994 145.326  10.084  1.00 13.13     0.044 C 
HETATM   29  C27 STQ 8 618     -47.779 145.003   9.240  1.00 13.13    -0.016 C 
HETATM   30  C28 STQ 8 618     -47.399 143.734   9.218  1.00 13.13     0.003 C 
HETATM   31  C29 STQ 8 618     -46.250 143.248   8.447  1.00 13.13    -0.062 C 
HETATM   32  C30 STQ 8 618     -45.822 142.018   8.734  1.00 13.13     0.007 C 
HETATM   33  C31 STQ 8 618     -44.712 141.351   8.075  1.00 13.13     0.001 C 
HETATM   34  C32 STQ 8 618     -44.047 140.460   8.798  1.00 13.13     0.007 C 
HETATM   35  C33 STQ 8 618     -42.924 139.702   8.236  1.00 13.13    -0.062 C 
HETATM   36  C34 STQ 8 618     -42.516 138.613   8.892  1.00 13.13     0.007 C 
HETATM   37  C35 STQ 8 618     -41.436 137.769   8.410  1.00 13.13     0.001 C 
HETATM   38  C36 STQ 8 618     -49.629 146.891   8.193  1.00 13.13     0.016 C 
HETATM   39  C37 STQ 8 618     -50.781 144.741   8.450  1.00 13.13     0.016 C 
HETATM   40  C38 STQ 8 618     -47.242 146.224  11.781  1.00 13.13     0.044 C 
HETATM   41  C39 STQ 8 618     -45.615 144.090   7.385  1.00 13.13     0.048 C 
HETATM   42  C40 STQ 8 618     -42.266 140.136   6.969  1.00 13.13     0.048 C 
HETATM   43  O23 STQ 8 618     -51.748 147.848  11.988  1.00 13.13    -0.392 OA
ATOM     44  H23 STQ 8 618     -51.432 148.497  12.605  1.00  0.00     0.210 HD
ENDROOT
TORSDOF 12
