REMARK VINA RESULT:   -10.636      1.409     16.651
REMARK INTER + INTRA:         -11.125
REMARK INTER:                  -6.390
REMARK INTRA:                  -4.735
REMARK UNBOUND:                -0.489
REMARK  0 active torsions:
REMARK  status: ('A' for Active; 'I' for Inactive)
REMARK       I    between atoms: C3_3  and  O3_21 
REMARK       I    between atoms: C6_6  and  C7_7 
REMARK       I    between atoms: C8_8  and  C9_9 
REMARK       I    between atoms: C10_10  and  C11_11 
REMARK       I    between atoms: C12_12  and  C13_13 
REMARK       I    between atoms: C14_14  and  C15_15 
REMARK       I    between atoms: C23_25  and  O23_43 
REMARK       I    between atoms: C26_28  and  C27_29 
REMARK       I    between atoms: C28_30  and  C29_31 
REMARK       I    between atoms: C30_32  and  C31_33 
REMARK       I    between atoms: C32_34  and  C33_35 
REMARK       I    between atoms: C34_36  and  C35_37 
ROOT
HETATM    1  C1  STQ Z 617     -34.550 126.993   5.262  1.00 32.73    -0.018 C 
HETATM    2  C2  STQ Z 617     -33.829 126.051   4.318  1.00 32.73     0.045 C 
HETATM    3  C3  STQ Z 617     -32.720 126.757   3.573  1.00 32.73     0.123 C 
HETATM    4  C4  STQ Z 617     -31.684 127.242   4.560  1.00 32.73     0.066 C 
HETATM    5  C5  STQ Z 617     -32.294 127.982   5.724  1.00 32.73    -0.074 C 
HETATM    6  C6  STQ Z 617     -33.595 127.869   6.070  1.00 32.73    -0.048 C 
HETATM    7  C7  STQ Z 617     -34.106 128.554   7.292  1.00 32.73     0.009 C 
HETATM    8  C8  STQ Z 617     -34.540 129.823   7.305  1.00 32.73     0.007 C 
HETATM    9  C9  STQ Z 617     -35.049 130.496   8.509  1.00 32.73    -0.062 C 
HETATM   10  C10 STQ Z 617     -35.828 131.557   8.293  1.00 32.73     0.007 C 
HETATM   11  C11 STQ Z 617     -36.459 132.371   9.319  1.00 32.73     0.001 C 
HETATM   12  C12 STQ Z 617     -37.245 133.307   8.805  1.00 32.73     0.007 C 
HETATM   13  C13 STQ Z 617     -38.053 134.260   9.571  1.00 32.73    -0.062 C 
HETATM   14  C14 STQ Z 617     -38.852 135.053   8.852  1.00 32.73     0.007 C 
HETATM   15  C15 STQ Z 617     -39.756 136.021   9.443  1.00 32.73     0.001 C 
HETATM   16  C16 STQ Z 617     -35.465 126.106   6.101  1.00 32.73     0.020 C 
HETATM   17  C17 STQ Z 617     -35.427 127.934   4.454  1.00 32.73     0.020 C 
HETATM   18  C18 STQ Z 617     -31.307 128.795   6.512  1.00 32.73     0.044 C 
HETATM   19  C19 STQ Z 617     -34.687 130.029   9.886  1.00 32.73     0.048 C 
HETATM   20  C20 STQ Z 617     -38.014 134.318  11.069  1.00 32.73     0.048 C 
HETATM   21  O3  STQ Z 617     -32.097 125.850   2.661  1.00 32.73    -0.395 OA
ATOM     22  H3  STQ Z 617     -31.400 126.294   2.193  1.00  0.00     0.210 HD
HETATM   23  C21 STQ Z 617     -49.634 143.826  10.494  1.00 32.73    -0.035 C 
HETATM   24  C22 STQ Z 617     -50.493 144.418  11.604  1.00 32.73     0.045 C 
HETATM   25  C23 STQ Z 617     -50.100 145.815  12.067  1.00 32.73     0.142 C 
HETATM   26  C24 STQ Z 617     -48.605 146.033  12.062  1.00 32.73     0.007 C 
HETATM   27  C25 STQ Z 617     -47.790 145.339  11.259  1.00 32.73    -0.077 C 
HETATM   28  C26 STQ Z 617     -48.148 143.939  10.840  1.00 32.73     0.044 C 
HETATM   29  C27 STQ Z 617     -47.322 143.459   9.668  1.00 32.73    -0.016 C 
HETATM   30  C28 STQ Z 617     -46.454 142.481   9.897  1.00 32.73     0.003 C 
HETATM   31  C29 STQ Z 617     -45.608 141.905   8.844  1.00 32.73    -0.062 C 
HETATM   32  C30 STQ Z 617     -45.000 140.763   9.156  1.00 32.73     0.007 C 
HETATM   33  C31 STQ Z 617     -44.131 140.001   8.279  1.00 32.73     0.001 C 
HETATM   34  C32 STQ Z 617     -43.325 139.182   8.938  1.00 32.73     0.007 C 
HETATM   35  C33 STQ Z 617     -42.347 138.288   8.313  1.00 32.73    -0.062 C 
HETATM   36  C34 STQ Z 617     -41.638 137.500   9.127  1.00 32.73     0.007 C 
HETATM   37  C35 STQ Z 617     -40.657 136.551   8.627  1.00 32.73     0.001 C 
HETATM   38  C36 STQ Z 617     -49.948 144.487   9.152  1.00 32.73     0.016 C 
HETATM   39  C37 STQ Z 617     -50.009 142.353  10.381  1.00 32.73     0.016 C 
HETATM   40  C38 STQ Z 617     -46.515 145.979  10.799  1.00 32.73     0.044 C 
HETATM   41  C39 STQ Z 617     -45.448 142.556   7.504  1.00 32.73     0.048 C 
HETATM   42  C40 STQ Z 617     -42.151 138.272   6.827  1.00 32.73     0.048 C 
HETATM   43  O23 STQ Z 617     -50.586 146.001  13.401  1.00 32.73    -0.392 OA
ATOM     44  H23 STQ Z 617     -50.340 146.873  13.690  1.00  0.00     0.210 HD
ENDROOT
TORSDOF 12
