REMARK VINA RESULT:   -11.990      1.843     16.702
REMARK INTER + INTRA:         -12.370
REMARK INTER:                  -9.889
REMARK INTRA:                  -2.481
REMARK UNBOUND:                -0.380
REMARK  0 active torsions:
REMARK  status: ('A' for Active; 'I' for Inactive)
REMARK       I    between atoms: C3_3  and  O3_21 
REMARK       I    between atoms: C6_6  and  C7_7 
REMARK       I    between atoms: C8_8  and  C9_9 
REMARK       I    between atoms: C10_10  and  C11_11 
REMARK       I    between atoms: C12_12  and  C13_13 
REMARK       I    between atoms: C14_14  and  C15_15 
REMARK       I    between atoms: C23_25  and  O23_43 
REMARK       I    between atoms: C26_28  and  C27_29 
REMARK       I    between atoms: C28_30  and  C29_31 
REMARK       I    between atoms: C30_32  and  C31_33 
REMARK       I    between atoms: C32_34  and  C33_35 
REMARK       I    between atoms: C34_36  and  C35_37 
ROOT
HETATM    1  C1  STQ 4 619     -34.295 127.369   6.546  1.00 29.53    -0.018 C 
HETATM    2  C2  STQ 4 619     -33.674 126.810   5.267  1.00 29.53     0.045 C 
HETATM    3  C3  STQ 4 619     -32.470 127.535   4.687  1.00 29.53     0.123 C 
HETATM    4  C4  STQ 4 619     -31.582 128.068   5.792  1.00 29.53     0.066 C 
HETATM    5  C5  STQ 4 619     -32.405 128.996   6.636  1.00 29.53    -0.074 C 
HETATM    6  C6  STQ 4 619     -33.600 128.603   7.094  1.00 29.53    -0.048 C 
HETATM    7  C7  STQ 4 619     -34.270 129.358   8.176  1.00 29.53     0.009 C 
HETATM    8  C8  STQ 4 619     -35.004 130.448   7.952  1.00 29.53     0.007 C 
HETATM    9  C9  STQ 4 619     -35.657 131.155   9.064  1.00 29.53    -0.062 C 
HETATM   10  C10 STQ 4 619     -36.206 132.354   8.817  1.00 29.53     0.007 C 
HETATM   11  C11 STQ 4 619     -36.913 133.195   9.779  1.00 29.53     0.001 C 
HETATM   12  C12 STQ 4 619     -37.439 134.306   9.280  1.00 29.53     0.007 C 
HETATM   13  C13 STQ 4 619     -38.223 135.310  10.016  1.00 29.53    -0.062 C 
HETATM   14  C14 STQ 4 619     -38.967 136.113   9.245  1.00 29.53     0.007 C 
HETATM   15  C15 STQ 4 619     -39.855 137.158   9.728  1.00 29.53     0.001 C 
HETATM   16  C16 STQ 4 619     -34.307 126.239   7.571  1.00 29.53     0.020 C 
HETATM   17  C17 STQ 4 619     -35.736 127.764   6.248  1.00 29.53     0.020 C 
HETATM   18  C18 STQ 4 619     -31.548 129.998   7.356  1.00 29.53     0.044 C 
HETATM   19  C19 STQ 4 619     -35.691 130.511  10.414  1.00 29.53     0.048 C 
HETATM   20  C20 STQ 4 619     -38.194 135.420  11.509  1.00 29.53     0.048 C 
HETATM   21  O3  STQ 4 619     -31.703 126.618   3.902  1.00 29.53    -0.395 OA
ATOM     22  H3  STQ 4 619     -30.951 127.071   3.539  1.00  0.00     0.210 HD
HETATM   23  C21 STQ 4 619     -49.793 145.092   9.200  1.00 29.53    -0.035 C 
HETATM   24  C22 STQ 4 619     -50.679 145.794  10.221  1.00 29.53     0.045 C 
HETATM   25  C23 STQ 4 619     -50.277 147.221  10.576  1.00 29.53     0.142 C 
HETATM   26  C24 STQ 4 619     -48.783 147.444  10.558  1.00 29.53     0.007 C 
HETATM   27  C25 STQ 4 619     -47.950 146.677   9.847  1.00 29.53    -0.077 C 
HETATM   28  C26 STQ 4 619     -48.309 145.248   9.549  1.00 29.53     0.044 C 
HETATM   29  C27 STQ 4 619     -47.453 144.640   8.457  1.00 29.53    -0.016 C 
HETATM   30  C28 STQ 4 619     -46.579 143.719   8.846  1.00 29.53     0.003 C 
HETATM   31  C29 STQ 4 619     -45.683 142.987   7.938  1.00 29.53    -0.062 C 
HETATM   32  C30 STQ 4 619     -44.977 142.007   8.506  1.00 29.53     0.007 C 
HETATM   33  C31 STQ 4 619     -44.050 141.111   7.829  1.00 29.53     0.001 C 
HETATM   34  C32 STQ 4 619     -43.337 140.356   8.656  1.00 29.53     0.007 C 
HETATM   35  C33 STQ 4 619     -42.355 139.350   8.237  1.00 29.53    -0.062 C 
HETATM   36  C34 STQ 4 619     -41.601 138.762   9.179  1.00 29.53     0.007 C 
HETATM   37  C35 STQ 4 619     -40.638 137.729   8.818  1.00 29.53     0.001 C 
HETATM   38  C36 STQ 4 619     -50.104 145.603   7.797  1.00 29.53     0.016 C 
HETATM   39  C37 STQ 4 619     -50.158 143.613   9.240  1.00 29.53     0.016 C 
HETATM   40  C38 STQ 4 619     -46.655 147.269   9.377  1.00 29.53     0.044 C 
HETATM   41  C39 STQ 4 619     -45.589 143.304   6.475  1.00 29.53     0.048 C 
HETATM   42  C40 STQ 4 619     -42.232 138.981   6.792  1.00 29.53     0.048 C 
HETATM   43  O23 STQ 4 619     -50.739 147.479  11.903  1.00 29.53    -0.392 OA
ATOM     44  H23 STQ 4 619     -50.488 148.369  12.123  1.00  0.00     0.210 HD
ENDROOT
TORSDOF 12
