REMARK VINA RESULT:   -12.090      0.000      0.000
REMARK INTER + INTRA:         -12.275
REMARK INTER:                 -12.090
REMARK INTRA:                  -0.185
REMARK UNBOUND:                -0.185
REMARK  0 active torsions:
REMARK  status: ('A' for Active; 'I' for Inactive)
REMARK       I    between atoms: C3_3  and  O3_21 
REMARK       I    between atoms: C6_6  and  C7_7 
REMARK       I    between atoms: C8_8  and  C9_9 
REMARK       I    between atoms: C10_10  and  C11_11 
REMARK       I    between atoms: C12_12  and  C13_13 
REMARK       I    between atoms: C14_14  and  C15_15 
REMARK       I    between atoms: C23_25  and  O23_43 
REMARK       I    between atoms: C26_28  and  C27_29 
REMARK       I    between atoms: C28_30  and  C29_31 
REMARK       I    between atoms: C30_32  and  C31_33 
REMARK       I    between atoms: C32_34  and  C33_35 
REMARK       I    between atoms: C34_36  and  C35_37 
ROOT
HETATM    1  C1  STQ X1621     -34.200 128.061   6.922  1.00 31.86    -0.018 C 
HETATM    2  C2  STQ X1621     -33.598 127.870   5.525  1.00 31.86     0.045 C 
HETATM    3  C3  STQ X1621     -32.309 128.624   5.220  1.00 31.86     0.123 C 
HETATM    4  C4  STQ X1621     -31.602 129.074   6.492  1.00 31.86     0.066 C 
HETATM    5  C5  STQ X1621     -32.596 129.879   7.273  1.00 31.86    -0.074 C 
HETATM    6  C6  STQ X1621     -33.732 129.298   7.658  1.00 31.86    -0.048 C 
HETATM    7  C7  STQ X1621     -34.649 129.915   8.639  1.00 31.86     0.009 C 
HETATM    8  C8  STQ X1621     -34.744 131.246   8.695  1.00 31.86     0.007 C 
HETATM    9  C9  STQ X1621     -35.830 131.842   9.506  1.00 31.86    -0.062 C 
HETATM   10  C10 STQ X1621     -36.243 133.077   9.153  1.00 31.86     0.007 C 
HETATM   11  C11 STQ X1621     -37.410 133.731   9.743  1.00 31.86     0.001 C 
HETATM   12  C12 STQ X1621     -37.912 134.817   9.157  1.00 31.86     0.007 C 
HETATM   13  C13 STQ X1621     -39.144 135.465   9.659  1.00 31.86    -0.062 C 
HETATM   14  C14 STQ X1621     -39.658 136.469   8.919  1.00 31.86     0.007 C 
HETATM   15  C15 STQ X1621     -40.882 137.197   9.261  1.00 31.86     0.001 C 
HETATM   16  C16 STQ X1621     -33.783 126.889   7.808  1.00 31.86     0.020 C 
HETATM   17  C17 STQ X1621     -35.714 128.039   6.788  1.00 31.86     0.020 C 
HETATM   18  C18 STQ X1621     -31.752 130.686   8.219  1.00 31.86     0.044 C 
HETATM   19  C19 STQ X1621     -36.484 131.034  10.603  1.00 31.86     0.048 C 
HETATM   20  C20 STQ X1621     -39.768 134.956  10.935  1.00 31.86     0.048 C 
HETATM   21  O3  STQ X1621     -31.478 127.720   4.496  1.00 31.86    -0.395 OA
ATOM     22  H3  STQ X1621     -31.919 127.440   3.702  1.00  0.00     0.210 HD
HETATM   23  C21 STQ X1621     -50.485 145.777   9.078  1.00 31.86    -0.035 C 
HETATM   24  C22 STQ X1621     -51.556 146.585   9.785  1.00 31.86     0.045 C 
HETATM   25  C23 STQ X1621     -51.103 148.000  10.091  1.00 31.86     0.142 C 
HETATM   26  C24 STQ X1621     -49.711 148.021  10.682  1.00 31.86     0.007 C 
HETATM   27  C25 STQ X1621     -48.858 146.985  10.603  1.00 31.86    -0.077 C 
HETATM   28  C26 STQ X1621     -49.213 145.690   9.921  1.00 31.86     0.044 C 
HETATM   29  C27 STQ X1621     -48.068 145.230   9.047  1.00 31.86    -0.016 C 
HETATM   30  C28 STQ X1621     -47.530 144.031   9.262  1.00 31.86     0.003 C 
HETATM   31  C29 STQ X1621     -46.403 143.524   8.453  1.00 31.86    -0.062 C 
HETATM   32  C30 STQ X1621     -45.897 142.324   8.809  1.00 31.86     0.007 C 
HETATM   33  C31 STQ X1621     -44.750 141.691   8.159  1.00 31.86     0.001 C 
HETATM   34  C32 STQ X1621     -44.248 140.574   8.681  1.00 31.86     0.007 C 
HETATM   35  C33 STQ X1621     -43.043 139.926   8.121  1.00 31.86    -0.062 C 
HETATM   36  C34 STQ X1621     -42.532 138.892   8.821  1.00 31.86     0.007 C 
HETATM   37  C35 STQ X1621     -41.316 138.162   8.456  1.00 31.86     0.001 C 
HETATM   38  C36 STQ X1621     -50.226 146.392   7.706  1.00 31.86     0.016 C 
HETATM   39  C37 STQ X1621     -51.008 144.356   8.903  1.00 31.86     0.016 C 
HETATM   40  C38 STQ X1621     -47.503 147.121  11.237  1.00 31.86     0.044 C 
HETATM   41  C39 STQ X1621     -45.897 144.354   7.300  1.00 31.86     0.048 C 
HETATM   42  C40 STQ X1621     -42.430 140.473   6.859  1.00 31.86     0.048 C 
HETATM   43  O23 STQ X1621     -52.028 148.517  11.046  1.00 31.86    -0.392 OA
ATOM     44  H23 STQ X1621     -52.902 148.504  10.675  1.00  0.00     0.210 HD
ENDROOT
TORSDOF 12
