REMARK VINA RESULT:   -12.146      0.000      0.000
REMARK INTER + INTRA:         -14.471
REMARK INTER:                 -12.146
REMARK INTRA:                  -2.325
REMARK UNBOUND:                -2.325
REMARK  0 active torsions:
REMARK  status: ('A' for Active; 'I' for Inactive)
REMARK       I    between atoms: C3_3  and  O3_21 
REMARK       I    between atoms: C6_6  and  C7_7 
REMARK       I    between atoms: C8_8  and  C9_9 
REMARK       I    between atoms: C10_10  and  C11_11 
REMARK       I    between atoms: C12_12  and  C13_13 
REMARK       I    between atoms: C14_14  and  C15_15 
REMARK       I    between atoms: C23_25  and  O23_43 
REMARK       I    between atoms: C26_28  and  C27_29 
REMARK       I    between atoms: C28_30  and  C29_31 
REMARK       I    between atoms: C30_32  and  C31_33 
REMARK       I    between atoms: C32_34  and  C33_35 
REMARK       I    between atoms: C34_36  and  C35_37 
ROOT
HETATM    1  C1  STQ 4 619     -34.238 127.126   6.700  1.00 50.20    -0.018 C 
HETATM    2  C2  STQ 4 619     -33.806 126.615   5.331  1.00 50.20     0.045 C 
HETATM    3  C3  STQ 4 619     -32.725 127.415   4.622  1.00 50.20     0.123 C 
HETATM    4  C4  STQ 4 619     -31.651 127.871   5.587  1.00 50.20     0.066 C 
HETATM    5  C5  STQ 4 619     -32.312 128.717   6.634  1.00 50.20    -0.074 C 
HETATM    6  C6  STQ 4 619     -33.471 128.345   7.178  1.00 50.20    -0.048 C 
HETATM    7  C7  STQ 4 619     -34.047 129.135   8.286  1.00 50.20     0.009 C 
HETATM    8  C8  STQ 4 619     -34.861 130.152   8.017  1.00 50.20     0.007 C 
HETATM    9  C9  STQ 4 619     -35.475 130.965   9.077  1.00 50.20    -0.062 C 
HETATM   10  C10 STQ 4 619     -36.195 132.026   8.699  1.00 50.20     0.007 C 
HETATM   11  C11 STQ 4 619     -36.882 132.921   9.620  1.00 50.20     0.001 C 
HETATM   12  C12 STQ 4 619     -37.550 133.909   9.041  1.00 50.20     0.007 C 
HETATM   13  C13 STQ 4 619     -38.346 134.903   9.771  1.00 50.20    -0.062 C 
HETATM   14  C14 STQ 4 619     -39.093 135.730   9.035  1.00 50.20     0.007 C 
HETATM   15  C15 STQ 4 619     -39.975 136.737   9.599  1.00 50.20     0.001 C 
HETATM   16  C16 STQ 4 619     -34.081 125.981   7.694  1.00 50.20     0.020 C 
HETATM   17  C17 STQ 4 619     -35.709 127.511   6.629  1.00 50.20     0.020 C 
HETATM   18  C18 STQ 4 619     -31.503 129.843   7.200  1.00 50.20     0.044 C 
HETATM   19  C19 STQ 4 619     -35.292 130.603  10.520  1.00 50.20     0.048 C 
HETATM   20  C20 STQ 4 619     -38.345 134.974  11.265  1.00 50.20     0.048 C 
HETATM   21  O3  STQ 4 619     -32.132 126.603   3.605  1.00 50.20    -0.395 OA
ATOM     22  H3  STQ 4 619     -32.806 126.316   3.000  1.00  0.00     0.210 HD
HETATM   23  C21 STQ 4 619     -49.893 144.409   9.647  1.00 50.20    -0.035 C 
HETATM   24  C22 STQ 4 619     -50.891 145.184  10.489  1.00 50.20     0.045 C 
HETATM   25  C23 STQ 4 619     -50.697 146.686  10.383  1.00 50.20     0.142 C 
HETATM   26  C24 STQ 4 619     -49.250 147.051  10.600  1.00 50.20     0.007 C 
HETATM   27  C25 STQ 4 619     -48.254 146.246  10.211  1.00 50.20    -0.077 C 
HETATM   28  C26 STQ 4 619     -48.460 144.765  10.039  1.00 50.20     0.044 C 
HETATM   29  C27 STQ 4 619     -47.536 144.207   8.982  1.00 50.20    -0.016 C 
HETATM   30  C28 STQ 4 619     -46.588 143.362   9.369  1.00 50.20     0.003 C 
HETATM   31  C29 STQ 4 619     -45.656 142.743   8.418  1.00 50.20    -0.062 C 
HETATM   32  C30 STQ 4 619     -45.099 141.599   8.813  1.00 50.20     0.007 C 
HETATM   33  C31 STQ 4 619     -44.160 140.805   8.039  1.00 50.20     0.001 C 
HETATM   34  C32 STQ 4 619     -43.477 139.943   8.776  1.00 50.20     0.007 C 
HETATM   35  C33 STQ 4 619     -42.483 138.999   8.255  1.00 50.20    -0.062 C 
HETATM   36  C34 STQ 4 619     -41.773 138.307   9.151  1.00 50.20     0.007 C 
HETATM   37  C35 STQ 4 619     -40.798 137.316   8.732  1.00 50.20     0.001 C 
HETATM   38  C36 STQ 4 619     -50.130 144.678   8.165  1.00 50.20     0.016 C 
HETATM   39  C37 STQ 4 619     -50.131 142.928   9.909  1.00 50.20     0.016 C 
HETATM   40  C38 STQ 4 619     -46.901 146.842   9.966  1.00 50.20     0.044 C 
HETATM   41  C39 STQ 4 619     -45.363 143.351   7.081  1.00 50.20     0.048 C 
HETATM   42  C40 STQ 4 619     -42.296 138.800   6.781  1.00 50.20     0.048 C 
HETATM   43  O23 STQ 4 619     -51.480 147.313  11.401  1.00 50.20    -0.392 OA
ATOM     44  H23 STQ 4 619     -52.391 147.083  11.264  1.00  0.00     0.210 HD
ENDROOT
TORSDOF 12
