REMARK VINA RESULT:    -5.776      1.159      1.666
REMARK INTER + INTRA:          -8.859
REMARK INTER:                  -5.646
REMARK INTRA:                  -3.212
REMARK UNBOUND:                -3.083
REMARK  0 active torsions:
REMARK  status: ('A' for Active; 'I' for Inactive)
REMARK       I    between atoms: C3_3  and  O3_21 
REMARK       I    between atoms: C6_6  and  C7_7 
REMARK       I    between atoms: C8_8  and  C9_9 
REMARK       I    between atoms: C10_10  and  C11_11 
REMARK       I    between atoms: C12_12  and  C13_13 
REMARK       I    between atoms: C14_14  and  C15_15 
REMARK       I    between atoms: C23_25  and  O23_43 
REMARK       I    between atoms: C26_28  and  C27_29 
REMARK       I    between atoms: C28_30  and  C29_31 
REMARK       I    between atoms: C30_32  and  C31_33 
REMARK       I    between atoms: C32_34  and  C33_35 
REMARK       I    between atoms: C34_36  and  C35_37 
ROOT
HETATM    1  C1  STQ 2 617     -50.469 145.703  13.290  1.00 73.56    -0.018 C 
HETATM    2  C2  STQ 2 617     -50.494 146.657  14.486  1.00 73.56     0.045 C 
HETATM    3  C3  STQ 2 617     -49.846 148.032  14.332  1.00 73.56     0.123 C 
HETATM    4  C4  STQ 2 617     -49.940 148.534  12.899  1.00 73.56     0.066 C 
HETATM    5  C5  STQ 2 617     -49.302 147.497  12.015  1.00 73.56    -0.074 C 
HETATM    6  C6  STQ 2 617     -49.697 146.221  12.085  1.00 73.56    -0.048 C 
HETATM    7  C7  STQ 2 617     -49.414 145.292  10.962  1.00 73.56     0.009 C 
HETATM    8  C8  STQ 2 617     -48.254 144.642  10.837  1.00 73.56     0.007 C 
HETATM    9  C9  STQ 2 617     -48.006 143.725   9.709  1.00 73.56    -0.062 C 
HETATM   10  C10 STQ 2 617     -46.955 142.895   9.777  1.00 73.56     0.007 C 
HETATM   11  C11 STQ 2 617     -46.610 141.948   8.720  1.00 73.56     0.001 C 
HETATM   12  C12 STQ 2 617     -45.403 141.390   8.768  1.00 73.56     0.007 C 
HETATM   13  C13 STQ 2 617     -44.928 140.409   7.774  1.00 73.56    -0.062 C 
HETATM   14  C14 STQ 2 617     -43.914 139.611   8.130  1.00 73.56     0.007 C 
HETATM   15  C15 STQ 2 617     -43.350 138.580   7.266  1.00 73.56     0.001 C 
HETATM   16  C16 STQ 2 617     -51.919 145.398  12.917  1.00 73.56     0.020 C 
HETATM   17  C17 STQ 2 617     -49.794 144.408  13.725  1.00 73.56     0.020 C 
HETATM   18  C18 STQ 2 617     -48.945 148.138  10.704  1.00 73.56     0.044 C 
HETATM   19  C19 STQ 2 617     -48.910 143.726   8.515  1.00 73.56     0.048 C 
HETATM   20  C20 STQ 2 617     -45.555 140.313   6.414  1.00 73.56     0.048 C 
HETATM   21  O3  STQ 2 617     -50.508 148.958  15.201  1.00 73.56    -0.395 OA
ATOM     22  H3  STQ 2 617     -50.105 149.813  15.104  1.00  0.00     0.210 HD
HETATM   23  C21 STQ 2 617     -36.329 127.454   7.574  1.00 73.56    -0.035 C 
HETATM   24  C22 STQ 2 617     -35.830 126.356   6.633  1.00 73.56     0.045 C 
HETATM   25  C23 STQ 2 617     -34.464 126.596   5.986  1.00 73.56     0.142 C 
HETATM   26  C24 STQ 2 617     -34.219 128.059   5.680  1.00 73.56     0.007 C 
HETATM   27  C25 STQ 2 617     -34.759 129.003   6.460  1.00 73.56    -0.077 C 
HETATM   28  C26 STQ 2 617     -36.178 128.828   6.921  1.00 73.56     0.044 C 
HETATM   29  C27 STQ 2 617     -36.622 129.941   7.848  1.00 73.56    -0.016 C 
HETATM   30  C28 STQ 2 617     -37.516 130.799   7.364  1.00 73.56     0.003 C 
HETATM   31  C29 STQ 2 617     -38.057 131.937   8.132  1.00 73.56    -0.062 C 
HETATM   32  C30 STQ 2 617     -38.940 132.735   7.515  1.00 73.56     0.007 C 
HETATM   33  C31 STQ 2 617     -39.565 133.892   8.147  1.00 73.56     0.001 C 
HETATM   34  C32 STQ 2 617     -40.397 134.632   7.417  1.00 73.56     0.007 C 
HETATM   35  C33 STQ 2 617     -41.076 135.808   7.987  1.00 73.56    -0.062 C 
HETATM   36  C34 STQ 2 617     -41.928 136.548   7.255  1.00 73.56     0.007 C 
HETATM   37  C35 STQ 2 617     -42.587 137.689   7.891  1.00 73.56     0.001 C 
HETATM   38  C36 STQ 2 617     -35.595 127.403   8.911  1.00 73.56     0.016 C 
HETATM   39  C37 STQ 2 617     -37.810 127.204   7.842  1.00 73.56     0.016 C 
HETATM   40  C38 STQ 2 617     -33.944 130.192   6.875  1.00 73.56     0.044 C 
HETATM   41  C39 STQ 2 617     -37.635 132.188   9.548  1.00 73.56     0.048 C 
HETATM   42  C40 STQ 2 617     -40.804 136.162   9.416  1.00 73.56     0.048 C 
HETATM   43  O23 STQ 2 617     -34.385 125.851   4.767  1.00 73.56    -0.392 OA
ATOM     44  H23 STQ 2 617     -33.537 126.000   4.366  1.00  0.00     0.210 HD
ENDROOT
TORSDOF 12
