REMARK VINA RESULT:    -7.244      1.802     16.952
REMARK INTER + INTRA:          -9.605
REMARK INTER:                  -9.196
REMARK INTRA:                  -0.410
REMARK UNBOUND:                -2.362
REMARK  0 active torsions:
REMARK  status: ('A' for Active; 'I' for Inactive)
REMARK       I    between atoms: C3_3  and  O3_21 
REMARK       I    between atoms: C6_6  and  C7_7 
REMARK       I    between atoms: C8_8  and  C9_9 
REMARK       I    between atoms: C10_10  and  C11_11 
REMARK       I    between atoms: C12_12  and  C13_13 
REMARK       I    between atoms: C14_14  and  C15_15 
REMARK       I    between atoms: C23_25  and  O23_43 
REMARK       I    between atoms: C26_28  and  C27_29 
REMARK       I    between atoms: C28_30  and  C29_31 
REMARK       I    between atoms: C30_32  and  C31_33 
REMARK       I    between atoms: C32_34  and  C33_35 
REMARK       I    between atoms: C34_36  and  C35_37 
ROOT
HETATM    1  C1  STQ 1 320     -50.064 146.235  10.123  1.00 79.00    -0.018 C 
HETATM    2  C2  STQ 1 320     -50.592 146.781  11.450  1.00 79.55     0.045 C 
HETATM    3  C3  STQ 1 320     -49.735 147.822  12.158  1.00 80.08     0.123 C 
HETATM    4  C4  STQ 1 320     -49.046 148.747  11.165  1.00 79.64     0.066 C 
HETATM    5  C5  STQ 1 320     -48.251 147.941  10.172  1.00 79.19    -0.074 C 
HETATM    6  C6  STQ 1 320     -48.695 146.757   9.747  1.00 79.31    -0.048 C 
HETATM    7  C7  STQ 1 320     -47.834 145.899   8.905  1.00 78.64     0.009 C 
HETATM    8  C8  STQ 1 320     -47.040 144.997   9.477  1.00 77.62     0.007 C 
HETATM    9  C9  STQ 1 320     -46.167 144.109   8.685  1.00 76.30    -0.062 C 
HETATM   10  C10 STQ 1 320     -45.319 143.307   9.342  1.00 74.97     0.007 C 
HETATM   11  C11 STQ 1 320     -44.419 142.386   8.657  1.00 73.76     0.001 C 
HETATM   12  C12 STQ 1 320     -43.728 141.535   9.409  1.00 72.98     0.007 C 
HETATM   13  C13 STQ 1 320     -42.798 140.560   8.814  1.00 72.79    -0.062 C 
HETATM   14  C14 STQ 1 320     -42.124 139.721   9.617  1.00 72.37     0.007 C 
HETATM   15  C15 STQ 1 320     -41.195 138.739   9.067  1.00 71.72     0.001 C 
HETATM   16  C16 STQ 1 320     -51.042 146.602   9.011  1.00 78.31     0.020 C 
HETATM   17  C17 STQ 1 320     -49.965 144.719  10.239  1.00 77.27     0.020 C 
HETATM   18  C18 STQ 1 320     -46.839 148.371   9.901  1.00 78.52     0.044 C 
HETATM   19  C19 STQ 1 320     -46.236 144.099   7.186  1.00 75.52     0.048 C 
HETATM   20  C20 STQ 1 320     -42.621 140.509   7.325  1.00 72.36     0.048 C 
HETATM   21  O3  STQ 1 320     -50.586 148.609  13.001  1.00 80.30    -0.395 OA
ATOM     22  H3  STQ 1 320     -51.016 148.031  13.621  1.00  0.00     0.210 HD
HETATM   23  C21 STQ 1 320     -34.157 128.338   6.860  1.00 90.94    -0.035 C 
HETATM   24  C22 STQ 1 320     -33.212 127.714   5.840  1.00 90.49     0.045 C 
HETATM   25  C23 STQ 1 320     -31.748 127.797   6.254  1.00 90.33     0.142 C 
HETATM   26  C24 STQ 1 320     -31.405 129.167   6.789  1.00 90.54     0.007 C 
HETATM   27  C25 STQ 1 320     -32.308 129.954   7.387  1.00 89.72    -0.077 C 
HETATM   28  C26 STQ 1 320     -33.782 129.791   7.140  1.00 89.61     0.044 C 
HETATM   29  C27 STQ 1 320     -34.571 130.315   8.322  1.00 88.07    -0.016 C 
HETATM   30  C28 STQ 1 320     -35.300 131.410   8.132  1.00 86.99     0.003 C 
HETATM   31  C29 STQ 1 320     -36.123 132.044   9.181  1.00 84.95    -0.062 C 
HETATM   32  C30 STQ 1 320     -36.663 133.236   8.892  1.00 81.64     0.007 C 
HETATM   33  C31 STQ 1 320     -37.508 134.008   9.799  1.00 78.38     0.001 C 
HETATM   34  C32 STQ 1 320     -38.116 135.055   9.249  1.00 76.42     0.007 C 
HETATM   35  C33 STQ 1 320     -39.016 135.966   9.976  1.00 74.01    -0.062 C 
HETATM   36  C34 STQ 1 320     -39.669 136.897   9.264  1.00 73.35     0.007 C 
HETATM   37  C35 STQ 1 320     -40.591 137.858   9.862  1.00 72.23     0.001 C 
HETATM   38  C36 STQ 1 320     -34.146 127.524   8.148  1.00 91.00     0.016 C 
HETATM   39  C37 STQ 1 320     -35.571 128.309   6.289  1.00 91.82     0.016 C 
HETATM   40  C38 STQ 1 320     -31.828 131.025   8.320  1.00 88.96     0.044 C 
HETATM   41  C39 STQ 1 320     -36.347 131.377  10.506  1.00 85.50     0.048 C 
HETATM   42  C40 STQ 1 320     -39.192 135.851  11.461  1.00 73.58     0.048 C 
HETATM   43  O23 STQ 1 320     -30.923 127.544   5.112  1.00 91.01    -0.392 OA
ATOM     44  H23 STQ 1 320     -30.010 127.596   5.370  1.00  0.00     0.210 HD
ENDROOT
TORSDOF 12
