REMARK VINA RESULT:    -9.945      0.000      0.000
REMARK INTER + INTRA:         -12.141
REMARK INTER:                  -9.945
REMARK INTRA:                  -2.196
REMARK UNBOUND:                -2.196
REMARK  0 active torsions:
REMARK  status: ('A' for Active; 'I' for Inactive)
REMARK       I    between atoms: C3_3  and  O3_21 
REMARK       I    between atoms: C6_6  and  C7_7 
REMARK       I    between atoms: C8_8  and  C9_9 
REMARK       I    between atoms: C10_10  and  C11_11 
REMARK       I    between atoms: C12_12  and  C13_13 
REMARK       I    between atoms: C14_14  and  C15_15 
REMARK       I    between atoms: C23_25  and  O23_43 
REMARK       I    between atoms: C26_28  and  C27_29 
REMARK       I    between atoms: C28_30  and  C29_31 
REMARK       I    between atoms: C30_32  and  C31_33 
REMARK       I    between atoms: C32_34  and  C33_35 
REMARK       I    between atoms: C34_36  and  C35_37 
ROOT
HETATM    1  C1  STQ 8 619     -34.265 127.033   6.640  1.00 35.06    -0.018 C 
HETATM    2  C2  STQ 8 619     -34.182 126.993   5.113  1.00 35.06     0.045 C 
HETATM    3  C3  STQ 8 619     -33.028 127.775   4.494  1.00 35.06     0.123 C 
HETATM    4  C4  STQ 8 619     -31.935 128.005   5.521  1.00 35.06     0.066 C 
HETATM    5  C5  STQ 8 619     -32.578 128.801   6.618  1.00 35.06    -0.074 C 
HETATM    6  C6  STQ 8 619     -33.632 128.266   7.236  1.00 35.06    -0.048 C 
HETATM    7  C7  STQ 8 619     -34.305 128.936   8.364  1.00 35.06     0.009 C 
HETATM    8  C8  STQ 8 619     -34.452 130.256   8.257  1.00 35.06     0.007 C 
HETATM    9  C9  STQ 8 619     -35.288 130.992   9.223  1.00 35.06    -0.062 C 
HETATM   10  C10 STQ 8 619     -35.768 132.181   8.829  1.00 35.06     0.007 C 
HETATM   11  C11 STQ 8 619     -36.704 132.981   9.607  1.00 35.06     0.001 C 
HETATM   12  C12 STQ 8 619     -37.230 134.059   9.044  1.00 35.06     0.007 C 
HETATM   13  C13 STQ 8 619     -38.242 134.873   9.728  1.00 35.06    -0.062 C 
HETATM   14  C14 STQ 8 619     -38.871 135.794   8.985  1.00 35.06     0.007 C 
HETATM   15  C15 STQ 8 619     -39.931 136.669   9.468  1.00 35.06     0.001 C 
HETATM   16  C16 STQ 8 619     -33.488 125.851   7.209  1.00 35.06     0.020 C 
HETATM   17  C17 STQ 8 619     -35.716 126.936   7.084  1.00 35.06     0.020 C 
HETATM   18  C18 STQ 8 619     -31.617 129.760   7.275  1.00 35.06     0.044 C 
HETATM   19  C19 STQ 8 619     -35.604 130.362  10.548  1.00 35.06     0.048 C 
HETATM   20  C20 STQ 8 619     -38.520 134.610  11.177  1.00 35.06     0.048 C 
HETATM   21  O3  STQ 8 619     -32.480 127.042   3.393  1.00 35.06    -0.395 OA
ATOM     22  H3  STQ 8 619     -31.762 127.528   3.008  1.00  0.00     0.210 HD
HETATM   23  C21 STQ 8 619     -49.517 145.111   9.677  1.00 35.06    -0.035 C 
HETATM   24  C22 STQ 8 619     -50.419 145.808  10.672  1.00 35.06     0.045 C 
HETATM   25  C23 STQ 8 619     -50.080 147.280  10.801  1.00 35.06     0.142 C 
HETATM   26  C24 STQ 8 619     -48.590 147.508  10.859  1.00 35.06     0.007 C 
HETATM   27  C25 STQ 8 619     -47.691 146.554  10.584  1.00 35.06    -0.077 C 
HETATM   28  C26 STQ 8 619     -48.083 145.161  10.179  1.00 35.06     0.044 C 
HETATM   29  C27 STQ 8 619     -47.153 144.608   9.124  1.00 35.06    -0.016 C 
HETATM   30  C28 STQ 8 619     -46.408 143.559   9.442  1.00 35.06     0.003 C 
HETATM   31  C29 STQ 8 619     -45.474 142.935   8.494  1.00 35.06    -0.062 C 
HETATM   32  C30 STQ 8 619     -44.792 141.881   8.962  1.00 35.06     0.007 C 
HETATM   33  C31 STQ 8 619     -43.808 141.115   8.213  1.00 35.06     0.001 C 
HETATM   34  C32 STQ 8 619     -43.193 140.138   8.866  1.00 35.06     0.007 C 
HETATM   35  C33 STQ 8 619     -42.152 139.304   8.250  1.00 35.06    -0.062 C 
HETATM   36  C34 STQ 8 619     -41.548 138.404   9.043  1.00 35.06     0.007 C 
HETATM   37  C35 STQ 8 619     -40.481 137.511   8.606  1.00 35.06     0.001 C 
HETATM   38  C36 STQ 8 619     -49.659 145.739   8.302  1.00 35.06     0.016 C 
HETATM   39  C37 STQ 8 619     -49.961 143.663   9.591  1.00 35.06     0.016 C 
HETATM   40  C38 STQ 8 619     -46.245 146.902  10.737  1.00 35.06     0.044 C 
HETATM   41  C39 STQ 8 619     -45.349 143.475   7.102  1.00 35.06     0.048 C 
HETATM   42  C40 STQ 8 619     -41.817 139.528   6.807  1.00 35.06     0.048 C 
HETATM   43  O23 STQ 8 619     -50.679 147.789  11.995  1.00 35.06    -0.392 OA
ATOM     44  H23 STQ 8 619     -51.617 147.645  11.959  1.00  0.00     0.210 HD
ENDROOT
TORSDOF 12
