REMARK VINA RESULT:    -8.120      0.000      0.000
REMARK INTER + INTRA:         -10.633
REMARK INTER:                  -8.120
REMARK INTRA:                  -2.513
REMARK UNBOUND:                -2.513
REMARK  0 active torsions:
REMARK  status: ('A' for Active; 'I' for Inactive)
REMARK       I    between atoms: C3_3  and  O3_21 
REMARK       I    between atoms: C6_6  and  C7_7 
REMARK       I    between atoms: C8_8  and  C9_9 
REMARK       I    between atoms: C10_10  and  C11_11 
REMARK       I    between atoms: C12_12  and  C13_13 
REMARK       I    between atoms: C14_14  and  C15_15 
REMARK       I    between atoms: C23_25  and  O23_43 
REMARK       I    between atoms: C26_28  and  C27_29 
REMARK       I    between atoms: C28_30  and  C29_31 
REMARK       I    between atoms: C30_32  and  C31_33 
REMARK       I    between atoms: C32_34  and  C33_35 
REMARK       I    between atoms: C34_36  and  C35_37 
ROOT
HETATM    1  C1  STQ F5621     -34.630 127.321   6.151  1.00 20.77    -0.018 C 
HETATM    2  C2  STQ F5621     -34.254 126.750   4.774  1.00 19.21     0.045 C 
HETATM    3  C3  STQ F5621     -32.892 127.057   4.157  1.00 20.68     0.123 C 
HETATM    4  C4  STQ F5621     -31.979 127.973   4.979  1.00 17.77     0.066 C 
HETATM    5  C5  STQ F5621     -32.480 128.680   6.197  1.00 19.05    -0.074 C 
HETATM    6  C6  STQ F5621     -33.705 128.413   6.779  1.00 19.48    -0.048 C 
HETATM    7  C7  STQ F5621     -34.245 129.101   7.982  1.00 16.56     0.009 C 
HETATM    8  C8  STQ F5621     -34.833 130.328   7.985  1.00 15.55     0.007 C 
HETATM    9  C9  STQ F5621     -35.360 131.106   9.118  1.00 14.22    -0.062 C 
HETATM   10  C10 STQ F5621     -36.019 132.253   8.838  1.00 14.29     0.007 C 
HETATM   11  C11 STQ F5621     -36.689 133.121   9.775  1.00 14.32     0.001 C 
HETATM   12  C12 STQ F5621     -37.413 134.195   9.378  1.00 14.19     0.007 C 
HETATM   13  C13 STQ F5621     -38.231 135.110  10.220  1.00 15.26    -0.062 C 
HETATM   14  C14 STQ F5621     -38.915 136.099   9.603  1.00 15.45     0.007 C 
HETATM   15  C15 STQ F5621     -39.809 137.055  10.213  1.00 16.70     0.001 C 
HETATM   16  C16 STQ F5621     -34.667 126.072   7.067  1.00 20.67     0.020 C 
HETATM   17  C17 STQ F5621     -36.074 127.847   6.011  1.00 19.98     0.020 C 
HETATM   18  C18 STQ F5621     -31.451 129.665   6.632  1.00 17.40     0.044 C 
HETATM   19  C19 STQ F5621     -35.203 130.534  10.492  1.00 13.40     0.048 C 
HETATM   20  C20 STQ F5621     -38.276 134.853  11.699  1.00 11.87     0.048 C 
HETATM   21  O3  STQ F5621     -32.215 125.850   3.818  1.00 20.33    -0.395 OA
ATOM     22  H3  STQ F5621     -31.367 126.041   3.433  1.00  0.00     0.210 HD
HETATM   23  C21 STQ F5621     -48.152 146.451  13.273  1.00 22.54    -0.035 C 
HETATM   24  C22 STQ F5621     -48.986 147.348  14.218  1.00 22.10     0.045 C 
HETATM   25  C23 STQ F5621     -48.360 148.710  14.548  1.00 22.88     0.142 C 
HETATM   26  C24 STQ F5621     -46.837 148.650  14.753  1.00 23.28     0.007 C 
HETATM   27  C25 STQ F5621     -46.103 147.577  14.364  1.00 24.20    -0.077 C 
HETATM   28  C26 STQ F5621     -46.654 146.315  13.697  1.00 21.98     0.044 C 
HETATM   29  C27 STQ F5621     -45.733 145.840  12.580  1.00 22.14    -0.016 C 
HETATM   30  C28 STQ F5621     -45.219 144.591  12.467  1.00 22.19     0.003 C 
HETATM   31  C29 STQ F5621     -44.499 144.030  11.315  1.00 22.13    -0.062 C 
HETATM   32  C30 STQ F5621     -44.021 142.769  11.403  1.00 22.11     0.007 C 
HETATM   33  C31 STQ F5621     -43.294 142.056  10.375  1.00 21.40     0.001 C 
HETATM   34  C32 STQ F5621     -42.688 140.871  10.612  1.00 17.66     0.007 C 
HETATM   35  C33 STQ F5621     -41.876 140.053   9.699  1.00 16.53    -0.062 C 
HETATM   36  C34 STQ F5621     -41.281 138.953  10.210  1.00 14.90     0.007 C 
HETATM   37  C35 STQ F5621     -40.407 138.038   9.529  1.00 15.48     0.001 C 
HETATM   38  C36 STQ F5621     -48.273 147.056  11.846  1.00 21.25     0.016 C 
HETATM   39  C37 STQ F5621     -48.805 145.058  13.234  1.00 21.27     0.016 C 
HETATM   40  C38 STQ F5621     -44.656 147.722  14.666  1.00 22.66     0.044 C 
HETATM   41  C39 STQ F5621     -44.276 144.919  10.131  1.00 22.70     0.048 C 
HETATM   42  C40 STQ F5621     -41.705 140.537   8.288  1.00 12.92     0.048 C 
HETATM   43  O23 STQ F5621     -48.996 149.272  15.685  1.00 22.94    -0.392 OA
ATOM     44  H23 STQ F5621     -48.608 150.115  15.890  1.00  0.00     0.210 HD
ENDROOT
TORSDOF 12
