REMARK VINA RESULT:   -11.945      0.000      0.000
REMARK INTER + INTRA:         -12.097
REMARK INTER:                 -11.945
REMARK INTRA:                  -0.152
REMARK UNBOUND:                -0.152
REMARK  0 active torsions:
REMARK  status: ('A' for Active; 'I' for Inactive)
REMARK       I    between atoms: C3_3  and  O3_21 
REMARK       I    between atoms: C6_6  and  C7_7 
REMARK       I    between atoms: C8_8  and  C9_9 
REMARK       I    between atoms: C10_10  and  C11_11 
REMARK       I    between atoms: C12_12  and  C13_13 
REMARK       I    between atoms: C14_14  and  C15_15 
REMARK       I    between atoms: C23_25  and  O23_43 
REMARK       I    between atoms: C26_28  and  C27_29 
REMARK       I    between atoms: C28_30  and  C29_31 
REMARK       I    between atoms: C30_32  and  C31_33 
REMARK       I    between atoms: C32_34  and  C33_35 
REMARK       I    between atoms: C34_36  and  C35_37 
ROOT
HETATM    1  C1  STQ 6 317     -34.134 128.015   7.014  1.00 89.78    -0.018 C 
HETATM    2  C2  STQ 6 317     -33.360 127.585   5.763  1.00 90.48     0.045 C 
HETATM    3  C3  STQ 6 317     -32.126 128.402   5.391  1.00 89.65     0.123 C 
HETATM    4  C4  STQ 6 317     -31.394 128.865   6.635  1.00 88.26     0.066 C 
HETATM    5  C5  STQ 6 317     -32.348 129.693   7.445  1.00 86.93    -0.074 C 
HETATM    6  C6  STQ 6 317     -33.571 129.240   7.705  1.00 87.83    -0.048 C 
HETATM    7  C7  STQ 6 317     -34.408 129.960   8.687  1.00 88.05     0.009 C 
HETATM    8  C8  STQ 6 317     -35.065 131.058   8.319  1.00 88.38     0.007 C 
HETATM    9  C9  STQ 6 317     -35.912 131.811   9.262  1.00 88.50    -0.062 C 
HETATM   10  C10 STQ 6 317     -36.544 132.902   8.809  1.00 89.92     0.007 C 
HETATM   11  C11 STQ 6 317     -37.416 133.735   9.633  1.00 90.53     0.001 C 
HETATM   12  C12 STQ 6 317     -38.000 134.766   9.028  1.00 91.02     0.007 C 
HETATM   13  C13 STQ 6 317     -38.916 135.694   9.717  1.00 91.35    -0.062 C 
HETATM   14  C14 STQ 6 317     -39.643 136.529   8.959  1.00 92.63     0.007 C 
HETATM   15  C15 STQ 6 317     -40.601 137.483   9.508  1.00 93.76     0.001 C 
HETATM   16  C16 STQ 6 317     -34.145 126.855   8.002  1.00 89.80     0.020 C 
HETATM   17  C17 STQ 6 317     -35.571 128.323   6.612  1.00 89.92     0.020 C 
HETATM   18  C18 STQ 6 317     -31.711 130.741   8.309  1.00 86.44     0.044 C 
HETATM   19  C19 STQ 6 317     -36.055 131.367  10.688  1.00 87.10     0.048 C 
HETATM   20  C20 STQ 6 317     -39.021 135.703  11.212  1.00 90.38     0.048 C 
HETATM   21  O3  STQ 6 317     -31.231 127.599   4.612  1.00 90.37    -0.395 OA
ATOM     22  H3  STQ 6 317     -30.463 128.108   4.380  1.00  0.00     0.210 HD
HETATM   23  C21 STQ 6 317     -50.429 145.692   9.367  1.00 97.08    -0.035 C 
HETATM   24  C22 STQ 6 317     -51.386 146.411  10.306  1.00 98.39     0.045 C 
HETATM   25  C23 STQ 6 317     -51.046 147.884  10.511  1.00 99.72     0.142 C 
HETATM   26  C24 STQ 6 317     -49.559 148.093  10.686  1.00 98.91     0.007 C 
HETATM   27  C25 STQ 6 317     -48.649 147.256  10.169  1.00 98.05    -0.077 C 
HETATM   28  C26 STQ 6 317     -48.994 145.826   9.864  1.00 96.60     0.044 C 
HETATM   29  C27 STQ 6 317     -48.053 145.252   8.828  1.00 95.22    -0.016 C 
HETATM   30  C28 STQ 6 317     -47.278 144.238   9.202  1.00 92.77     0.003 C 
HETATM   31  C29 STQ 6 317     -46.321 143.572   8.298  1.00 90.37    -0.062 C 
HETATM   32  C30 STQ 6 317     -45.687 142.494   8.776  1.00 97.58     0.007 C 
HETATM   33  C31 STQ 6 317     -44.719 141.700   8.028  1.00 95.39     0.001 C 
HETATM   34  C32 STQ 6 317     -44.058 140.804   8.753  1.00 92.75     0.007 C 
HETATM   35  C33 STQ 6 317     -43.046 139.873   8.230  1.00 90.45    -0.062 C 
HETATM   36  C34 STQ 6 317     -42.308 139.170   9.106  1.00 98.23     0.007 C 
HETATM   37  C35 STQ 6 317     -41.309 138.211   8.646  1.00 96.59     0.001 C 
HETATM   38  C36 STQ 6 317     -50.551 146.240   7.951  1.00 96.67     0.016 C 
HETATM   39  C37 STQ 6 317     -50.806 144.216   9.345  1.00 96.89     0.016 C 
HETATM   40  C38 STQ 6 317     -47.263 147.761   9.898  1.00 98.35     0.044 C 
HETATM   41  C39 STQ 6 317     -46.073 144.075   6.906  1.00 90.75     0.048 C 
HETATM   42  C40 STQ 6 317     -42.866 139.701   6.751  1.00 90.73     0.048 C 
HETATM   43  O23 STQ 6 317     -51.724 148.355  11.683  1.00 90.07    -0.392 OA
ATOM     44  H23 STQ 6 317     -51.512 149.272  11.810  1.00  0.00     0.210 HD
ENDROOT
TORSDOF 12
