REMARK VINA RESULT:    -9.830      0.000      0.000
REMARK INTER + INTRA:         -10.323
REMARK INTER:                  -9.830
REMARK INTRA:                  -0.494
REMARK UNBOUND:                -0.494
REMARK  0 active torsions:
REMARK  status: ('A' for Active; 'I' for Inactive)
REMARK       I    between atoms: C3_3  and  O3_21 
REMARK       I    between atoms: C6_6  and  C7_7 
REMARK       I    between atoms: C8_8  and  C9_9 
REMARK       I    between atoms: C10_10  and  C11_11 
REMARK       I    between atoms: C12_12  and  C13_13 
REMARK       I    between atoms: C14_14  and  C15_15 
REMARK       I    between atoms: C23_25  and  O23_43 
REMARK       I    between atoms: C26_28  and  C27_29 
REMARK       I    between atoms: C28_30  and  C29_31 
REMARK       I    between atoms: C30_32  and  C31_33 
REMARK       I    between atoms: C32_34  and  C33_35 
REMARK       I    between atoms: C34_36  and  C35_37 
ROOT
HETATM    1  C1  STQ J9621     -34.117 128.337   7.152  1.00 21.11    -0.018 C 
HETATM    2  C2  STQ J9621     -33.414 127.711   5.935  1.00 20.11     0.045 C 
HETATM    3  C3  STQ J9621     -31.974 128.100   5.604  1.00 19.41     0.123 C 
HETATM    4  C4  STQ J9621     -31.355 129.200   6.478  1.00 18.39     0.066 C 
HETATM    5  C5  STQ J9621     -32.160 129.962   7.477  1.00 18.34    -0.074 C 
HETATM    6  C6  STQ J9621     -33.437 129.587   7.828  1.00 19.81    -0.048 C 
HETATM    7  C7  STQ J9621     -34.276 130.262   8.843  1.00 19.02     0.009 C 
HETATM    8  C8  STQ J9621     -34.994 131.382   8.630  1.00 17.97     0.007 C 
HETATM    9  C9  STQ J9621     -35.844 132.100   9.585  1.00 18.85    -0.062 C 
HETATM   10  C10 STQ J9621     -36.575 133.136   9.110  1.00 18.38     0.007 C 
HETATM   11  C11 STQ J9621     -37.540 133.931   9.833  1.00 18.57     0.001 C 
HETATM   12  C12 STQ J9621     -38.273 134.892   9.228  1.00 17.11     0.007 C 
HETATM   13  C13 STQ J9621     -39.340 135.713   9.819  1.00 20.42    -0.062 C 
HETATM   14  C14 STQ J9621     -39.977 136.598   9.018  1.00 20.50     0.007 C 
HETATM   15  C15 STQ J9621     -41.076 137.459   9.384  1.00 20.22     0.001 C 
HETATM   16  C16 STQ J9621     -34.227 127.162   8.156  1.00 19.56     0.020 C 
HETATM   17  C17 STQ J9621     -35.541 128.686   6.670  1.00 18.49     0.020 C 
HETATM   18  C18 STQ J9621     -31.324 131.057   8.028  1.00 16.89     0.044 C 
HETATM   19  C19 STQ J9621     -35.898 131.587  10.996  1.00 14.61     0.048 C 
HETATM   20  C20 STQ J9621     -39.686 135.492  11.273  1.00 17.59     0.048 C 
HETATM   21  O3  STQ J9621     -31.145 126.951   5.601  1.00 18.27    -0.395 OA
ATOM     22  H3  STQ J9621     -30.249 127.193   5.395  1.00  0.00     0.210 HD
HETATM   23  C21 STQ J9621     -50.915 145.909   9.772  1.00 22.52    -0.035 C 
HETATM   24  C22 STQ J9621     -52.043 146.704  10.458  1.00 21.99     0.045 C 
HETATM   25  C23 STQ J9621     -51.670 148.134  10.852  1.00 21.90     0.142 C 
HETATM   26  C24 STQ J9621     -50.233 148.290  11.362  1.00 21.56     0.007 C 
HETATM   27  C25 STQ J9621     -49.295 147.324  11.200  1.00 22.48    -0.077 C 
HETATM   28  C26 STQ J9621     -49.537 145.980  10.516  1.00 21.56     0.044 C 
HETATM   29  C27 STQ J9621     -48.355 145.564   9.667  1.00 20.56    -0.016 C 
HETATM   30  C28 STQ J9621     -47.680 144.391   9.798  1.00 20.46     0.003 C 
HETATM   31  C29 STQ J9621     -46.672 143.848   8.863  1.00 19.55    -0.062 C 
HETATM   32  C30 STQ J9621     -46.065 142.682   9.176  1.00 17.66     0.007 C 
HETATM   33  C31 STQ J9621     -45.056 142.005   8.398  1.00 19.12     0.001 C 
HETATM   34  C32 STQ J9621     -44.380 140.929   8.864  1.00 19.40     0.007 C 
HETATM   35  C33 STQ J9621     -43.306 140.148   8.223  1.00 19.31    -0.062 C 
HETATM   36  C34 STQ J9621     -42.721 139.171   8.948  1.00 17.72     0.007 C 
HETATM   37  C35 STQ J9621     -41.628 138.331   8.541  1.00 19.92     0.001 C 
HETATM   38  C36 STQ J9621     -50.792 146.447   8.315  1.00 21.96     0.016 C 
HETATM   39  C37 STQ J9621     -51.381 144.451   9.692  1.00 20.23     0.016 C 
HETATM   40  C38 STQ J9621     -47.960 147.664  11.767  1.00 21.00     0.044 C 
HETATM   41  C39 STQ J9621     -46.331 144.669   7.648  1.00 18.53     0.048 C 
HETATM   42  C40 STQ J9621     -42.888 140.536   6.831  1.00 15.86     0.048 C 
HETATM   43  O23 STQ J9621     -52.600 148.627  11.803  1.00 24.65    -0.392 OA
ATOM     44  H23 STQ J9621     -52.368 149.515  12.047  1.00  0.00     0.210 HD
ENDROOT
TORSDOF 12
