REMARK VINA RESULT:   -10.780      0.000      0.000
REMARK INTER + INTRA:         -13.273
REMARK INTER:                 -10.780
REMARK INTRA:                  -2.493
REMARK UNBOUND:                -2.493
REMARK  0 active torsions:
REMARK  status: ('A' for Active; 'I' for Inactive)
REMARK       I    between atoms: C3_3  and  O3_21 
REMARK       I    between atoms: C6_6  and  C7_7 
REMARK       I    between atoms: C8_8  and  C9_9 
REMARK       I    between atoms: C10_10  and  C11_11 
REMARK       I    between atoms: C12_12  and  C13_13 
REMARK       I    between atoms: C14_14  and  C15_15 
REMARK       I    between atoms: C23_25  and  O23_43 
REMARK       I    between atoms: C26_28  and  C27_29 
REMARK       I    between atoms: C28_30  and  C29_31 
REMARK       I    between atoms: C30_32  and  C31_33 
REMARK       I    between atoms: C32_34  and  C33_35 
REMARK       I    between atoms: C34_36  and  C35_37 
ROOT
HETATM    1  C1  STQ 9 616     -34.284 127.315   6.667  1.00 76.22    -0.018 C 
HETATM    2  C2  STQ 9 616     -33.801 126.942   5.264  1.00 77.20     0.045 C 
HETATM    3  C3  STQ 9 616     -32.607 127.721   4.720  1.00 77.70     0.123 C 
HETATM    4  C4  STQ 9 616     -31.601 128.003   5.818  1.00 77.16     0.066 C 
HETATM    5  C5  STQ 9 616     -32.289 128.788   6.899  1.00 77.00    -0.074 C 
HETATM    6  C6  STQ 9 616     -33.506 128.438   7.317  1.00 75.82    -0.048 C 
HETATM    7  C7  STQ 9 616     -34.140 129.172   8.434  1.00 74.01     0.009 C 
HETATM    8  C8  STQ 9 616     -34.789 130.305   8.179  1.00 71.77     0.007 C 
HETATM    9  C9  STQ 9 616     -35.453 131.096   9.229  1.00 69.92    -0.062 C 
HETATM   10  C10 STQ 9 616     -36.039 132.239   8.852  1.00 69.51     0.007 C 
HETATM   11  C11 STQ 9 616     -36.754 133.152   9.735  1.00 69.37     0.001 C 
HETATM   12  C12 STQ 9 616     -37.455 134.081   9.091  1.00 71.55     0.007 C 
HETATM   13  C13 STQ 9 616     -38.279 135.118   9.735  1.00 72.10    -0.062 C 
HETATM   14  C14 STQ 9 616     -39.039 135.884   8.934  1.00 74.51     0.007 C 
HETATM   15  C15 STQ 9 616     -39.912 136.937   9.442  1.00 77.06     0.001 C 
HETATM   16  C16 STQ 9 616     -34.190 126.084   7.559  1.00 75.57     0.020 C 
HETATM   17  C17 STQ 9 616     -35.739 127.760   6.578  1.00 77.01     0.020 C 
HETATM   18  C18 STQ 9 616     -31.494 129.831   7.629  1.00 76.92     0.044 C 
HETATM   19  C19 STQ 9 616     -35.473 130.626  10.653  1.00 68.71     0.048 C 
HETATM   20  C20 STQ 9 616     -38.268 135.304  11.224  1.00 70.74     0.048 C 
HETATM   21  O3  STQ 9 616     -31.963 126.953   3.699  1.00 79.46    -0.395 OA
ATOM     22  H3  STQ 9 616     -32.593 126.776   3.010  1.00  0.00     0.210 HD
HETATM   23  C21 STQ 9 616     -49.536 145.360  10.002  1.00 93.43    -0.035 C 
HETATM   24  C22 STQ 9 616     -50.359 146.427  10.709  1.00 93.14     0.045 C 
HETATM   25  C23 STQ 9 616     -50.110 147.817  10.139  1.00 93.43     0.142 C 
HETATM   26  C24 STQ 9 616     -48.631 148.089  10.012  1.00 94.29     0.007 C 
HETATM   27  C25 STQ 9 616     -47.715 147.117   9.884  1.00 94.25    -0.077 C 
HETATM   28  C26 STQ 9 616     -48.040 145.662  10.091  1.00 93.11     0.044 C 
HETATM   29  C27 STQ 9 616     -47.295 144.813   9.081  1.00 90.90    -0.016 C 
HETATM   30  C28 STQ 9 616     -46.365 143.963   9.510  1.00 97.79     0.003 C 
HETATM   31  C29 STQ 9 616     -45.611 143.098   8.582  1.00 94.71    -0.062 C 
HETATM   32  C30 STQ 9 616     -44.753 142.207   9.100  1.00 92.10     0.007 C 
HETATM   33  C31 STQ 9 616     -43.965 141.289   8.281  1.00 90.22     0.001 C 
HETATM   34  C32 STQ 9 616     -43.171 140.451   8.940  1.00 87.90     0.007 C 
HETATM   35  C33 STQ 9 616     -42.305 139.441   8.302  1.00 85.43    -0.062 C 
HETATM   36  C34 STQ 9 616     -41.538 138.682   9.102  1.00 81.82     0.007 C 
HETATM   37  C35 STQ 9 616     -40.654 137.643   8.588  1.00 79.00     0.001 C 
HETATM   38  C36 STQ 9 616     -49.972 145.251   8.545  1.00 93.91     0.016 C 
HETATM   39  C37 STQ 9 616     -49.797 144.024  10.689  1.00 93.24     0.016 C 
HETATM   40  C38 STQ 9 616     -46.305 147.499   9.542  1.00 94.53     0.044 C 
HETATM   41  C39 STQ 9 616     -45.805 143.207   7.098  1.00 94.19     0.048 C 
HETATM   42  C40 STQ 9 616     -42.287 139.268   6.811  1.00 84.99     0.048 C 
HETATM   43  O23 STQ 9 616     -50.683 148.788  11.022  1.00 92.63    -0.392 OA
ATOM     44  H23 STQ 9 616     -50.527 149.654  10.666  1.00  0.00     0.210 HD
ENDROOT
TORSDOF 12
