REMARK VINA RESULT:    -8.208      1.332     17.331
REMARK INTER + INTRA:          -8.113
REMARK INTER:                  -7.762
REMARK INTRA:                  -0.351
REMARK UNBOUND:                 0.096
REMARK  0 active torsions:
REMARK  status: ('A' for Active; 'I' for Inactive)
REMARK       I    between atoms: C3_3  and  O3_21 
REMARK       I    between atoms: C6_6  and  C7_7 
REMARK       I    between atoms: C8_8  and  C9_9 
REMARK       I    between atoms: C10_10  and  C11_11 
REMARK       I    between atoms: C12_12  and  C13_13 
REMARK       I    between atoms: C14_14  and  C15_15 
REMARK       I    between atoms: C23_25  and  O23_43 
REMARK       I    between atoms: C26_28  and  C27_29 
REMARK       I    between atoms: C28_30  and  C29_31 
REMARK       I    between atoms: C30_32  and  C31_33 
REMARK       I    between atoms: C32_34  and  C33_35 
REMARK       I    between atoms: C34_36  and  C35_37 
ROOT
HETATM    1  C1  STQ E4621     -49.805 146.694  12.203  1.00 16.11    -0.017 A 
HETATM    2  C2  STQ E4621     -50.761 147.246  13.273  1.00 15.05     0.049 A 
HETATM    3  C3  STQ E4621     -50.317 148.387  14.180  1.00 18.47     0.142 A 
HETATM    4  C4  STQ E4621     -48.858 148.843  14.017  1.00 15.72     0.012 A 
HETATM    5  C5  STQ E4621     -47.948 148.252  12.995  1.00 14.51    -0.056 A 
HETATM    6  C6  STQ E4621     -48.344 147.259  12.146  1.00 15.74    -0.044 A 
HETATM    7  C7  STQ E4621     -47.463 146.638  11.123  1.00 14.17     0.009 C 
HETATM    8  C8  STQ E4621     -46.535 145.684  11.302  1.00 12.66     0.007 C 
HETATM    9  C9  STQ E4621     -45.649 145.128  10.287  1.00 13.35    -0.062 C 
HETATM   10  C10 STQ E4621     -44.886 144.071  10.639  1.00 14.12     0.007 C 
HETATM   11  C11 STQ E4621     -44.012 143.310   9.776  1.00 17.35     0.001 C 
HETATM   12  C12 STQ E4621     -43.373 142.199  10.219  1.00 16.42     0.007 C 
HETATM   13  C13 STQ E4621     -42.527 141.285   9.446  1.00 15.51    -0.062 C 
HETATM   14  C14 STQ E4621     -42.020 140.204  10.077  1.00 14.68     0.007 C 
HETATM   15  C15 STQ E4621     -41.225 139.162   9.503  1.00 15.30     0.001 C 
HETATM   16  C16 STQ E4621     -50.551 147.010  10.886  1.00 14.06     0.020 C 
HETATM   17  C17 STQ E4621     -49.780 145.157  12.388  1.00 11.15     0.020 C 
HETATM   18  C18 STQ E4621     -46.613 148.894  13.069  1.00 14.35     0.048 C 
HETATM   19  C19 STQ E4621     -45.709 145.713   8.900  1.00 12.51     0.048 C 
HETATM   20  C20 STQ E4621     -42.314 141.592   7.994  1.00 15.42     0.048 C 
HETATM   21  O3  STQ E4621     -51.196 149.495  14.042  1.00 20.70    -0.392 OA
ATOM     22  H3  STQ E4621     -50.920 150.206  14.608  1.00  0.00     0.210 HD
HETATM   23  C21 STQ E4621     -34.239 128.501   6.991  1.00 21.70    -0.035 C 
HETATM   24  C22 STQ E4621     -33.425 127.589   6.057  1.00 19.94     0.045 C 
HETATM   25  C23 STQ E4621     -31.917 127.676   6.275  1.00 22.24     0.142 C 
HETATM   26  C24 STQ E4621     -31.417 129.116   6.517  1.00 22.23     0.007 C 
HETATM   27  C25 STQ E4621     -32.262 130.134   6.830  1.00 22.92    -0.077 C 
HETATM   28  C26 STQ E4621     -33.775 129.990   6.963  1.00 22.02     0.044 C 
HETATM   29  C27 STQ E4621     -34.317 130.849   8.112  1.00 21.48    -0.016 C 
HETATM   30  C28 STQ E4621     -35.329 131.756   8.017  1.00 19.73     0.003 C 
HETATM   31  C29 STQ E4621     -35.991 132.466   9.127  1.00 19.82    -0.062 C 
HETATM   32  C30 STQ E4621     -36.956 133.366   8.838  1.00 18.83     0.007 C 
HETATM   33  C31 STQ E4621     -37.727 134.132   9.793  1.00 18.73     0.001 C 
HETATM   34  C32 STQ E4621     -38.524 135.163   9.402  1.00 18.34     0.007 C 
HETATM   35  C33 STQ E4621     -39.339 136.078  10.219  1.00 16.35    -0.062 C 
HETATM   36  C34 STQ E4621     -39.949 137.106   9.593  1.00 13.70     0.007 C 
HETATM   37  C35 STQ E4621     -40.738 138.143  10.216  1.00 15.99     0.001 C 
HETATM   38  C36 STQ E4621     -34.152 127.935   8.444  1.00 20.64     0.016 C 
HETATM   39  C37 STQ E4621     -35.695 128.393   6.523  1.00 21.18     0.016 C 
HETATM   40  C38 STQ E4621     -31.624 131.469   7.034  1.00 23.47     0.044 C 
HETATM   41  C39 STQ E4621     -35.503 132.194  10.524  1.00 19.63     0.048 C 
HETATM   42  C40 STQ E4621     -39.375 135.856  11.704  1.00 14.68     0.048 C 
HETATM   43  O23 STQ E4621     -31.233 127.067   5.189  1.00 24.71    -0.392 OA
ATOM     44  H23 STQ E4621     -31.541 126.181   5.039  1.00  0.00     0.210 HD
ENDROOT
TORSDOF 12
