REMARK VINA RESULT:    -8.648      0.735     16.913
REMARK INTER + INTRA:         -12.200
REMARK INTER:                 -10.032
REMARK INTRA:                  -2.168
REMARK UNBOUND:                -3.552
REMARK  0 active torsions:
REMARK  status: ('A' for Active; 'I' for Inactive)
REMARK       I    between atoms: C3_3  and  O3_21 
REMARK       I    between atoms: C6_6  and  C7_7 
REMARK       I    between atoms: C8_8  and  C9_9 
REMARK       I    between atoms: C10_10  and  C11_11 
REMARK       I    between atoms: C12_12  and  C13_13 
REMARK       I    between atoms: C14_14  and  C15_15 
REMARK       I    between atoms: C23_25  and  O23_43 
REMARK       I    between atoms: C26_28  and  C27_29 
REMARK       I    between atoms: C28_30  and  C29_31 
REMARK       I    between atoms: C30_32  and  C31_33 
REMARK       I    between atoms: C32_34  and  C33_35 
REMARK       I    between atoms: C34_36  and  C35_37 
ROOT
HETATM    1  C1  STQ 3 622     -46.818 146.427  13.458  1.00 17.54    -0.018 C 
HETATM    2  C2  STQ 3 622     -47.005 146.690  14.943  1.00 17.54     0.045 C 
HETATM    3  C3  STQ 3 622     -46.556 148.042  15.491  1.00 17.54     0.123 C 
HETATM    4  C4  STQ 3 622     -45.387 148.678  14.753  1.00 17.54     0.066 C 
HETATM    5  C5  STQ 3 622     -44.760 147.784  13.716  1.00 17.54    -0.074 C 
HETATM    6  C6  STQ 3 622     -45.418 146.817  13.061  1.00 17.54    -0.048 C 
HETATM    7  C7  STQ 3 622     -44.787 146.141  11.902  1.00 17.54     0.009 C 
HETATM    8  C8  STQ 3 622     -44.137 144.984  12.005  1.00 17.54     0.007 C 
HETATM    9  C9  STQ 3 622     -43.524 144.357  10.821  1.00 17.54    -0.062 C 
HETATM   10  C10 STQ 3 622     -42.886 143.193  10.985  1.00 17.54     0.007 C 
HETATM   11  C11 STQ 3 622     -42.232 142.446   9.912  1.00 17.54     0.001 C 
HETATM   12  C12 STQ 3 622     -41.871 141.212  10.242  1.00 17.54     0.007 C 
HETATM   13  C13 STQ 3 622     -41.201 140.212   9.394  1.00 17.54    -0.062 C 
HETATM   14  C14 STQ 3 622     -40.789 139.098  10.013  1.00 17.54     0.007 C 
HETATM   15  C15 STQ 3 622     -40.127 137.998   9.329  1.00 17.54     0.001 C 
HETATM   16  C16 STQ 3 622     -47.870 147.139  12.608  1.00 17.54     0.020 C 
HETATM   17  C17 STQ 3 622     -47.012 144.937  13.248  1.00 17.54     0.020 C 
HETATM   18  C18 STQ 3 622     -43.457 148.297  13.211  1.00 17.54     0.044 C 
HETATM   19  C19 STQ 3 622     -43.620 145.011   9.477  1.00 17.54     0.048 C 
HETATM   20  C20 STQ 3 622     -40.989 140.412   7.925  1.00 17.54     0.048 C 
HETATM   21  O3  STQ 3 622     -47.672 148.937  15.452  1.00 17.54    -0.395 OA
ATOM     22  H3  STQ 3 622     -47.393 149.779  15.793  1.00  0.00     0.210 HD
HETATM   23  C21 STQ 3 622     -34.707 126.927   6.143  1.00 17.54    -0.035 C 
HETATM   24  C22 STQ 3 622     -34.188 126.112   4.966  1.00 17.54     0.045 C 
HETATM   25  C23 STQ 3 622     -32.696 126.252   4.702  1.00 17.54     0.142 C 
HETATM   26  C24 STQ 3 622     -32.214 127.672   4.875  1.00 17.54     0.007 C 
HETATM   27  C25 STQ 3 622     -32.861 128.576   5.620  1.00 17.54    -0.077 C 
HETATM   28  C26 STQ 3 622     -34.305 128.402   6.012  1.00 17.54     0.044 C 
HETATM   29  C27 STQ 3 622     -34.610 129.147   7.297  1.00 17.54    -0.016 C 
HETATM   30  C28 STQ 3 622     -35.485 130.144   7.262  1.00 17.54     0.003 C 
HETATM   31  C29 STQ 3 622     -35.848 130.914   8.460  1.00 17.54    -0.062 C 
HETATM   32  C30 STQ 3 622     -36.783 131.854   8.309  1.00 17.54     0.007 C 
HETATM   33  C31 STQ 3 622     -37.272 132.713   9.376  1.00 17.54     0.001 C 
HETATM   34  C32 STQ 3 622     -37.908 133.801   8.970  1.00 17.54     0.007 C 
HETATM   35  C33 STQ 3 622     -38.483 134.809   9.874  1.00 17.54    -0.062 C 
HETATM   36  C34 STQ 3 622     -39.116 135.839   9.300  1.00 17.54     0.007 C 
HETATM   37  C35 STQ 3 622     -39.749 136.931  10.024  1.00 17.54     0.001 C 
HETATM   38  C36 STQ 3 622     -34.240 126.333   7.470  1.00 17.54     0.016 C 
HETATM   39  C37 STQ 3 622     -36.225 126.826   6.107  1.00 17.54     0.016 C 
HETATM   40  C38 STQ 3 622     -32.110 129.798   6.052  1.00 17.54     0.044 C 
HETATM   41  C39 STQ 3 622     -35.197 130.642   9.781  1.00 17.54     0.048 C 
HETATM   42  C40 STQ 3 622     -38.353 134.683  11.360  1.00 17.54     0.048 C 
HETATM   43  O23 STQ 3 622     -32.416 125.850   3.357  1.00 17.54    -0.392 OA
ATOM     44  H23 STQ 3 622     -31.485 125.938   3.193  1.00  0.00     0.210 HD
ENDROOT
TORSDOF 12
