REMARK VINA RESULT:   -12.162      0.000      0.000
REMARK INTER + INTRA:         -14.731
REMARK INTER:                 -12.162
REMARK INTRA:                  -2.569
REMARK UNBOUND:                -2.569
REMARK  0 active torsions:
REMARK  status: ('A' for Active; 'I' for Inactive)
REMARK       I    between atoms: C3_3  and  O3_21 
REMARK       I    between atoms: C6_6  and  C7_7 
REMARK       I    between atoms: C8_8  and  C9_9 
REMARK       I    between atoms: C10_10  and  C11_11 
REMARK       I    between atoms: C12_12  and  C13_13 
REMARK       I    between atoms: C14_14  and  C15_15 
REMARK       I    between atoms: C23_25  and  O23_43 
REMARK       I    between atoms: C26_28  and  C27_29 
REMARK       I    between atoms: C28_30  and  C29_31 
REMARK       I    between atoms: C30_32  and  C31_33 
REMARK       I    between atoms: C32_34  and  C33_35 
REMARK       I    between atoms: C34_36  and  C35_37 
ROOT
HETATM    1  C1  STQ 9 617     -34.181 127.265   6.679  1.00 40.88    -0.018 C 
HETATM    2  C2  STQ 9 617     -33.775 126.823   5.272  1.00 40.88     0.045 C 
HETATM    3  C3  STQ 9 617     -32.634 127.568   4.588  1.00 40.88     0.123 C 
HETATM    4  C4  STQ 9 617     -31.624 128.090   5.593  1.00 40.88     0.066 C 
HETATM    5  C5  STQ 9 617     -32.365 128.952   6.578  1.00 40.88    -0.074 C 
HETATM    6  C6  STQ 9 617     -33.504 128.538   7.144  1.00 40.88    -0.048 C 
HETATM    7  C7  STQ 9 617     -34.107 129.313   8.265  1.00 40.88     0.009 C 
HETATM    8  C8  STQ 9 617     -35.044 130.241   8.071  1.00 40.88     0.007 C 
HETATM    9  C9  STQ 9 617     -35.659 131.018   9.168  1.00 40.88    -0.062 C 
HETATM   10  C10 STQ 9 617     -36.504 131.991   8.816  1.00 40.88     0.007 C 
HETATM   11  C11 STQ 9 617     -37.227 132.887   9.707  1.00 40.88     0.001 C 
HETATM   12  C12 STQ 9 617     -37.739 133.946   9.095  1.00 40.88     0.007 C 
HETATM   13  C13 STQ 9 617     -38.550 134.988   9.738  1.00 40.88    -0.062 C 
HETATM   14  C14 STQ 9 617     -39.214 135.814   8.914  1.00 40.88     0.007 C 
HETATM   15  C15 STQ 9 617     -40.105 136.869   9.376  1.00 40.88     0.001 C 
HETATM   16  C16 STQ 9 617     -33.913 126.099   7.629  1.00 40.88     0.020 C 
HETATM   17  C17 STQ 9 617     -35.674 127.544   6.673  1.00 40.88     0.020 C 
HETATM   18  C18 STQ 9 617     -31.571 130.077   7.161  1.00 40.88     0.044 C 
HETATM   19  C19 STQ 9 617     -35.352 130.733  10.606  1.00 40.88     0.048 C 
HETATM   20  C20 STQ 9 617     -38.651 135.097  11.231  1.00 40.88     0.048 C 
HETATM   21  O3  STQ 9 617     -31.971 126.665   3.696  1.00 40.88    -0.395 OA
ATOM     22  H3  STQ 9 617     -32.603 126.338   3.067  1.00  0.00     0.210 HD
HETATM   23  C21 STQ 9 617     -49.628 145.514   9.136  1.00 40.88    -0.035 C 
HETATM   24  C22 STQ 9 617     -50.600 146.212  10.078  1.00 40.88     0.045 C 
HETATM   25  C23 STQ 9 617     -50.029 147.388  10.862  1.00 40.88     0.142 C 
HETATM   26  C24 STQ 9 617     -48.620 147.118  11.325  1.00 40.88     0.007 C 
HETATM   27  C25 STQ 9 617     -47.796 146.389  10.569  1.00 40.88    -0.077 C 
HETATM   28  C26 STQ 9 617     -48.314 145.183   9.842  1.00 40.88     0.044 C 
HETATM   29  C27 STQ 9 617     -47.320 144.652   8.831  1.00 40.88    -0.016 C 
HETATM   30  C28 STQ 9 617     -46.749 143.482   9.078  1.00 40.88     0.003 C 
HETATM   31  C29 STQ 9 617     -45.790 142.860   8.152  1.00 40.88    -0.062 C 
HETATM   32  C30 STQ 9 617     -45.237 141.708   8.537  1.00 40.88     0.007 C 
HETATM   33  C31 STQ 9 617     -44.292 140.929   7.747  1.00 40.88     0.001 C 
HETATM   34  C32 STQ 9 617     -43.586 140.061   8.455  1.00 40.88     0.007 C 
HETATM   35  C33 STQ 9 617     -42.592 139.125   7.925  1.00 40.88    -0.062 C 
HETATM   36  C34 STQ 9 617     -41.904 138.409   8.825  1.00 40.88     0.007 C 
HETATM   37  C35 STQ 9 617     -40.922 137.396   8.465  1.00 40.88     0.001 C 
HETATM   38  C36 STQ 9 617     -49.390 146.373   7.899  1.00 40.88     0.016 C 
HETATM   39  C37 STQ 9 617     -50.283 144.220   8.672  1.00 40.88     0.016 C 
HETATM   40  C38 STQ 9 617     -46.364 146.803  10.450  1.00 40.88     0.044 C 
HETATM   41  C39 STQ 9 617     -45.471 143.484   6.827  1.00 40.88     0.048 C 
HETATM   42  C40 STQ 9 617     -42.392 138.970   6.447  1.00 40.88     0.048 C 
HETATM   43  O23 STQ 9 617     -50.861 147.625  12.002  1.00 40.88    -0.392 OA
ATOM     44  H23 STQ 9 617     -50.505 148.359  12.490  1.00  0.00     0.210 HD
ENDROOT
TORSDOF 12
