REMARK VINA RESULT:   -11.770      1.608      2.091
REMARK INTER + INTRA:         -11.789
REMARK INTER:                  -9.284
REMARK INTRA:                  -2.505
REMARK UNBOUND:                -0.019
REMARK  0 active torsions:
REMARK  status: ('A' for Active; 'I' for Inactive)
REMARK       I    between atoms: C3_3  and  O3_21 
REMARK       I    between atoms: C6_6  and  C7_7 
REMARK       I    between atoms: C8_8  and  C9_9 
REMARK       I    between atoms: C10_10  and  C11_11 
REMARK       I    between atoms: C12_12  and  C13_13 
REMARK       I    between atoms: C14_14  and  C15_15 
REMARK       I    between atoms: C23_25  and  O23_43 
REMARK       I    between atoms: C26_28  and  C27_29 
REMARK       I    between atoms: C28_30  and  C29_31 
REMARK       I    between atoms: C30_32  and  C31_33 
REMARK       I    between atoms: C32_34  and  C33_35 
REMARK       I    between atoms: C34_36  and  C35_37 
ROOT
HETATM    1  C1  STQ U1621     -34.412 127.004   6.452  1.00 20.50    -0.018 C 
HETATM    2  C2  STQ U1621     -34.242 126.721   4.966  1.00 20.50     0.045 C 
HETATM    3  C3  STQ U1621     -33.094 127.415   4.262  1.00 20.50     0.123 C 
HETATM    4  C4  STQ U1621     -32.019 127.769   5.260  1.00 20.50     0.066 C 
HETATM    5  C5  STQ U1621     -32.666 128.669   6.260  1.00 20.50    -0.074 C 
HETATM    6  C6  STQ U1621     -33.691 128.219   6.959  1.00 20.50    -0.048 C 
HETATM    7  C7  STQ U1621     -34.287 128.954   8.083  1.00 20.50     0.009 C 
HETATM    8  C8  STQ U1621     -34.320 130.282   8.038  1.00 20.50     0.007 C 
HETATM    9  C9  STQ U1621     -35.129 130.999   9.037  1.00 20.50    -0.062 C 
HETATM   10  C10 STQ U1621     -35.569 132.223   8.722  1.00 20.50     0.007 C 
HETATM   11  C11 STQ U1621     -36.501 132.984   9.545  1.00 20.50     0.001 C 
HETATM   12  C12 STQ U1621     -37.053 134.087   9.054  1.00 20.50     0.007 C 
HETATM   13  C13 STQ U1621     -38.060 134.848   9.816  1.00 20.50    -0.062 C 
HETATM   14  C14 STQ U1621     -38.685 135.857   9.195  1.00 20.50     0.007 C 
HETATM   15  C15 STQ U1621     -39.721 136.680   9.812  1.00 20.50     0.001 C 
HETATM   16  C16 STQ U1621     -33.840 125.850   7.256  1.00 20.50     0.020 C 
HETATM   17  C17 STQ U1621     -35.891 127.097   6.737  1.00 20.50     0.020 C 
HETATM   18  C18 STQ U1621     -31.587 129.478   6.887  1.00 20.50     0.044 C 
HETATM   19  C19 STQ U1621     -35.514 130.312  10.310  1.00 20.50     0.048 C 
HETATM   20  C20 STQ U1621     -38.355 134.446  11.226  1.00 20.50     0.048 C 
HETATM   21  O3  STQ U1621     -32.586 126.496   3.305  1.00 20.50    -0.395 OA
ATOM     22  H3  STQ U1621     -31.866 126.931   2.864  1.00  0.00     0.210 HD
HETATM   23  C21 STQ U1621     -48.479 145.857  11.724  1.00 20.50    -0.035 C 
HETATM   24  C22 STQ U1621     -49.278 146.738  12.656  1.00 20.50     0.045 C 
HETATM   25  C23 STQ U1621     -48.704 148.127  12.754  1.00 20.50     0.142 C 
HETATM   26  C24 STQ U1621     -47.213 148.089  12.943  1.00 20.50     0.007 C 
HETATM   27  C25 STQ U1621     -46.469 147.017  12.670  1.00 20.50    -0.077 C 
HETATM   28  C26 STQ U1621     -47.035 145.725  12.180  1.00 20.50     0.044 C 
HETATM   29  C27 STQ U1621     -46.181 145.177  11.066  1.00 20.50    -0.016 C 
HETATM   30  C28 STQ U1621     -45.640 143.976  11.218  1.00 20.50     0.003 C 
HETATM   31  C29 STQ U1621     -44.800 143.359  10.182  1.00 20.50    -0.062 C 
HETATM   32  C30 STQ U1621     -44.330 142.130  10.441  1.00 20.50     0.007 C 
HETATM   33  C31 STQ U1621     -43.449 141.381   9.555  1.00 20.50     0.001 C 
HETATM   34  C32 STQ U1621     -42.909 140.247   9.984  1.00 20.50     0.007 C 
HETATM   35  C33 STQ U1621     -41.945 139.496   9.166  1.00 20.50    -0.062 C 
HETATM   36  C34 STQ U1621     -41.323 138.461   9.749  1.00 20.50     0.007 C 
HETATM   37  C35 STQ U1621     -40.298 137.638   9.110  1.00 20.50     0.001 C 
HETATM   38  C36 STQ U1621     -48.570 146.418  10.320  1.00 20.50     0.016 C 
HETATM   39  C37 STQ U1621     -49.098 144.480  11.748  1.00 20.50     0.016 C 
HETATM   40  C38 STQ U1621     -44.995 147.090  12.867  1.00 20.50     0.044 C 
HETATM   41  C39 STQ U1621     -44.549 144.108   8.911  1.00 20.50     0.048 C 
HETATM   42  C40 STQ U1621     -41.668 139.958   7.771  1.00 20.50     0.048 C 
HETATM   43  O23 STQ U1621     -49.296 148.712  13.902  1.00 20.50    -0.392 OA
ATOM     44  H23 STQ U1621     -50.239 148.735  13.782  1.00  0.00     0.210 HD
ENDROOT
TORSDOF 12
