REMARK VINA RESULT:    -9.188      0.000      0.000
REMARK INTER + INTRA:          -9.363
REMARK INTER:                  -9.188
REMARK INTRA:                  -0.174
REMARK UNBOUND:                -0.174
REMARK  0 active torsions:
REMARK  status: ('A' for Active; 'I' for Inactive)
REMARK       I    between atoms: C3_3  and  O3_21 
REMARK       I    between atoms: C6_6  and  C7_7 
REMARK       I    between atoms: C8_8  and  C9_9 
REMARK       I    between atoms: C10_10  and  C11_11 
REMARK       I    between atoms: C12_12  and  C13_13 
REMARK       I    between atoms: C14_14  and  C15_15 
REMARK       I    between atoms: C23_25  and  O23_43 
REMARK       I    between atoms: C26_28  and  C27_29 
REMARK       I    between atoms: C28_30  and  C29_31 
REMARK       I    between atoms: C30_32  and  C31_33 
REMARK       I    between atoms: C32_34  and  C33_35 
REMARK       I    between atoms: C34_36  and  C35_37 
ROOT
HETATM    1  C1  STQ 2 615     -34.034 127.942   6.985  1.00 79.94    -0.018 C 
HETATM    2  C2  STQ 2 615     -33.131 127.260   5.959  1.00 79.60     0.045 C 
HETATM    3  C3  STQ 2 615     -32.014 128.121   5.386  1.00 80.06     0.123 C 
HETATM    4  C4  STQ 2 615     -31.259 128.797   6.512  1.00 79.91     0.066 C 
HETATM    5  C5  STQ 2 615     -32.218 129.633   7.317  1.00 78.96    -0.074 C 
HETATM    6  C6  STQ 2 615     -33.444 129.191   7.613  1.00 78.99    -0.048 C 
HETATM    7  C7  STQ 2 615     -34.258 129.944   8.595  1.00 78.77     0.009 C 
HETATM    8  C8  STQ 2 615     -34.921 131.043   8.230  1.00 79.10     0.007 C 
HETATM    9  C9  STQ 2 615     -35.736 131.813   9.190  1.00 80.39    -0.062 C 
HETATM   10  C10 STQ 2 615     -36.354 132.923   8.758  1.00 81.39     0.007 C 
HETATM   11  C11 STQ 2 615     -37.188 133.757   9.620  1.00 81.92     0.001 C 
HETATM   12  C12 STQ 2 615     -37.811 134.786   9.052  1.00 82.76     0.007 C 
HETATM   13  C13 STQ 2 615     -38.696 135.698   9.800  1.00 83.90    -0.062 C 
HETATM   14  C14 STQ 2 615     -39.519 136.493   9.098  1.00 84.98     0.007 C 
HETATM   15  C15 STQ 2 615     -40.455 137.416   9.730  1.00 86.34     0.001 C 
HETATM   16  C16 STQ 2 615     -34.335 126.933   8.087  1.00 79.93     0.020 C 
HETATM   17  C17 STQ 2 615     -35.335 128.340   6.298  1.00 80.89     0.020 C 
HETATM   18  C18 STQ 2 615     -31.582 130.727   8.122  1.00 77.35     0.044 C 
HETATM   19  C19 STQ 2 615     -35.860 131.364  10.615  1.00 80.43     0.048 C 
HETATM   20  C20 STQ 2 615     -38.677 135.733  11.300  1.00 83.80     0.048 C 
HETATM   21  O3  STQ 2 615     -31.110 127.290   4.649  1.00 80.93    -0.395 OA
ATOM     22  H3  STQ 2 615     -30.412 127.827   4.291  1.00  0.00     0.210 HD
HETATM   23  C21 STQ 2 615     -50.588 145.166  10.234  1.00 86.56    -0.035 C 
HETATM   24  C22 STQ 2 615     -51.587 146.013  11.007  1.00 85.76     0.045 C 
HETATM   25  C23 STQ 2 615     -51.486 147.488  10.646  1.00 84.08     0.142 C 
HETATM   26  C24 STQ 2 615     -50.049 147.953  10.654  1.00 85.20     0.007 C 
HETATM   27  C25 STQ 2 615     -49.008 147.122  10.488  1.00 86.87    -0.077 C 
HETATM   28  C26 STQ 2 615     -49.158 145.626  10.512  1.00 87.65     0.044 C 
HETATM   29  C27 STQ 2 615     -48.225 144.977   9.511  1.00 88.79    -0.016 C 
HETATM   30  C28 STQ 2 615     -47.289 144.146   9.962  1.00 89.77     0.003 C 
HETATM   31  C29 STQ 2 615     -46.349 143.454   9.060  1.00 89.92    -0.062 C 
HETATM   32  C30 STQ 2 615     -45.548 142.517   9.585  1.00 89.40     0.007 C 
HETATM   33  C31 STQ 2 615     -44.592 141.750   8.794  1.00 87.93     0.001 C 
HETATM   34  C32 STQ 2 615     -43.894 140.824   9.444  1.00 87.59     0.007 C 
HETATM   35  C33 STQ 2 615     -42.906 139.952   8.786  1.00 88.80    -0.062 C 
HETATM   36  C34 STQ 2 615     -42.203 139.088   9.536  1.00 88.99     0.007 C 
HETATM   37  C35 STQ 2 615     -41.228 138.172   8.952  1.00 88.02     0.001 C 
HETATM   38  C36 STQ 2 615     -50.888 145.229   8.740  1.00 86.59     0.016 C 
HETATM   39  C37 STQ 2 615     -50.728 143.719  10.696  1.00 84.95     0.016 C 
HETATM   40  C38 STQ 2 615     -47.641 147.706  10.294  1.00 87.30     0.044 C 
HETATM   41  C39 STQ 2 615     -46.297 143.782   7.596  1.00 89.99     0.048 C 
HETATM   42  C40 STQ 2 615     -42.704 140.023   7.302  1.00 89.61     0.048 C 
HETATM   43  O23 STQ 2 615     -52.227 148.259  11.600  1.00 82.24    -0.392 OA
ATOM     44  H23 STQ 2 615     -53.130 147.966  11.595  1.00  0.00     0.210 HD
ENDROOT
TORSDOF 12
