REMARK VINA RESULT:    -9.581      0.000      0.000
REMARK INTER + INTRA:         -10.056
REMARK INTER:                  -9.581
REMARK INTRA:                  -0.474
REMARK UNBOUND:                -0.474
REMARK  0 active torsions:
REMARK  status: ('A' for Active; 'I' for Inactive)
REMARK       I    between atoms: C3_3  and  O3_21 
REMARK       I    between atoms: C6_6  and  C7_7 
REMARK       I    between atoms: C8_8  and  C9_9 
REMARK       I    between atoms: C10_10  and  C11_11 
REMARK       I    between atoms: C12_12  and  C13_13 
REMARK       I    between atoms: C14_14  and  C15_15 
REMARK       I    between atoms: C23_25  and  O23_43 
REMARK       I    between atoms: C26_28  and  C27_29 
REMARK       I    between atoms: C28_30  and  C29_31 
REMARK       I    between atoms: C30_32  and  C31_33 
REMARK       I    between atoms: C32_34  and  C33_35 
REMARK       I    between atoms: C34_36  and  C35_37 
ROOT
HETATM    1  C1  STQ A 621     -34.108 128.222   7.044  1.00 21.58    -0.018 C 
HETATM    2  C2  STQ A 621     -33.342 127.548   5.885  1.00 21.20     0.045 C 
HETATM    3  C3  STQ A 621     -31.971 128.079   5.455  1.00 20.61     0.123 C 
HETATM    4  C4  STQ A 621     -31.358 129.145   6.376  1.00 19.82     0.066 C 
HETATM    5  C5  STQ A 621     -32.178 129.856   7.408  1.00 19.81    -0.074 C 
HETATM    6  C6  STQ A 621     -33.454 129.466   7.762  1.00 19.95    -0.048 C 
HETATM    7  C7  STQ A 621     -34.283 130.139   8.804  1.00 17.10     0.009 C 
HETATM    8  C8  STQ A 621     -34.989 131.274   8.603  1.00 17.58     0.007 C 
HETATM    9  C9  STQ A 621     -35.832 132.043   9.525  1.00 19.11    -0.062 C 
HETATM   10  C10 STQ A 621     -36.534 133.080   9.014  1.00 18.37     0.007 C 
HETATM   11  C11 STQ A 621     -37.483 133.890   9.725  1.00 18.85     0.001 C 
HETATM   12  C12 STQ A 621     -38.227 134.847   9.138  1.00 19.83     0.007 C 
HETATM   13  C13 STQ A 621     -39.295 135.640   9.782  1.00 21.26    -0.062 C 
HETATM   14  C14 STQ A 621     -39.973 136.527   9.019  1.00 20.79     0.007 C 
HETATM   15  C15 STQ A 621     -41.080 137.366   9.408  1.00 20.26     0.001 C 
HETATM   16  C16 STQ A 621     -34.287 127.050   8.036  1.00 19.38     0.020 C 
HETATM   17  C17 STQ A 621     -35.503 128.596   6.492  1.00 19.65     0.020 C 
HETATM   18  C18 STQ A 621     -31.361 130.959   7.974  1.00 20.06     0.044 C 
HETATM   19  C19 STQ A 621     -35.926 131.580  10.951  1.00 17.70     0.048 C 
HETATM   20  C20 STQ A 621     -39.586 135.373  11.231  1.00 18.78     0.048 C 
HETATM   21  O3  STQ A 621     -31.062 127.004   5.278  1.00 18.88    -0.395 OA
ATOM     22  H3  STQ A 621     -31.441 126.346   4.709  1.00  0.00     0.210 HD
HETATM   23  C21 STQ A 621     -50.899 145.713   9.932  1.00 22.85    -0.035 C 
HETATM   24  C22 STQ A 621     -51.990 146.498  10.682  1.00 23.17     0.045 C 
HETATM   25  C23 STQ A 621     -51.661 147.977  10.890  1.00 24.17     0.142 C 
HETATM   26  C24 STQ A 621     -50.212 148.193  11.362  1.00 23.54     0.007 C 
HETATM   27  C25 STQ A 621     -49.264 147.229  11.216  1.00 24.17    -0.077 C 
HETATM   28  C26 STQ A 621     -49.498 145.847  10.598  1.00 23.23     0.044 C 
HETATM   29  C27 STQ A 621     -48.350 145.422   9.682  1.00 24.75    -0.016 C 
HETATM   30  C28 STQ A 621     -47.657 144.253   9.756  1.00 25.59     0.003 C 
HETATM   31  C29 STQ A 621     -46.690 143.732   8.763  1.00 26.46    -0.062 C 
HETATM   32  C30 STQ A 621     -46.060 142.565   9.027  1.00 24.31     0.007 C 
HETATM   33  C31 STQ A 621     -45.084 141.892   8.200  1.00 21.85     0.001 C 
HETATM   34  C32 STQ A 621     -44.400 140.835   8.699  1.00 20.83     0.007 C 
HETATM   35  C33 STQ A 621     -43.324 140.023   8.105  1.00 21.05    -0.062 C 
HETATM   36  C34 STQ A 621     -42.745 139.084   8.883  1.00 19.63     0.007 C 
HETATM   37  C35 STQ A 621     -41.642 138.223   8.536  1.00 20.78     0.001 C 
HETATM   38  C36 STQ A 621     -50.865 146.219   8.454  1.00 21.00     0.016 C 
HETATM   39  C37 STQ A 621     -51.335 144.242   9.927  1.00 22.25     0.016 C 
HETATM   40  C38 STQ A 621     -47.922 147.599  11.734  1.00 21.23     0.044 C 
HETATM   41  C39 STQ A 621     -46.416 144.577   7.550  1.00 25.84     0.048 C 
HETATM   42  C40 STQ A 621     -42.891 140.344   6.701  1.00 18.97     0.048 C 
HETATM   43  O23 STQ A 621     -52.593 148.557  11.792  1.00 25.06    -0.392 OA
ATOM     44  H23 STQ A 621     -53.487 148.423  11.501  1.00  0.00     0.210 HD
ENDROOT
TORSDOF 12
