REMARK VINA RESULT:    -7.146      1.521     16.456
REMARK INTER + INTRA:         -10.368
REMARK INTER:                  -9.226
REMARK INTRA:                  -1.142
REMARK UNBOUND:                -3.222
REMARK  0 active torsions:
REMARK  status: ('A' for Active; 'I' for Inactive)
REMARK       I    between atoms: C3_3  and  O3_21 
REMARK       I    between atoms: C6_6  and  C7_7 
REMARK       I    between atoms: C8_8  and  C9_9 
REMARK       I    between atoms: C10_10  and  C11_11 
REMARK       I    between atoms: C12_12  and  C13_13 
REMARK       I    between atoms: C14_14  and  C15_15 
REMARK       I    between atoms: C23_25  and  O23_43 
REMARK       I    between atoms: C26_28  and  C27_29 
REMARK       I    between atoms: C28_30  and  C29_31 
REMARK       I    between atoms: C30_32  and  C31_33 
REMARK       I    between atoms: C32_34  and  C33_35 
REMARK       I    between atoms: C34_36  and  C35_37 
ROOT
HETATM    1  C1  STQ X1620     -50.791 144.338  11.102  1.00 33.88    -0.022 C 
HETATM    2  C2  STQ X1620     -50.748 144.137  12.610  1.00 33.88     0.045 C 
HETATM    3  C3  STQ X1620     -49.599 144.838  13.305  1.00 33.88     0.119 C 
HETATM    4  C4  STQ X1620     -49.687 146.304  12.942  1.00 33.88     0.040 C 
HETATM    5  C5  STQ X1620     -49.546 146.461  11.450  1.00 33.88     0.013 C 
HETATM    6  C6  STQ X1620     -49.814 145.422  10.650  1.00 33.88    -0.068 C 
HETATM    7  C7  STQ X1620     -48.957 145.129   9.494  1.00 33.88     0.004 C 
HETATM    8  C8  STQ X1620     -48.036 144.237   9.884  1.00 33.88     0.007 C 
HETATM    9  C9  STQ X1620     -46.948 143.744   9.002  1.00 33.88    -0.062 C 
HETATM   10  C10 STQ X1620     -46.093 142.846   9.548  1.00 33.88     0.007 C 
HETATM   11  C11 STQ X1620     -44.990 142.228   8.822  1.00 33.88     0.001 C 
HETATM   12  C12 STQ X1620     -44.228 141.316   9.407  1.00 33.88     0.007 C 
HETATM   13  C13 STQ X1620     -43.158 140.632   8.659  1.00 33.88    -0.062 C 
HETATM   14  C14 STQ X1620     -42.556 139.617   9.300  1.00 33.88     0.007 C 
HETATM   15  C15 STQ X1620     -41.520 138.757   8.728  1.00 33.88     0.001 C 
HETATM   16  C16 STQ X1620     -52.264 144.573  10.775  1.00 33.88     0.019 C 
HETATM   17  C17 STQ X1620     -50.350 143.018  10.474  1.00 33.88     0.019 C 
HETATM   18  C18 STQ X1620     -48.241 147.214  11.413  1.00 33.88     0.015 C 
HETATM   19  C19 STQ X1620     -46.838 144.224   7.570  1.00 33.88     0.048 C 
HETATM   20  C20 STQ X1620     -42.869 141.027   7.235  1.00 33.88     0.048 C 
HETATM   21  O3  STQ X1620     -49.791 144.661  14.712  1.00 33.88    -0.396 OA
ATOM     22  H3  STQ X1620     -49.070 145.101  15.148  1.00  0.00     0.210 HD
HETATM   23  C21 STQ X1620     -34.195 128.648   6.957  1.00 33.88    -0.035 C 
HETATM   24  C22 STQ X1620     -33.502 127.961   5.794  1.00 33.88     0.045 C 
HETATM   25  C23 STQ X1620     -32.017 127.757   6.047  1.00 33.88     0.142 C 
HETATM   26  C24 STQ X1620     -31.405 128.869   6.873  1.00 33.88     0.007 C 
HETATM   27  C25 STQ X1620     -32.091 129.912   7.384  1.00 33.88    -0.077 C 
HETATM   28  C26 STQ X1620     -33.584 130.029   7.210  1.00 33.88     0.044 C 
HETATM   29  C27 STQ X1620     -34.370 130.626   8.367  1.00 33.88    -0.016 C 
HETATM   30  C28 STQ X1620     -35.136 131.695   8.142  1.00 33.88     0.003 C 
HETATM   31  C29 STQ X1620     -36.013 132.313   9.163  1.00 33.88    -0.062 C 
HETATM   32  C30 STQ X1620     -36.790 133.323   8.716  1.00 33.88     0.007 C 
HETATM   33  C31 STQ X1620     -37.766 134.068   9.516  1.00 33.88     0.001 C 
HETATM   34  C32 STQ X1620     -38.458 135.045   8.919  1.00 33.88     0.007 C 
HETATM   35  C33 STQ X1620     -39.471 135.854   9.633  1.00 33.88    -0.062 C 
HETATM   36  C34 STQ X1620     -40.040 136.865   8.945  1.00 33.88     0.007 C 
HETATM   37  C35 STQ X1620     -41.060 137.764   9.486  1.00 33.88     0.001 C 
HETATM   38  C36 STQ X1620     -34.106 127.753   8.195  1.00 33.88     0.016 C 
HETATM   39  C37 STQ X1620     -35.663 128.806   6.579  1.00 33.88     0.016 C 
HETATM   40  C38 STQ X1620     -31.301 130.992   8.064  1.00 33.88     0.044 C 
HETATM   41  C39 STQ X1620     -36.051 131.778  10.575  1.00 33.88     0.048 C 
HETATM   42  C40 STQ X1620     -39.840 135.487  11.047  1.00 33.88     0.048 C 
HETATM   43  O23 STQ X1620     -31.349 127.692   4.781  1.00 33.88    -0.392 OA
ATOM     44  H23 STQ X1620     -30.421 127.564   4.939  1.00  0.00     0.210 HD
ENDROOT
TORSDOF 12
