REMARK VINA RESULT:    -7.279      0.000      0.000
REMARK INTER + INTRA:         -10.346
REMARK INTER:                  -7.279
REMARK INTRA:                  -3.067
REMARK UNBOUND:                -3.067
REMARK  0 active torsions:
REMARK  status: ('A' for Active; 'I' for Inactive)
REMARK       I    between atoms: C3_3  and  O3_21 
REMARK       I    between atoms: C6_6  and  C7_7 
REMARK       I    between atoms: C8_8  and  C9_9 
REMARK       I    between atoms: C10_10  and  C11_11 
REMARK       I    between atoms: C12_12  and  C13_13 
REMARK       I    between atoms: C14_14  and  C15_15 
REMARK       I    between atoms: C23_25  and  O23_43 
REMARK       I    between atoms: C26_28  and  C27_29 
REMARK       I    between atoms: C28_30  and  C29_31 
REMARK       I    between atoms: C30_32  and  C31_33 
REMARK       I    between atoms: C32_34  and  C33_35 
REMARK       I    between atoms: C34_36  and  C35_37 
ROOT
HETATM    1  C1  STQ E4620     -34.526 126.899   6.075  1.00 19.12    -0.018 C 
HETATM    2  C2  STQ E4620     -33.925 126.096   4.902  1.00 18.29     0.045 C 
HETATM    3  C3  STQ E4620     -32.895 126.802   4.019  1.00 18.54     0.123 C 
HETATM    4  C4  STQ E4620     -31.942 127.702   4.805  1.00 18.55     0.066 C 
HETATM    5  C5  STQ E4620     -32.500 128.484   5.949  1.00 18.97    -0.074 C 
HETATM    6  C6  STQ E4620     -33.697 128.134   6.558  1.00 18.68    -0.048 C 
HETATM    7  C7  STQ E4620     -34.245 128.884   7.697  1.00 18.46     0.009 C 
HETATM    8  C8  STQ E4620     -34.880 130.062   7.681  1.00 18.89     0.007 C 
HETATM    9  C9  STQ E4620     -35.306 130.865   8.829  1.00 19.10    -0.062 C 
HETATM   10  C10 STQ E4620     -36.030 131.977   8.578  1.00 18.99     0.007 C 
HETATM   11  C11 STQ E4620     -36.567 132.896   9.536  1.00 18.78     0.001 C 
HETATM   12  C12 STQ E4620     -37.421 133.831   9.115  1.00 19.28     0.007 C 
HETATM   13  C13 STQ E4620     -38.140 134.826   9.910  1.00 21.25    -0.062 C 
HETATM   14  C14 STQ E4620     -39.042 135.598   9.263  1.00 20.64     0.007 C 
HETATM   15  C15 STQ E4620     -39.924 136.573   9.833  1.00 21.49     0.001 C 
HETATM   16  C16 STQ E4620     -34.664 125.863   7.202  1.00 19.29     0.020 C 
HETATM   17  C17 STQ E4620     -35.947 127.337   5.675  1.00 16.00     0.020 C 
HETATM   18  C18 STQ E4620     -31.533 129.584   6.238  1.00 17.87     0.044 C 
HETATM   19  C19 STQ E4620     -34.958 130.368  10.207  1.00 17.60     0.048 C 
HETATM   20  C20 STQ E4620     -37.882 134.868  11.391  1.00 16.75     0.048 C 
HETATM   21  O3  STQ E4620     -32.156 125.851   3.264  1.00 19.42    -0.395 OA
ATOM     22  H3  STQ E4620     -31.516 126.289   2.715  1.00  0.00     0.210 HD
HETATM   23  C21 STQ E4620     -49.907 144.306  12.350  1.00 27.80    -0.035 C 
HETATM   24  C22 STQ E4620     -50.758 145.164  13.318  1.00 28.12     0.045 C 
HETATM   25  C23 STQ E4620     -50.573 146.678  13.166  1.00 29.31     0.142 C 
HETATM   26  C24 STQ E4620     -49.115 147.077  12.875  1.00 30.79     0.007 C 
HETATM   27  C25 STQ E4620     -48.157 146.198  12.482  1.00 30.18    -0.077 C 
HETATM   28  C26 STQ E4620     -48.390 144.701  12.291  1.00 27.90     0.044 C 
HETATM   29  C27 STQ E4620     -47.592 144.187  11.096  1.00 27.26    -0.016 C 
HETATM   30  C28 STQ E4620     -46.653 143.198  11.155  1.00 26.15     0.003 C 
HETATM   31  C29 STQ E4620     -46.004 142.498  10.023  1.00 25.99    -0.062 C 
HETATM   32  C30 STQ E4620     -45.092 141.543  10.299  1.00 24.86     0.007 C 
HETATM   33  C31 STQ E4620     -44.379 140.731   9.349  1.00 24.61     0.001 C 
HETATM   34  C32 STQ E4620     -43.448 139.844   9.757  1.00 23.19     0.007 C 
HETATM   35  C33 STQ E4620     -42.600 138.951   8.957  1.00 22.76    -0.062 C 
HETATM   36  C34 STQ E4620     -41.709 138.179   9.617  1.00 21.16     0.007 C 
HETATM   37  C35 STQ E4620     -40.780 137.241   9.059  1.00 21.72     0.001 C 
HETATM   38  C36 STQ E4620     -50.551 144.386  10.936  1.00 25.17     0.016 C 
HETATM   39  C37 STQ E4620     -50.036 142.859  12.826  1.00 27.28     0.016 C 
HETATM   40  C38 STQ E4620     -46.808 146.807  12.267  1.00 30.64     0.044 C 
HETATM   41  C39 STQ E4620     -46.387 142.897   8.625  1.00 26.11     0.048 C 
HETATM   42  C40 STQ E4620     -42.761 138.978   7.459  1.00 21.07     0.048 C 
HETATM   43  O23 STQ E4620     -51.060 147.352  14.318  1.00 27.58    -0.392 OA
ATOM     44  H23 STQ E4620     -50.945 148.290  14.223  1.00  0.00     0.210 HD
ENDROOT
TORSDOF 12
