REMARK VINA RESULT:    -7.619      1.079     17.281
REMARK INTER + INTRA:          -7.995
REMARK INTER:                  -7.520
REMARK INTRA:                  -0.475
REMARK UNBOUND:                -0.375
REMARK  0 active torsions:
REMARK  status: ('A' for Active; 'I' for Inactive)
REMARK       I    between atoms: C3_3  and  O3_21 
REMARK       I    between atoms: C6_6  and  C7_7 
REMARK       I    between atoms: C8_8  and  C9_9 
REMARK       I    between atoms: C10_10  and  C11_11 
REMARK       I    between atoms: C12_12  and  C13_13 
REMARK       I    between atoms: C14_14  and  C15_15 
REMARK       I    between atoms: C23_25  and  O23_43 
REMARK       I    between atoms: C26_28  and  C27_29 
REMARK       I    between atoms: C28_30  and  C29_31 
REMARK       I    between atoms: C30_32  and  C31_33 
REMARK       I    between atoms: C32_34  and  C33_35 
REMARK       I    between atoms: C34_36  and  C35_37 
ROOT
HETATM    1  C1  STQ H7621     -50.411 146.279  11.740  1.00 22.61    -0.018 C 
HETATM    2  C2  STQ H7621     -51.287 146.719  12.927  1.00 23.33     0.045 C 
HETATM    3  C3  STQ H7621     -50.799 147.790  13.908  1.00 24.77     0.123 C 
HETATM    4  C4  STQ H7621     -49.477 148.487  13.543  1.00 22.10     0.066 C 
HETATM    5  C5  STQ H7621     -48.597 147.914  12.485  1.00 21.89    -0.074 C 
HETATM    6  C6  STQ H7621     -48.982 146.905  11.631  1.00 21.83    -0.048 C 
HETATM    7  C7  STQ H7621     -48.117 146.338  10.571  1.00 21.27     0.009 C 
HETATM    8  C8  STQ H7621     -47.148 145.417  10.782  1.00 20.16     0.007 C 
HETATM    9  C9  STQ H7621     -46.254 144.815   9.803  1.00 19.98    -0.062 C 
HETATM   10  C10 STQ H7621     -45.453 143.810  10.224  1.00 19.41     0.007 C 
HETATM   11  C11 STQ H7621     -44.570 143.020   9.401  1.00 19.37     0.001 C 
HETATM   12  C12 STQ H7621     -43.862 141.973   9.875  1.00 19.06     0.007 C 
HETATM   13  C13 STQ H7621     -43.009 141.060   9.097  1.00 20.91    -0.062 C 
HETATM   14  C14 STQ H7621     -42.408 140.042   9.753  1.00 20.64     0.007 C 
HETATM   15  C15 STQ H7621     -41.588 139.011   9.181  1.00 20.44     0.001 C 
HETATM   16  C16 STQ H7621     -51.258 146.653  10.516  1.00 21.21     0.020 C 
HETATM   17  C17 STQ H7621     -50.330 144.738  11.779  1.00 21.56     0.020 C 
HETATM   18  C18 STQ H7621     -47.310 148.643  12.518  1.00 21.82     0.044 C 
HETATM   19  C19 STQ H7621     -46.345 145.292   8.382  1.00 18.20     0.048 C 
HETATM   20  C20 STQ H7621     -42.891 141.294   7.610  1.00 20.18     0.048 C 
HETATM   21  O3  STQ H7621     -51.821 148.756  14.133  1.00 25.40    -0.395 OA
ATOM     22  H3  STQ H7621     -51.518 149.420  14.742  1.00  0.00     0.210 HD
HETATM   23  C21 STQ H7621     -34.240 128.607   7.156  1.00 19.11    -0.035 C 
HETATM   24  C22 STQ H7621     -33.379 127.649   6.312  1.00 18.10     0.045 C 
HETATM   25  C23 STQ H7621     -31.877 127.787   6.566  1.00 19.16     0.142 C 
HETATM   26  C24 STQ H7621     -31.412 129.251   6.649  1.00 17.14     0.007 C 
HETATM   27  C25 STQ H7621     -32.279 130.267   6.873  1.00 18.43    -0.077 C 
HETATM   28  C26 STQ H7621     -33.792 130.103   7.061  1.00 19.04     0.044 C 
HETATM   29  C27 STQ H7621     -34.327 130.959   8.199  1.00 19.23    -0.016 C 
HETATM   30  C28 STQ H7621     -35.362 131.810   8.071  1.00 22.69     0.003 C 
HETATM   31  C29 STQ H7621     -36.092 132.502   9.141  1.00 24.75    -0.062 C 
HETATM   32  C30 STQ H7621     -37.076 133.361   8.791  1.00 23.92     0.007 C 
HETATM   33  C31 STQ H7621     -37.866 134.167   9.683  1.00 24.21     0.001 C 
HETATM   34  C32 STQ H7621     -38.706 135.127   9.230  1.00 22.58     0.007 C 
HETATM   35  C33 STQ H7621     -39.514 136.071  10.024  1.00 22.21    -0.062 C 
HETATM   36  C34 STQ H7621     -40.205 137.022   9.359  1.00 21.24     0.007 C 
HETATM   37  C35 STQ H7621     -41.013 138.072   9.934  1.00 22.03     0.001 C 
HETATM   38  C36 STQ H7621     -34.195 128.112   8.632  1.00 19.21     0.016 C 
HETATM   39  C37 STQ H7621     -35.686 128.463   6.663  1.00 17.14     0.016 C 
HETATM   40  C38 STQ H7621     -31.645 131.614   6.904  1.00 13.06     0.044 C 
HETATM   41  C39 STQ H7621     -35.640 132.265  10.554  1.00 25.35     0.048 C 
HETATM   42  C40 STQ H7621     -39.458 135.964  11.525  1.00 19.46     0.048 C 
HETATM   43  O23 STQ H7621     -31.147 127.069   5.578  1.00 20.37    -0.392 OA
ATOM     44  H23 STQ H7621     -30.214 127.155   5.736  1.00  0.00     0.210 HD
ENDROOT
TORSDOF 12
