REMARK VINA RESULT:    -7.614      1.988     16.195
REMARK INTER + INTRA:          -8.622
REMARK INTER:                  -6.504
REMARK INTRA:                  -2.118
REMARK UNBOUND:                -1.008
REMARK  0 active torsions:
REMARK  status: ('A' for Active; 'I' for Inactive)
REMARK       I    between atoms: C3_3  and  O3_21 
REMARK       I    between atoms: C6_6  and  C7_7 
REMARK       I    between atoms: C8_8  and  C9_9 
REMARK       I    between atoms: C10_10  and  C11_11 
REMARK       I    between atoms: C12_12  and  C13_13 
REMARK       I    between atoms: C14_14  and  C15_15 
REMARK       I    between atoms: C23_25  and  O23_43 
REMARK       I    between atoms: C26_28  and  C27_29 
REMARK       I    between atoms: C28_30  and  C29_31 
REMARK       I    between atoms: C30_32  and  C31_33 
REMARK       I    between atoms: C32_34  and  C33_35 
REMARK       I    between atoms: C34_36  and  C35_37 
ROOT
HETATM    1  C1  STQ 5 620     -34.365 127.288   6.582  1.00 42.32    -0.018 C 
HETATM    2  C2  STQ 5 620     -34.573 127.929   5.213  1.00 42.32     0.045 C 
HETATM    3  C3  STQ 5 620     -33.498 128.932   4.807  1.00 42.32     0.123 C 
HETATM    4  C4  STQ 5 620     -32.145 128.501   5.343  1.00 42.32     0.066 C 
HETATM    5  C5  STQ 5 620     -32.221 128.455   6.844  1.00 42.32    -0.074 C 
HETATM    6  C6  STQ 5 620     -33.354 128.042   7.413  1.00 42.32    -0.048 C 
HETATM    7  C7  STQ 5 620     -33.829 128.638   8.665  1.00 42.32     0.009 C 
HETATM    8  C8  STQ 5 620     -34.382 129.815   8.329  1.00 42.32     0.007 C 
HETATM    9  C9  STQ 5 620     -35.035 130.725   9.304  1.00 42.32    -0.062 C 
HETATM   10  C10 STQ 5 620     -35.646 131.822   8.810  1.00 42.32     0.007 C 
HETATM   11  C11 STQ 5 620     -36.393 132.783   9.623  1.00 42.32     0.001 C 
HETATM   12  C12 STQ 5 620     -37.071 133.752   9.024  1.00 42.32     0.007 C 
HETATM   13  C13 STQ 5 620     -37.910 134.693   9.787  1.00 42.32    -0.062 C 
HETATM   14  C14 STQ 5 620     -38.691 135.497   9.054  1.00 42.32     0.007 C 
HETATM   15  C15 STQ 5 620     -39.649 136.472   9.561  1.00 42.32     0.001 C 
HETATM   16  C16 STQ 5 620     -33.908 125.850   6.377  1.00 42.32     0.020 C 
HETATM   17  C17 STQ 5 620     -35.681 127.301   7.346  1.00 42.32     0.020 C 
HETATM   18  C18 STQ 5 620     -31.305 129.476   7.452  1.00 42.32     0.044 C 
HETATM   19  C19 STQ 5 620     -35.021 130.409  10.774  1.00 42.32     0.048 C 
HETATM   20  C20 STQ 5 620     -37.906 134.677  11.288  1.00 42.32     0.048 C 
HETATM   21  O3  STQ 5 620     -33.425 128.999   3.380  1.00 42.32    -0.395 OA
ATOM     22  H3  STQ 5 620     -32.755 129.624   3.127  1.00  0.00     0.210 HD
HETATM   23  C21 STQ 5 620     -49.208 144.478   8.710  1.00 42.32    -0.035 C 
HETATM   24  C22 STQ 5 620     -50.206 145.170   9.606  1.00 42.32     0.045 C 
HETATM   25  C23 STQ 5 620     -50.157 146.667   9.410  1.00 42.32     0.142 C 
HETATM   26  C24 STQ 5 620     -48.734 147.173   9.415  1.00 42.32     0.007 C 
HETATM   27  C25 STQ 5 620     -47.666 146.373   9.277  1.00 42.32    -0.077 C 
HETATM   28  C26 STQ 5 620     -47.792 144.890   9.093  1.00 42.32     0.044 C 
HETATM   29  C27 STQ 5 620     -46.890 144.272   8.048  1.00 42.32    -0.016 C 
HETATM   30  C28 STQ 5 620     -46.018 143.375   8.472  1.00 42.32     0.003 C 
HETATM   31  C29 STQ 5 620     -45.134 142.617   7.583  1.00 42.32    -0.062 C 
HETATM   32  C30 STQ 5 620     -44.445 141.658   8.210  1.00 42.32     0.007 C 
HETATM   33  C31 STQ 5 620     -43.523 140.719   7.595  1.00 42.32     0.001 C 
HETATM   34  C32 STQ 5 620     -42.946 139.859   8.425  1.00 42.32     0.007 C 
HETATM   35  C33 STQ 5 620     -41.975 138.851   7.988  1.00 42.32    -0.062 C 
HETATM   36  C34 STQ 5 620     -41.338 138.138   8.941  1.00 42.32     0.007 C 
HETATM   37  C35 STQ 5 620     -40.332 137.127   8.632  1.00 42.32     0.001 C 
HETATM   38  C36 STQ 5 620     -49.517 144.810   7.258  1.00 42.32     0.016 C 
HETATM   39  C37 STQ 5 620     -49.357 142.977   8.898  1.00 42.32     0.016 C 
HETATM   40  C38 STQ 5 620     -46.305 146.977   9.389  1.00 42.32     0.044 C 
HETATM   41  C39 STQ 5 620     -45.114 142.870   6.104  1.00 42.32     0.048 C 
HETATM   42  C40 STQ 5 620     -41.758 138.695   6.513  1.00 42.32     0.048 C 
HETATM   43  O23 STQ 5 620     -50.880 147.249  10.495  1.00 42.32    -0.392 OA
ATOM     44  H23 STQ 5 620     -50.850 148.190  10.371  1.00  0.00     0.210 HD
ENDROOT
TORSDOF 12
