REMARK VINA RESULT:   -12.313      0.000      0.000
REMARK INTER + INTRA:         -12.333
REMARK INTER:                 -12.313
REMARK INTRA:                  -0.019
REMARK UNBOUND:                -0.019
REMARK  0 active torsions:
REMARK  status: ('A' for Active; 'I' for Inactive)
REMARK       I    between atoms: C3_3  and  O3_21 
REMARK       I    between atoms: C6_6  and  C7_7 
REMARK       I    between atoms: C8_8  and  C9_9 
REMARK       I    between atoms: C10_10  and  C11_11 
REMARK       I    between atoms: C12_12  and  C13_13 
REMARK       I    between atoms: C14_14  and  C15_15 
REMARK       I    between atoms: C23_25  and  O23_43 
REMARK       I    between atoms: C26_28  and  C27_29 
REMARK       I    between atoms: C28_30  and  C29_31 
REMARK       I    between atoms: C30_32  and  C31_33 
REMARK       I    between atoms: C32_34  and  C33_35 
REMARK       I    between atoms: C34_36  and  C35_37 
ROOT
HETATM    1  C1  STQ U1621     -34.174 128.114   7.061  1.00 20.50    -0.018 C 
HETATM    2  C2  STQ U1621     -33.567 127.933   5.677  1.00 20.50     0.045 C 
HETATM    3  C3  STQ U1621     -32.324 128.739   5.362  1.00 20.50     0.123 C 
HETATM    4  C4  STQ U1621     -31.608 129.098   6.642  1.00 20.50     0.066 C 
HETATM    5  C5  STQ U1621     -32.580 129.894   7.447  1.00 20.50    -0.074 C 
HETATM    6  C6  STQ U1621     -33.724 129.339   7.803  1.00 20.50    -0.048 C 
HETATM    7  C7  STQ U1621     -34.670 129.965   8.736  1.00 20.50     0.009 C 
HETATM    8  C8  STQ U1621     -34.792 131.290   8.737  1.00 20.50     0.007 C 
HETATM    9  C9  STQ U1621     -35.905 131.892   9.489  1.00 20.50    -0.062 C 
HETATM   10  C10 STQ U1621     -36.329 133.103   9.109  1.00 20.50     0.007 C 
HETATM   11  C11 STQ U1621     -37.514 133.753   9.659  1.00 20.50     0.001 C 
HETATM   12  C12 STQ U1621     -37.986 134.847   9.075  1.00 20.50     0.007 C 
HETATM   13  C13 STQ U1621     -39.224 135.496   9.544  1.00 20.50    -0.062 C 
HETATM   14  C14 STQ U1621     -39.723 136.500   8.810  1.00 20.50     0.007 C 
HETATM   15  C15 STQ U1621     -40.952 137.217   9.135  1.00 20.50     0.001 C 
HETATM   16  C16 STQ U1621     -33.768 126.952   7.948  1.00 20.50     0.020 C 
HETATM   17  C17 STQ U1621     -35.676 128.097   6.911  1.00 20.50     0.020 C 
HETATM   18  C18 STQ U1621     -31.790 130.729   8.391  1.00 20.50     0.044 C 
HETATM   19  C19 STQ U1621     -36.581 131.106  10.568  1.00 20.50     0.048 C 
HETATM   20  C20 STQ U1621     -39.877 134.991  10.792  1.00 20.50     0.048 C 
HETATM   21  O3  STQ U1621     -31.495 127.914   4.557  1.00 20.50    -0.395 OA
ATOM     22  H3  STQ U1621     -30.715 128.419   4.359  1.00  0.00     0.210 HD
HETATM   23  C21 STQ U1621     -50.575 145.695   8.809  1.00 20.50    -0.035 C 
HETATM   24  C22 STQ U1621     -51.672 146.466   9.506  1.00 20.50     0.045 C 
HETATM   25  C23 STQ U1621     -51.259 147.880   9.821  1.00 20.50     0.142 C 
HETATM   26  C24 STQ U1621     -49.885 147.924  10.430  1.00 20.50     0.007 C 
HETATM   27  C25 STQ U1621     -49.013 146.918  10.340  1.00 20.50    -0.077 C 
HETATM   28  C26 STQ U1621     -49.315 145.626   9.656  1.00 20.50     0.044 C 
HETATM   29  C27 STQ U1621     -48.140 145.201   8.814  1.00 20.50    -0.016 C 
HETATM   30  C28 STQ U1621     -47.572 144.029   9.067  1.00 20.50     0.003 C 
HETATM   31  C29 STQ U1621     -46.428 143.530   8.294  1.00 20.50    -0.062 C 
HETATM   32  C30 STQ U1621     -45.957 142.320   8.627  1.00 20.50     0.007 C 
HETATM   33  C31 STQ U1621     -44.805 141.682   8.003  1.00 20.50     0.001 C 
HETATM   34  C32 STQ U1621     -44.324 140.561   8.524  1.00 20.50     0.007 C 
HETATM   35  C33 STQ U1621     -43.112 139.922   7.989  1.00 20.50    -0.062 C 
HETATM   36  C34 STQ U1621     -42.603 138.895   8.685  1.00 20.50     0.007 C 
HETATM   37  C35 STQ U1621     -41.378 138.178   8.336  1.00 20.50     0.001 C 
HETATM   38  C36 STQ U1621     -50.306 146.333   7.462  1.00 20.50     0.016 C 
HETATM   39  C37 STQ U1621     -51.067 144.282   8.598  1.00 20.50     0.016 C 
HETATM   40  C38 STQ U1621     -47.666 147.072  10.956  1.00 20.50     0.044 C 
HETATM   41  C39 STQ U1621     -45.884 144.369   7.180  1.00 20.50     0.048 C 
HETATM   42  C40 STQ U1621     -42.485 140.485   6.752  1.00 20.50     0.048 C 
HETATM   43  O23 STQ U1621     -52.197 148.355  10.772  1.00 20.50    -0.392 OA
ATOM     44  H23 STQ U1621     -53.065 148.327  10.387  1.00  0.00     0.210 HD
ENDROOT
TORSDOF 12
