REMARK VINA RESULT:    -7.789      1.793      2.314
REMARK INTER + INTRA:         -11.631
REMARK INTER:                 -11.340
REMARK INTRA:                  -0.292
REMARK UNBOUND:                -3.843
REMARK  0 active torsions:
REMARK  status: ('A' for Active; 'I' for Inactive)
REMARK       I    between atoms: C3_3  and  O3_21 
REMARK       I    between atoms: C6_6  and  C7_7 
REMARK       I    between atoms: C8_8  and  C9_9 
REMARK       I    between atoms: C10_10  and  C11_11 
REMARK       I    between atoms: C12_12  and  C13_13 
REMARK       I    between atoms: C14_14  and  C15_15 
REMARK       I    between atoms: C23_25  and  O23_43 
REMARK       I    between atoms: C26_28  and  C27_29 
REMARK       I    between atoms: C28_30  and  C29_31 
REMARK       I    between atoms: C30_32  and  C31_33 
REMARK       I    between atoms: C32_34  and  C33_35 
REMARK       I    between atoms: C34_36  and  C35_37 
ROOT
HETATM    1  C1  STQ 31620     -49.991 145.023  11.758  1.00 70.34    -0.018 C 
HETATM    2  C2  STQ 31620     -50.472 145.436  13.135  1.00 70.34     0.045 C 
HETATM    3  C3  STQ 31620     -50.531 146.928  13.411  1.00 70.34     0.123 C 
HETATM    4  C4  STQ 31620     -49.301 147.668  12.917  1.00 70.34     0.066 C 
HETATM    5  C5  STQ 31620     -48.588 147.084  11.733  1.00 70.34    -0.074 C 
HETATM    6  C6  STQ 31620     -48.838 145.862  11.254  1.00 70.34    -0.048 C 
HETATM    7  C7  STQ 31620     -48.009 145.292  10.166  1.00 70.34     0.009 C 
HETATM    8  C8  STQ 31620     -46.961 144.508  10.397  1.00 70.34     0.007 C 
HETATM    9  C9  STQ 31620     -46.168 143.934   9.311  1.00 70.34    -0.062 C 
HETATM   10  C10 STQ 31620     -45.131 143.193   9.685  1.00 70.34     0.007 C 
HETATM   11  C11 STQ 31620     -44.227 142.507   8.786  1.00 70.34     0.001 C 
HETATM   12  C12 STQ 31620     -43.573 141.530   9.391  1.00 70.34     0.007 C 
HETATM   13  C13 STQ 31620     -42.607 140.653   8.729  1.00 70.34    -0.062 C 
HETATM   14  C14 STQ 31620     -42.075 139.690   9.472  1.00 70.34     0.007 C 
HETATM   15  C15 STQ 31620     -41.120 138.742   8.934  1.00 70.34     0.001 C 
HETATM   16  C16 STQ 31620     -51.170 145.066  10.796  1.00 70.34     0.020 C 
HETATM   17  C17 STQ 31620     -49.499 143.588  11.886  1.00 70.34     0.020 C 
HETATM   18  C18 STQ 31620     -47.358 147.854  11.349  1.00 70.34     0.044 C 
HETATM   19  C19 STQ 31620     -46.537 144.167   7.883  1.00 70.34     0.048 C 
HETATM   20  C20 STQ 31620     -42.242 140.830   7.288  1.00 70.34     0.048 C 
HETATM   21  O3  STQ 31620     -51.712 147.515  12.861  1.00 70.34    -0.395 OA
ATOM     22  H3  STQ 31620     -51.750 148.449  13.034  1.00  0.00     0.210 HD
HETATM   23  C21 STQ 31620     -34.195 128.464   7.052  1.00 70.34    -0.035 C 
HETATM   24  C22 STQ 31620     -33.347 127.886   5.930  1.00 70.34     0.045 C 
HETATM   25  C23 STQ 31620     -31.839 128.054   6.096  1.00 70.34     0.142 C 
HETATM   26  C24 STQ 31620     -31.476 129.382   6.708  1.00 70.34     0.007 C 
HETATM   27  C25 STQ 31620     -32.299 129.944   7.594  1.00 70.34    -0.077 C 
HETATM   28  C26 STQ 31620     -33.775 129.900   7.339  1.00 70.34     0.044 C 
HETATM   29  C27 STQ 31620     -34.548 130.442   8.512  1.00 70.34    -0.016 C 
HETATM   30  C28 STQ 31620     -35.165 131.597   8.330  1.00 70.34     0.003 C 
HETATM   31  C29 STQ 31620     -35.957 132.230   9.387  1.00 70.34    -0.062 C 
HETATM   32  C30 STQ 31620     -36.698 133.267   9.014  1.00 70.34     0.007 C 
HETATM   33  C31 STQ 31620     -37.556 134.026   9.905  1.00 70.34     0.001 C 
HETATM   34  C32 STQ 31620     -38.198 135.005   9.288  1.00 70.34     0.007 C 
HETATM   35  C33 STQ 31620     -39.125 135.919   9.954  1.00 70.34    -0.062 C 
HETATM   36  C34 STQ 31620     -39.744 136.812   9.185  1.00 70.34     0.007 C 
HETATM   37  C35 STQ 31620     -40.689 137.770   9.727  1.00 70.34     0.001 C 
HETATM   38  C36 STQ 31620     -34.108 127.598   8.304  1.00 70.34     0.016 C 
HETATM   39  C37 STQ 31620     -35.641 128.456   6.587  1.00 70.34     0.016 C 
HETATM   40  C38 STQ 31620     -31.729 130.576   8.829  1.00 70.34     0.044 C 
HETATM   41  C39 STQ 31620     -35.933 131.730  10.799  1.00 70.34     0.048 C 
HETATM   42  C40 STQ 31620     -39.352 135.849  11.428  1.00 70.34     0.048 C 
HETATM   43  O23 STQ 31620     -31.226 127.961   4.813  1.00 70.34    -0.392 OA
ATOM     44  H23 STQ 31620     -30.287 128.066   4.917  1.00  0.00     0.210 HD
ENDROOT
TORSDOF 12
