REMARK VINA RESULT:    -9.765      0.000      0.000
REMARK INTER + INTRA:         -12.988
REMARK INTER:                  -9.765
REMARK INTRA:                  -3.222
REMARK UNBOUND:                -3.222
REMARK  0 active torsions:
REMARK  status: ('A' for Active; 'I' for Inactive)
REMARK       I    between atoms: C3_3  and  O3_21 
REMARK       I    between atoms: C6_6  and  C7_7 
REMARK       I    between atoms: C8_8  and  C9_9 
REMARK       I    between atoms: C10_10  and  C11_11 
REMARK       I    between atoms: C12_12  and  C13_13 
REMARK       I    between atoms: C14_14  and  C15_15 
REMARK       I    between atoms: C23_25  and  O23_43 
REMARK       I    between atoms: C26_28  and  C27_29 
REMARK       I    between atoms: C28_30  and  C29_31 
REMARK       I    between atoms: C30_32  and  C31_33 
REMARK       I    between atoms: C32_34  and  C33_35 
REMARK       I    between atoms: C34_36  and  C35_37 
ROOT
HETATM    1  C1  STQ X1620     -33.696 129.327   6.898  1.00 33.88    -0.022 C 
HETATM    2  C2  STQ X1620     -32.895 130.115   5.872  1.00 33.88     0.045 C 
HETATM    3  C3  STQ X1620     -32.047 131.226   6.454  1.00 33.88     0.119 C 
HETATM    4  C4  STQ X1620     -31.148 130.599   7.498  1.00 33.88     0.040 C 
HETATM    5  C5  STQ X1620     -31.993 129.986   8.584  1.00 33.88     0.013 C 
HETATM    6  C6  STQ X1620     -33.265 129.660   8.326  1.00 33.88    -0.068 C 
HETATM    7  C7  STQ X1620     -34.319 129.927   9.312  1.00 33.88     0.004 C 
HETATM    8  C8  STQ X1620     -34.855 131.121   9.024  1.00 33.88     0.007 C 
HETATM    9  C9  STQ X1620     -35.915 131.763   9.845  1.00 33.88    -0.062 C 
HETATM   10  C10 STQ X1620     -36.349 132.974   9.422  1.00 33.88     0.007 C 
HETATM   11  C11 STQ X1620     -37.405 133.734  10.080  1.00 33.88     0.001 C 
HETATM   12  C12 STQ X1620     -37.815 134.889   9.577  1.00 33.88     0.007 C 
HETATM   13  C13 STQ X1620     -38.933 135.627  10.192  1.00 33.88    -0.062 C 
HETATM   14  C14 STQ X1620     -39.368 136.700   9.511  1.00 33.88     0.007 C 
HETATM   15  C15 STQ X1620     -40.504 137.538   9.895  1.00 33.88     0.001 C 
HETATM   16  C16 STQ X1620     -33.560 127.867   6.472  1.00 33.88     0.019 C 
HETATM   17  C17 STQ X1620     -35.153 129.756   6.737  1.00 33.88     0.019 C 
HETATM   18  C18 STQ X1620     -31.587 130.876   9.731  1.00 33.88     0.015 C 
HETATM   19  C19 STQ X1620     -36.471 131.067  11.069  1.00 33.88     0.048 C 
HETATM   20  C20 STQ X1620     -39.569 135.109  11.455  1.00 33.88     0.048 C 
HETATM   21  O3  STQ X1620     -31.266 131.762   5.382  1.00 33.88    -0.396 OA
ATOM     22  H3  STQ X1620     -30.733 132.459   5.747  1.00  0.00     0.210 HD
HETATM   23  C21 STQ X1620     -50.168 145.567   8.835  1.00 33.88    -0.035 C 
HETATM   24  C22 STQ X1620     -51.510 145.794   9.508  1.00 33.88     0.045 C 
HETATM   25  C23 STQ X1620     -51.671 147.222  10.005  1.00 33.88     0.142 C 
HETATM   26  C24 STQ X1620     -50.364 147.831  10.470  1.00 33.88     0.007 C 
HETATM   27  C25 STQ X1620     -49.167 147.214  10.413  1.00 33.88    -0.077 C 
HETATM   28  C26 STQ X1620     -49.021 145.839   9.813  1.00 33.88     0.044 C 
HETATM   29  C27 STQ X1620     -47.741 145.553   9.041  1.00 33.88    -0.016 C 
HETATM   30  C28 STQ X1620     -46.982 144.521   9.412  1.00 33.88     0.003 C 
HETATM   31  C29 STQ X1620     -45.764 144.089   8.690  1.00 33.88    -0.062 C 
HETATM   32  C30 STQ X1620     -45.189 142.960   9.157  1.00 33.88     0.007 C 
HETATM   33  C31 STQ X1620     -44.003 142.309   8.596  1.00 33.88     0.001 C 
HETATM   34  C32 STQ X1620     -43.559 141.191   9.181  1.00 33.88     0.007 C 
HETATM   35  C33 STQ X1620     -42.374 140.452   8.690  1.00 33.88    -0.062 C 
HETATM   36  C34 STQ X1620     -41.976 139.387   9.415  1.00 33.88     0.007 C 
HETATM   37  C35 STQ X1620     -40.832 138.538   9.081  1.00 33.88     0.001 C 
HETATM   38  C36 STQ X1620     -50.074 146.450   7.590  1.00 33.88     0.016 C 
HETATM   39  C37 STQ X1620     -50.124 144.107   8.397  1.00 33.88     0.016 C 
HETATM   40  C38 STQ X1620     -47.998 147.915  11.042  1.00 33.88     0.044 C 
HETATM   41  C39 STQ X1620     -45.269 144.851   7.483  1.00 33.88     0.048 C 
HETATM   42  C40 STQ X1620     -41.714 140.891   7.410  1.00 33.88     0.048 C 
HETATM   43  O23 STQ X1620     -52.600 147.218  11.095  1.00 33.88    -0.392 OA
ATOM     44  H23 STQ X1620     -52.701 148.110  11.405  1.00  0.00     0.210 HD
ENDROOT
TORSDOF 12
