REMARK VINA RESULT:    -7.999      0.000      0.000
REMARK INTER + INTRA:         -11.842
REMARK INTER:                  -7.999
REMARK INTRA:                  -3.843
REMARK UNBOUND:                -3.843
REMARK  0 active torsions:
REMARK  status: ('A' for Active; 'I' for Inactive)
REMARK       I    between atoms: C3_3  and  O3_21 
REMARK       I    between atoms: C6_6  and  C7_7 
REMARK       I    between atoms: C8_8  and  C9_9 
REMARK       I    between atoms: C10_10  and  C11_11 
REMARK       I    between atoms: C12_12  and  C13_13 
REMARK       I    between atoms: C14_14  and  C15_15 
REMARK       I    between atoms: C23_25  and  O23_43 
REMARK       I    between atoms: C26_28  and  C27_29 
REMARK       I    between atoms: C28_30  and  C29_31 
REMARK       I    between atoms: C30_32  and  C31_33 
REMARK       I    between atoms: C32_34  and  C33_35 
REMARK       I    between atoms: C34_36  and  C35_37 
ROOT
HETATM    1  C1  STQ 31620     -50.038 142.385  13.082  1.00 70.34    -0.018 C 
HETATM    2  C2  STQ 31620     -50.077 143.052  14.442  1.00 70.34     0.045 C 
HETATM    3  C3  STQ 31620     -50.274 144.558  14.451  1.00 70.34     0.123 C 
HETATM    4  C4  STQ 31620     -49.423 145.271  13.416  1.00 70.34     0.066 C 
HETATM    5  C5  STQ 31620     -49.075 144.499  12.177  1.00 70.34    -0.074 C 
HETATM    6  C6  STQ 31620     -49.276 143.185  12.049  1.00 70.34    -0.048 C 
HETATM    7  C7  STQ 31620     -48.790 142.459  10.851  1.00 70.34     0.009 C 
HETATM    8  C8  STQ 31620     -47.616 141.837  10.815  1.00 70.34     0.007 C 
HETATM    9  C9  STQ 31620     -47.162 141.106   9.634  1.00 70.34    -0.062 C 
HETATM   10  C10 STQ 31620     -45.956 140.556   9.725  1.00 70.34     0.007 C 
HETATM   11  C11 STQ 31620     -45.318 139.766   8.694  1.00 70.34     0.001 C 
HETATM   12  C12 STQ 31620     -44.349 139.008   9.178  1.00 70.34     0.007 C 
HETATM   13  C13 STQ 31620     -43.543 138.090   8.374  1.00 70.34    -0.062 C 
HETATM   14  C14 STQ 31620     -42.642 137.365   9.027  1.00 70.34     0.007 C 
HETATM   15  C15 STQ 31620     -41.791 136.406   8.353  1.00 70.34     0.001 C 
HETATM   16  C16 STQ 31620     -51.466 142.113  12.630  1.00 70.34     0.020 C 
HETATM   17  C17 STQ 31620     -49.310 141.061  13.273  1.00 70.34     0.020 C 
HETATM   18  C18 STQ 31620     -48.191 145.266  11.237  1.00 70.34     0.044 C 
HETATM   19  C19 STQ 31620     -48.031 140.982   8.425  1.00 70.34     0.048 C 
HETATM   20  C20 STQ 31620     -43.726 137.972   6.893  1.00 70.34     0.048 C 
HETATM   21  O3  STQ 31620     -51.650 144.906  14.280  1.00 70.34    -0.395 OA
ATOM     22  H3  STQ 31620     -51.774 145.847  14.286  1.00  0.00     0.210 HD
HETATM   23  C21 STQ 31620     -34.387 126.590   5.909  1.00 70.34    -0.035 C 
HETATM   24  C22 STQ 31620     -33.895 125.850   4.675  1.00 70.34     0.045 C 
HETATM   25  C23 STQ 31620     -32.468 126.178   4.242  1.00 70.34     0.142 C 
HETATM   26  C24 STQ 31620     -32.134 127.635   4.431  1.00 70.34     0.007 C 
HETATM   27  C25 STQ 31620     -32.682 128.308   5.443  1.00 70.34    -0.077 C 
HETATM   28  C26 STQ 31620     -34.129 128.084   5.762  1.00 70.34     0.044 C 
HETATM   29  C27 STQ 31620     -34.529 128.807   7.020  1.00 70.34    -0.016 C 
HETATM   30  C28 STQ 31620     -35.346 129.836   6.877  1.00 70.34     0.003 C 
HETATM   31  C29 STQ 31620     -35.818 130.619   8.021  1.00 70.34    -0.062 C 
HETATM   32  C30 STQ 31620     -36.797 131.481   7.769  1.00 70.34     0.007 C 
HETATM   33  C31 STQ 31620     -37.408 132.344   8.763  1.00 70.34     0.001 C 
HETATM   34  C32 STQ 31620     -38.369 133.102   8.263  1.00 70.34     0.007 C 
HETATM   35  C33 STQ 31620     -39.145 134.060   9.050  1.00 70.34    -0.062 C 
HETATM   36  C34 STQ 31620     -40.124 134.704   8.418  1.00 70.34     0.007 C 
HETATM   37  C35 STQ 31620     -40.966 135.675   9.090  1.00 70.34     0.001 C 
HETATM   38  C36 STQ 31620     -33.740 126.035   7.173  1.00 70.34     0.016 C 
HETATM   39  C37 STQ 31620     -35.884 126.356   6.019  1.00 70.34     0.016 C 
HETATM   40  C38 STQ 31620     -31.831 129.246   6.248  1.00 70.34     0.044 C 
HETATM   41  C39 STQ 31620     -35.233 130.450   9.389  1.00 70.34     0.048 C 
HETATM   42  C40 STQ 31620     -38.839 134.301  10.491  1.00 70.34     0.048 C 
HETATM   43  O23 STQ 31620     -32.325 125.854   2.862  1.00 70.34    -0.392 OA
ATOM     44  H23 STQ 31620     -31.437 126.059   2.592  1.00  0.00     0.210 HD
ENDROOT
TORSDOF 12
