REMARK VINA RESULT:    -9.403      2.018      2.580
REMARK INTER + INTRA:          -9.778
REMARK INTER:                  -7.133
REMARK INTRA:                  -2.645
REMARK UNBOUND:                -0.375
REMARK  0 active torsions:
REMARK  status: ('A' for Active; 'I' for Inactive)
REMARK       I    between atoms: C3_3  and  O3_21 
REMARK       I    between atoms: C6_6  and  C7_7 
REMARK       I    between atoms: C8_8  and  C9_9 
REMARK       I    between atoms: C10_10  and  C11_11 
REMARK       I    between atoms: C12_12  and  C13_13 
REMARK       I    between atoms: C14_14  and  C15_15 
REMARK       I    between atoms: C23_25  and  O23_43 
REMARK       I    between atoms: C26_28  and  C27_29 
REMARK       I    between atoms: C28_30  and  C29_31 
REMARK       I    between atoms: C30_32  and  C31_33 
REMARK       I    between atoms: C32_34  and  C33_35 
REMARK       I    between atoms: C34_36  and  C35_37 
ROOT
HETATM    1  C1  STQ H7621     -34.638 127.301   6.130  1.00 22.61    -0.018 C 
HETATM    2  C2  STQ H7621     -34.221 126.663   4.792  1.00 23.33     0.045 C 
HETATM    3  C3  STQ H7621     -32.888 127.028   4.131  1.00 24.77     0.123 C 
HETATM    4  C4  STQ H7621     -31.952 127.931   4.953  1.00 22.10     0.066 C 
HETATM    5  C5  STQ H7621     -32.469 128.646   6.155  1.00 21.89    -0.074 C 
HETATM    6  C6  STQ H7621     -33.691 128.388   6.734  1.00 21.83    -0.048 C 
HETATM    7  C7  STQ H7621     -34.206 129.088   7.933  1.00 21.27     0.009 C 
HETATM    8  C8  STQ H7621     -34.778 130.314   7.920  1.00 20.16     0.007 C 
HETATM    9  C9  STQ H7621     -35.303 131.071   9.048  1.00 19.98    -0.062 C 
HETATM   10  C10 STQ H7621     -35.958 132.223   8.777  1.00 19.41     0.007 C 
HETATM   11  C11 STQ H7621     -36.632 133.068   9.732  1.00 19.37     0.001 C 
HETATM   12  C12 STQ H7621     -37.340 134.160   9.378  1.00 19.06     0.007 C 
HETATM   13  C13 STQ H7621     -38.130 135.027  10.268  1.00 20.91    -0.062 C 
HETATM   14  C14 STQ H7621     -38.803 136.059   9.712  1.00 20.64     0.007 C 
HETATM   15  C15 STQ H7621     -39.672 136.984  10.384  1.00 20.44     0.001 C 
HETATM   16  C16 STQ H7621     -34.749 126.097   7.076  1.00 21.21     0.020 C 
HETATM   17  C17 STQ H7621     -36.065 127.861   5.942  1.00 21.56     0.020 C 
HETATM   18  C18 STQ H7621     -31.433 129.609   6.592  1.00 21.82     0.044 C 
HETATM   19  C19 STQ H7621     -35.156 130.480  10.420  1.00 18.20     0.048 C 
HETATM   20  C20 STQ H7621     -38.170 134.685  11.738  1.00 20.18     0.048 C 
HETATM   21  O3  STQ H7621     -32.201 125.850   3.719  1.00 25.40    -0.395 OA
ATOM     22  H3  STQ H7621     -31.374 126.077   3.309  1.00  0.00     0.210 HD
HETATM   23  C21 STQ H7621     -47.953 146.422  13.334  1.00 19.11    -0.035 C 
HETATM   24  C22 STQ H7621     -48.796 147.293  14.284  1.00 18.10     0.045 C 
HETATM   25  C23 STQ H7621     -48.219 148.691  14.511  1.00 19.16     0.142 C 
HETATM   26  C24 STQ H7621     -46.697 148.686  14.738  1.00 17.14     0.007 C 
HETATM   27  C25 STQ H7621     -45.922 147.634  14.379  1.00 18.43    -0.077 C 
HETATM   28  C26 STQ H7621     -46.440 146.345  13.728  1.00 19.04     0.044 C 
HETATM   29  C27 STQ H7621     -45.550 145.879  12.586  1.00 19.23    -0.016 C 
HETATM   30  C28 STQ H7621     -45.045 144.635  12.493  1.00 22.69     0.003 C 
HETATM   31  C29 STQ H7621     -44.374 144.024  11.339  1.00 24.75    -0.062 C 
HETATM   32  C30 STQ H7621     -43.891 142.768  11.471  1.00 23.92     0.007 C 
HETATM   33  C31 STQ H7621     -43.165 142.021  10.480  1.00 24.21     0.001 C 
HETATM   34  C32 STQ H7621     -42.568 140.840  10.765  1.00 22.58     0.007 C 
HETATM   35  C33 STQ H7621     -41.735 140.008   9.877  1.00 22.21    -0.062 C 
HETATM   36  C34 STQ H7621     -41.150 138.912  10.407  1.00 21.24     0.007 C 
HETATM   37  C35 STQ H7621     -40.259 137.993   9.737  1.00 22.03     0.001 C 
HETATM   38  C36 STQ H7621     -48.118 146.991  11.894  1.00 19.21     0.016 C 
HETATM   39  C37 STQ H7621     -48.567 145.016  13.350  1.00 17.14     0.016 C 
HETATM   40  C38 STQ H7621     -44.477 147.806  14.693  1.00 13.06     0.044 C 
HETATM   41  C39 STQ H7621     -44.201 144.871  10.109  1.00 25.35     0.048 C 
HETATM   42  C40 STQ H7621     -41.526 140.474   8.460  1.00 19.46     0.048 C 
HETATM   43  O23 STQ H7621     -48.898 149.332  15.585  1.00 20.37    -0.392 OA
ATOM     44  H23 STQ H7621     -48.539 150.200  15.726  1.00  0.00     0.210 HD
ENDROOT
TORSDOF 12
