REMARK VINA RESULT:    -5.892      1.652      2.128
REMARK INTER + INTRA:          -9.200
REMARK INTER:                  -8.875
REMARK INTRA:                  -0.326
REMARK UNBOUND:                -3.309
REMARK  0 active torsions:
REMARK  status: ('A' for Active; 'I' for Inactive)
REMARK       I    between atoms: C3_3  and  O3_21 
REMARK       I    between atoms: C6_6  and  C7_7 
REMARK       I    between atoms: C8_8  and  C9_9 
REMARK       I    between atoms: C10_10  and  C11_11 
REMARK       I    between atoms: C12_12  and  C13_13 
REMARK       I    between atoms: C14_14  and  C15_15 
REMARK       I    between atoms: C23_25  and  O23_43 
REMARK       I    between atoms: C26_28  and  C27_29 
REMARK       I    between atoms: C28_30  and  C29_31 
REMARK       I    between atoms: C30_32  and  C31_33 
REMARK       I    between atoms: C32_34  and  C33_35 
REMARK       I    between atoms: C34_36  and  C35_37 
ROOT
HETATM    1  C1  STQ A 620     -34.270 128.262   6.641  1.00 22.96    -0.018 C 
HETATM    2  C2  STQ A 620     -33.305 127.630   5.613  1.00 23.40     0.045 C 
HETATM    3  C3  STQ A 620     -31.955 128.300   5.361  1.00 22.69     0.123 C 
HETATM    4  C4  STQ A 620     -31.397 129.054   6.566  1.00 22.06     0.066 C 
HETATM    5  C5  STQ A 620     -32.350 129.717   7.504  1.00 21.38    -0.074 C 
HETATM    6  C6  STQ A 620     -33.685 129.375   7.567  1.00 22.58    -0.048 C 
HETATM    7  C7  STQ A 620     -34.601 130.040   8.516  1.00 22.00     0.009 C 
HETATM    8  C8  STQ A 620     -35.164 131.259   8.401  1.00 20.93     0.007 C 
HETATM    9  C9  STQ A 620     -35.956 131.945   9.423  1.00 21.87    -0.062 C 
HETATM   10  C10 STQ A 620     -36.539 133.120   9.094  1.00 20.24     0.007 C 
HETATM   11  C11 STQ A 620     -37.365 133.939   9.946  1.00 21.04     0.001 C 
HETATM   12  C12 STQ A 620     -38.043 134.977   9.433  1.00 22.18     0.007 C 
HETATM   13  C13 STQ A 620     -38.969 135.916  10.082  1.00 24.17    -0.062 C 
HETATM   14  C14 STQ A 620     -39.602 136.801   9.281  1.00 25.88     0.007 C 
HETATM   15  C15 STQ A 620     -40.607 137.768   9.624  1.00 26.51     0.001 C 
HETATM   16  C16 STQ A 620     -34.737 127.061   7.487  1.00 20.65     0.020 C 
HETATM   17  C17 STQ A 620     -35.489 128.792   5.864  1.00 21.73     0.020 C 
HETATM   18  C18 STQ A 620     -31.580 130.719   8.290  1.00 21.05     0.044 C 
HETATM   19  C19 STQ A 620     -36.111 131.266  10.757  1.00 19.19     0.048 C 
HETATM   20  C20 STQ A 620     -39.206 135.783  11.557  1.00 21.80     0.048 C 
HETATM   21  O3  STQ A 620     -31.008 127.348   4.900  1.00 22.00    -0.395 OA
ATOM     22  H3  STQ A 620     -30.168 127.764   4.743  1.00  0.00     0.210 HD
HETATM   23  C21 STQ A 620     -50.856 145.524   9.392  1.00 38.17    -0.035 C 
HETATM   24  C22 STQ A 620     -51.989 146.367  10.014  1.00 37.47     0.045 C 
HETATM   25  C23 STQ A 620     -51.704 147.867  10.127  1.00 37.61     0.142 C 
HETATM   26  C24 STQ A 620     -50.236 148.193  10.424  1.00 37.22     0.007 C 
HETATM   27  C25 STQ A 620     -49.231 147.297  10.313  1.00 37.36    -0.077 C 
HETATM   28  C26 STQ A 620     -49.407 145.843   9.889  1.00 37.84     0.044 C 
HETATM   29  C27 STQ A 620     -48.284 145.417   8.941  1.00 39.21    -0.016 C 
HETATM   30  C28 STQ A 620     -47.384 144.430   9.193  1.00 38.37     0.003 C 
HETATM   31  C29 STQ A 620     -46.455 143.785   8.244  1.00 37.91    -0.062 C 
HETATM   32  C30 STQ A 620     -45.633 142.822   8.714  1.00 37.54     0.007 C 
HETATM   33  C31 STQ A 620     -44.657 142.064   7.972  1.00 35.36     0.001 C 
HETATM   34  C32 STQ A 620     -43.885 141.151   8.593  1.00 32.59     0.007 C 
HETATM   35  C33 STQ A 620     -42.825 140.286   8.055  1.00 30.48    -0.062 C 
HETATM   36  C34 STQ A 620     -42.196 139.462   8.921  1.00 28.06     0.007 C 
HETATM   37  C35 STQ A 620     -41.146 138.522   8.652  1.00 27.79     0.001 C 
HETATM   38  C36 STQ A 620     -50.955 145.700   7.850  1.00 37.05     0.016 C 
HETATM   39  C37 STQ A 620     -51.183 144.058   9.710  1.00 38.32     0.016 C 
HETATM   40  C38 STQ A 620     -47.898 147.848  10.673  1.00 37.13     0.044 C 
HETATM   41  C39 STQ A 620     -46.474 144.246   6.816  1.00 38.40     0.048 C 
HETATM   42  C40 STQ A 620     -42.511 140.381   6.585  1.00 28.72     0.048 C 
HETATM   43  O23 STQ A 620     -52.552 148.451  11.106  1.00 38.44    -0.392 OA
ATOM     44  H23 STQ A 620     -52.375 149.381  11.177  1.00  0.00     0.210 HD
ENDROOT
TORSDOF 12
