REMARK VINA RESULT:   -10.460      0.000      0.000
REMARK INTER + INTRA:         -11.579
REMARK INTER:                 -10.460
REMARK INTRA:                  -1.119
REMARK UNBOUND:                -1.119
REMARK  0 active torsions:
REMARK  status: ('A' for Active; 'I' for Inactive)
REMARK       I    between atoms: C3_3  and  O3_21 
REMARK       I    between atoms: C6_6  and  C7_7 
REMARK       I    between atoms: C8_8  and  C9_9 
REMARK       I    between atoms: C10_10  and  C11_11 
REMARK       I    between atoms: C12_12  and  C13_13 
REMARK       I    between atoms: C14_14  and  C15_15 
REMARK       I    between atoms: C23_25  and  O23_43 
REMARK       I    between atoms: C26_28  and  C27_29 
REMARK       I    between atoms: C28_30  and  C29_31 
REMARK       I    between atoms: C30_32  and  C31_33 
REMARK       I    between atoms: C32_34  and  C33_35 
REMARK       I    between atoms: C34_36  and  C35_37 
ROOT
HETATM    1  C1  STQ 11621     -34.081 128.393   6.829  1.00 87.69    -0.018 C 
HETATM    2  C2  STQ 11621     -33.242 128.102   5.598  1.00 87.69     0.045 C 
HETATM    3  C3  STQ 11621     -31.729 128.139   5.778  1.00 87.69     0.123 C 
HETATM    4  C4  STQ 11621     -31.227 129.081   6.863  1.00 87.69     0.066 C 
HETATM    5  C5  STQ 11621     -32.295 129.991   7.411  1.00 87.69    -0.074 C 
HETATM    6  C6  STQ 11621     -33.540 129.562   7.605  1.00 87.69    -0.048 C 
HETATM    7  C7  STQ 11621     -34.415 130.198   8.616  1.00 87.69     0.009 C 
HETATM    8  C8  STQ 11621     -35.074 131.319   8.341  1.00 87.69     0.007 C 
HETATM    9  C9  STQ 11621     -35.968 131.969   9.311  1.00 87.69    -0.062 C 
HETATM   10  C10 STQ 11621     -36.808 132.879   8.829  1.00 87.69     0.007 C 
HETATM   11  C11 STQ 11621     -37.791 133.631   9.595  1.00 87.69     0.001 C 
HETATM   12  C12 STQ 11621     -38.343 134.655   8.955  1.00 87.69     0.007 C 
HETATM   13  C13 STQ 11621     -39.390 135.498   9.552  1.00 87.69    -0.062 C 
HETATM   14  C14 STQ 11621     -39.955 136.431   8.782  1.00 87.69     0.007 C 
HETATM   15  C15 STQ 11621     -41.034 137.270   9.277  1.00 87.69     0.001 C 
HETATM   16  C16 STQ 11621     -34.204 127.152   7.707  1.00 87.69     0.020 C 
HETATM   17  C17 STQ 11621     -35.464 128.769   6.346  1.00 87.69     0.020 C 
HETATM   18  C18 STQ 11621     -31.556 130.738   8.476  1.00 87.69     0.044 C 
HETATM   19  C19 STQ 11621     -35.928 131.626  10.765  1.00 87.69     0.048 C 
HETATM   20  C20 STQ 11621     -39.830 135.297  10.967  1.00 87.69     0.048 C 
HETATM   21  O3  STQ 11621     -31.312 126.816   6.113  1.00 87.69    -0.395 OA
ATOM     22  H3  STQ 11621     -30.369 126.838   6.225  1.00  0.00     0.210 HD
HETATM   23  C21 STQ 11621     -50.656 145.587   9.063  1.00 87.69    -0.035 C 
HETATM   24  C22 STQ 11621     -51.827 146.318   9.690  1.00 87.69     0.045 C 
HETATM   25  C23 STQ 11621     -51.443 147.693  10.191  1.00 87.69     0.142 C 
HETATM   26  C24 STQ 11621     -50.277 147.549  11.130  1.00 87.69     0.007 C 
HETATM   27  C25 STQ 11621     -49.300 146.665  10.900  1.00 87.69    -0.077 C 
HETATM   28  C26 STQ 11621     -49.492 145.444  10.046  1.00 87.69     0.044 C 
HETATM   29  C27 STQ 11621     -48.219 145.126   9.297  1.00 87.69    -0.016 C 
HETATM   30  C28 STQ 11621     -47.666 143.938   9.468  1.00 87.69     0.003 C 
HETATM   31  C29 STQ 11621     -46.447 143.544   8.756  1.00 87.69    -0.062 C 
HETATM   32  C30 STQ 11621     -46.123 142.256   8.806  1.00 87.69     0.007 C 
HETATM   33  C31 STQ 11621     -44.969 141.677   8.145  1.00 87.69     0.001 C 
HETATM   34  C32 STQ 11621     -44.363 140.703   8.803  1.00 87.69     0.007 C 
HETATM   35  C33 STQ 11621     -43.206 139.991   8.260  1.00 87.69    -0.062 C 
HETATM   36  C34 STQ 11621     -42.691 138.975   8.960  1.00 87.69     0.007 C 
HETATM   37  C35 STQ 11621     -41.573 138.179   8.476  1.00 87.69     0.001 C 
HETATM   38  C36 STQ 11621     -50.240 146.309   7.794  1.00 87.69     0.016 C 
HETATM   39  C37 STQ 11621     -51.160 144.218   8.646  1.00 87.69     0.016 C 
HETATM   40  C38 STQ 11621     -47.968 146.902  11.536  1.00 87.69     0.044 C 
HETATM   41  C39 STQ 11621     -45.626 144.537   8.003  1.00 87.69     0.048 C 
HETATM   42  C40 STQ 11621     -42.650 140.399   6.940  1.00 87.69     0.048 C 
HETATM   43  O23 STQ 11621     -52.570 148.241  10.878  1.00 87.69    -0.392 OA
ATOM     44  H23 STQ 11621     -52.329 149.104  11.192  1.00  0.00     0.210 HD
ENDROOT
TORSDOF 12
