REMARK VINA RESULT:    -4.581      1.239     16.970
REMARK INTER + INTRA:          -7.448
REMARK INTER:                  -6.954
REMARK INTRA:                  -0.494
REMARK UNBOUND:                -2.867
REMARK  0 active torsions:
REMARK  status: ('A' for Active; 'I' for Inactive)
REMARK       I    between atoms: C3_3  and  O3_21 
REMARK       I    between atoms: C6_6  and  C7_7 
REMARK       I    between atoms: C8_8  and  C9_9 
REMARK       I    between atoms: C10_10  and  C11_11 
REMARK       I    between atoms: C12_12  and  C13_13 
REMARK       I    between atoms: C14_14  and  C15_15 
REMARK       I    between atoms: C23_25  and  O23_43 
REMARK       I    between atoms: C26_28  and  C27_29 
REMARK       I    between atoms: C28_30  and  C29_31 
REMARK       I    between atoms: C30_32  and  C31_33 
REMARK       I    between atoms: C32_34  and  C33_35 
REMARK       I    between atoms: C34_36  and  C35_37 
ROOT
HETATM    1  C1  STQ 7 615     -50.411 144.628  13.234  1.00 73.60    -0.018 C 
HETATM    2  C2  STQ 7 615     -51.220 145.208  14.390  1.00 75.55     0.045 C 
HETATM    3  C3  STQ 7 615     -50.399 145.999  15.399  1.00 76.70     0.123 C 
HETATM    4  C4  STQ 7 615     -49.617 147.075  14.672  1.00 74.32     0.066 C 
HETATM    5  C5  STQ 7 615     -48.727 146.438  13.638  1.00 72.24    -0.074 C 
HETATM    6  C6  STQ 7 615     -49.128 145.381  12.924  1.00 72.79    -0.048 C 
HETATM    7  C7  STQ 7 615     -48.316 144.914  11.773  1.00 73.20     0.009 C 
HETATM    8  C8  STQ 7 615     -47.214 144.183  11.959  1.00 73.76     0.007 C 
HETATM    9  C9  STQ 7 615     -46.390 143.687  10.839  1.00 74.91    -0.062 C 
HETATM   10  C10 STQ 7 615     -45.386 142.848  11.126  1.00 76.80     0.007 C 
HETATM   11  C11 STQ 7 615     -44.501 142.264  10.121  1.00 78.16     0.001 C 
HETATM   12  C12 STQ 7 615     -43.616 141.378  10.571  1.00 79.81     0.007 C 
HETATM   13  C13 STQ 7 615     -42.663 140.660   9.705  1.00 80.85    -0.062 C 
HETATM   14  C14 STQ 7 615     -41.995 139.629  10.246  1.00 82.27     0.007 C 
HETATM   15  C15 STQ 7 615     -41.052 138.806   9.496  1.00 83.03     0.001 C 
HETATM   16  C16 STQ 7 615     -51.295 144.607  11.993  1.00 74.39     0.020 C 
HETATM   17  C17 STQ 7 615     -50.026 143.197  13.586  1.00 72.12     0.020 C 
HETATM   18  C18 STQ 7 615     -47.571 147.280  13.187  1.00 72.14     0.044 C 
HETATM   19  C19 STQ 7 615     -46.666 144.106   9.425  1.00 74.86     0.048 C 
HETATM   20  C20 STQ 7 615     -42.461 141.060   8.273  1.00 80.14     0.048 C 
HETATM   21  O3  STQ 7 615     -51.274 146.611  16.353  1.00 78.13    -0.395 OA
ATOM     22  H3  STQ 7 615     -50.761 147.105  16.983  1.00  0.00     0.210 HD
HETATM   23  C21 STQ 7 615     -34.224 128.408   6.793  1.00 96.64    -0.035 C 
HETATM   24  C22 STQ 7 615     -33.423 127.615   5.771  1.00 97.77     0.045 C 
HETATM   25  C23 STQ 7 615     -31.948 127.533   6.139  1.00 98.19     0.142 C 
HETATM   26  C24 STQ 7 615     -31.401 128.892   6.506  1.00 97.38     0.007 C 
HETATM   27  C25 STQ 7 615     -32.167 129.890   6.971  1.00 96.37    -0.077 C 
HETATM   28  C26 STQ 7 615     -33.671 129.828   6.941  1.00 96.06     0.044 C 
HETATM   29  C27 STQ 7 615     -34.269 130.477   8.172  1.00 94.32    -0.016 C 
HETATM   30  C28 STQ 7 615     -34.988 131.582   7.998  1.00 91.91     0.003 C 
HETATM   31  C29 STQ 7 615     -35.644 132.295   9.110  1.00 88.65    -0.062 C 
HETATM   32  C30 STQ 7 615     -36.533 133.245   8.785  1.00 87.62     0.007 C 
HETATM   33  C31 STQ 7 615     -37.300 134.036   9.742  1.00 86.36     0.001 C 
HETATM   34  C32 STQ 7 615     -38.050 135.010   9.230  1.00 84.48     0.007 C 
HETATM   35  C33 STQ 7 615     -38.922 135.894  10.026  1.00 83.44    -0.062 C 
HETATM   36  C34 STQ 7 615     -39.554 136.901   9.406  1.00 83.36     0.007 C 
HETATM   37  C35 STQ 7 615     -40.468 137.785  10.120  1.00 83.46     0.001 C 
HETATM   38  C36 STQ 7 615     -34.223 127.679   8.132  1.00 95.07     0.016 C 
HETATM   39  C37 STQ 7 615     -35.665 128.497   6.305  1.00 96.78     0.016 C 
HETATM   40  C38 STQ 7 615     -31.500 131.117   7.512  1.00 95.67     0.044 C 
HETATM   41  C39 STQ 7 615     -35.332 131.962  10.539  1.00 86.98     0.048 C 
HETATM   42  C40 STQ 7 615     -39.124 135.657  11.493  1.00 83.08     0.048 C 
HETATM   43  O23 STQ 7 615     -31.207 127.023   5.024  1.00 98.22    -0.392 OA
ATOM     44  H23 STQ 7 615     -31.551 126.168   4.793  1.00  0.00     0.210 HD
ENDROOT
TORSDOF 12
