REMARK VINA RESULT:    -6.776      1.548     16.674
REMARK INTER + INTRA:         -10.717
REMARK INTER:                 -10.319
REMARK INTRA:                  -0.399
REMARK UNBOUND:                -3.941
REMARK  0 active torsions:
REMARK  status: ('A' for Active; 'I' for Inactive)
REMARK       I    between atoms: C3_3  and  O3_21 
REMARK       I    between atoms: C6_6  and  C7_7 
REMARK       I    between atoms: C8_8  and  C9_9 
REMARK       I    between atoms: C10_10  and  C11_11 
REMARK       I    between atoms: C12_12  and  C13_13 
REMARK       I    between atoms: C14_14  and  C15_15 
REMARK       I    between atoms: C23_25  and  O23_43 
REMARK       I    between atoms: C26_28  and  C27_29 
REMARK       I    between atoms: C28_30  and  C29_31 
REMARK       I    between atoms: C30_32  and  C31_33 
REMARK       I    between atoms: C32_34  and  C33_35 
REMARK       I    between atoms: C34_36  and  C35_37 
ROOT
HETATM    1  C1  STQ S1621     -49.677 144.898  12.790  1.00 98.50    -0.018 C 
HETATM    2  C2  STQ S1621     -50.648 145.520  13.774  1.00 95.05     0.045 C 
HETATM    3  C3  STQ S1621     -49.976 145.869  15.082  1.00 91.19     0.123 C 
HETATM    4  C4  STQ S1621     -48.846 146.853  14.860  1.00 95.39     0.066 C 
HETATM    5  C5  STQ S1621     -48.094 146.664  13.569  1.00 94.24    -0.074 C 
HETATM    6  C6  STQ S1621     -48.382 145.694  12.672  1.00 98.17    -0.048 C 
HETATM    7  C7  STQ S1621     -47.487 145.393  11.516  1.00 96.30     0.009 C 
HETATM    8  C8  STQ S1621     -46.433 144.572  11.600  1.00 99.74     0.007 C 
HETATM    9  C9  STQ S1621     -45.547 144.225  10.489  1.00 91.17    -0.062 C 
HETATM   10  C10 STQ S1621     -44.729 143.202  10.733  1.00 97.68     0.007 C 
HETATM   11  C11 STQ S1621     -43.790 142.668   9.767  1.00 98.02     0.001 C 
HETATM   12  C12 STQ S1621     -43.328 141.477  10.096  1.00 91.18     0.007 C 
HETATM   13  C13 STQ S1621     -42.394 140.721   9.262  1.00 90.92    -0.062 C 
HETATM   14  C14 STQ S1621     -42.020 139.533   9.730  1.00 96.50     0.007 C 
HETATM   15  C15 STQ S1621     -41.120 138.638   9.035  1.00 99.38     0.001 C 
HETATM   16  C16 STQ S1621     -50.462 144.744  11.498  1.00 90.00     0.020 C 
HETATM   17  C17 STQ S1621     -49.288 143.507  13.249  1.00 93.85     0.020 C 
HETATM   18  C18 STQ S1621     -46.741 147.285  13.711  1.00 91.76     0.044 C 
HETATM   19  C19 STQ S1621     -45.568 144.950   9.178  1.00 90.99     0.048 C 
HETATM   20  C20 STQ S1621     -41.912 141.256   7.949  1.00 93.33     0.048 C 
HETATM   21  O3  STQ S1621     -50.932 146.487  15.943  1.00 92.07    -0.395 OA
ATOM     22  H3  STQ S1621     -50.510 146.706  16.765  1.00  0.00     0.210 HD
HETATM   23  C21 STQ S1621     -34.168 128.202   6.974  1.00 92.26    -0.035 C 
HETATM   24  C22 STQ S1621     -33.302 127.519   5.928  1.00 91.15     0.045 C 
HETATM   25  C23 STQ S1621     -31.824 127.842   6.074  1.00 99.83     0.142 C 
HETATM   26  C24 STQ S1621     -31.616 129.329   6.191  1.00 88.73     0.007 C 
HETATM   27  C25 STQ S1621     -32.492 130.088   6.852  1.00 81.45    -0.077 C 
HETATM   28  C26 STQ S1621     -33.945 129.715   6.940  1.00 87.98     0.044 C 
HETATM   29  C27 STQ S1621     -34.602 130.363   8.133  1.00 94.75    -0.016 C 
HETATM   30  C28 STQ S1621     -35.559 131.244   7.894  1.00 92.41     0.003 C 
HETATM   31  C29 STQ S1621     -36.260 131.920   8.982  1.00 98.43    -0.062 C 
HETATM   32  C30 STQ S1621     -37.154 132.826   8.614  1.00 92.06     0.007 C 
HETATM   33  C31 STQ S1621     -37.960 133.597   9.536  1.00 98.99     0.001 C 
HETATM   34  C32 STQ S1621     -38.456 134.692   8.992  1.00 98.35     0.007 C 
HETATM   35  C33 STQ S1621     -39.324 135.610   9.722  1.00 93.74    -0.062 C 
HETATM   36  C34 STQ S1621     -39.682 136.735   9.109  1.00 95.45     0.007 C 
HETATM   37  C35 STQ S1621     -40.569 137.678   9.759  1.00 96.56     0.001 C 
HETATM   38  C36 STQ S1621     -33.901 127.627   8.362  1.00 91.16     0.016 C 
HETATM   39  C37 STQ S1621     -35.618 127.902   6.623  1.00 92.72     0.016 C 
HETATM   40  C38 STQ S1621     -32.000 131.336   7.506  1.00 94.63     0.044 C 
HETATM   41  C39 STQ S1621     -35.982 131.606  10.420  1.00 93.10     0.048 C 
HETATM   42  C40 STQ S1621     -39.807 135.260  11.094  1.00 95.49     0.048 C 
HETATM   43  O23 STQ S1621     -31.128 127.364   4.924  1.00 99.14    -0.392 OA
ATOM     44  H23 STQ S1621     -30.204 127.565   5.015  1.00  0.00     0.210 HD
ENDROOT
TORSDOF 12
