REMARK VINA RESULT:    -9.776      0.000      0.000
REMARK INTER + INTRA:         -10.260
REMARK INTER:                  -9.776
REMARK INTRA:                  -0.484
REMARK UNBOUND:                -0.484
REMARK  0 active torsions:
REMARK  status: ('A' for Active; 'I' for Inactive)
REMARK       I    between atoms: C3_3  and  O3_21 
REMARK       I    between atoms: C6_6  and  C7_7 
REMARK       I    between atoms: C8_8  and  C9_9 
REMARK       I    between atoms: C10_10  and  C11_11 
REMARK       I    between atoms: C12_12  and  C13_13 
REMARK       I    between atoms: C14_14  and  C15_15 
REMARK       I    between atoms: C23_25  and  O23_43 
REMARK       I    between atoms: C26_28  and  C27_29 
REMARK       I    between atoms: C28_30  and  C29_31 
REMARK       I    between atoms: C30_32  and  C31_33 
REMARK       I    between atoms: C32_34  and  C33_35 
REMARK       I    between atoms: C34_36  and  C35_37 
ROOT
HETATM    1  C1  STQ I8621     -34.080 128.243   7.016  1.00 22.25    -0.018 C 
HETATM    2  C2  STQ I8621     -33.335 127.539   5.871  1.00 20.45     0.045 C 
HETATM    3  C3  STQ I8621     -32.001 128.088   5.374  1.00 22.17     0.123 C 
HETATM    4  C4  STQ I8621     -31.333 129.138   6.274  1.00 20.30     0.066 C 
HETATM    5  C5  STQ I8621     -32.127 129.873   7.302  1.00 20.75    -0.074 C 
HETATM    6  C6  STQ I8621     -33.398 129.488   7.675  1.00 21.23    -0.048 C 
HETATM    7  C7  STQ I8621     -34.226 130.169   8.695  1.00 18.62     0.009 C 
HETATM    8  C8  STQ I8621     -34.938 131.294   8.483  1.00 19.71     0.007 C 
HETATM    9  C9  STQ I8621     -35.766 132.041   9.434  1.00 18.91    -0.062 C 
HETATM   10  C10 STQ I8621     -36.497 133.069   8.953  1.00 16.97     0.007 C 
HETATM   11  C11 STQ I8621     -37.435 133.858   9.694  1.00 17.11     0.001 C 
HETATM   12  C12 STQ I8621     -38.194 134.798   9.112  1.00 17.32     0.007 C 
HETATM   13  C13 STQ I8621     -39.247 135.599   9.748  1.00 18.45    -0.062 C 
HETATM   14  C14 STQ I8621     -39.935 136.467   8.975  1.00 18.02     0.007 C 
HETATM   15  C15 STQ I8621     -41.036 137.289   9.376  1.00 17.18     0.001 C 
HETATM   16  C16 STQ I8621     -34.246 127.114   8.053  1.00 20.14     0.020 C 
HETATM   17  C17 STQ I8621     -35.491 128.610   6.476  1.00 21.86     0.020 C 
HETATM   18  C18 STQ I8621     -31.309 130.999   7.829  1.00 20.13     0.044 C 
HETATM   19  C19 STQ I8621     -35.811 131.558  10.856  1.00 18.10     0.048 C 
HETATM   20  C20 STQ I8621     -39.522 135.368  11.211  1.00 17.04     0.048 C 
HETATM   21  O3  STQ I8621     -31.101 127.019   5.104  1.00 24.42    -0.395 OA
ATOM     22  H3  STQ I8621     -30.271 127.361   4.794  1.00  0.00     0.210 HD
HETATM   23  C21 STQ I8621     -50.966 145.691   9.617  1.00 21.73    -0.035 C 
HETATM   24  C22 STQ I8621     -52.088 146.567  10.214  1.00 20.45     0.045 C 
HETATM   25  C23 STQ I8621     -51.686 147.971  10.669  1.00 19.75     0.142 C 
HETATM   26  C24 STQ I8621     -50.246 148.082  11.179  1.00 19.93     0.007 C 
HETATM   27  C25 STQ I8621     -49.323 147.104  11.021  1.00 21.71    -0.077 C 
HETATM   28  C26 STQ I8621     -49.573 145.764  10.329  1.00 21.39     0.044 C 
HETATM   29  C27 STQ I8621     -48.402 145.324   9.463  1.00 22.08    -0.016 C 
HETATM   30  C28 STQ I8621     -47.739 144.146   9.617  1.00 23.05     0.003 C 
HETATM   31  C29 STQ I8621     -46.707 143.595   8.725  1.00 22.55    -0.062 C 
HETATM   32  C30 STQ I8621     -46.118 142.426   9.059  1.00 20.56     0.007 C 
HETATM   33  C31 STQ I8621     -45.102 141.739   8.297  1.00 20.09     0.001 C 
HETATM   34  C32 STQ I8621     -44.423 140.675   8.785  1.00 17.50     0.007 C 
HETATM   35  C33 STQ I8621     -43.337 139.905   8.163  1.00 16.61    -0.062 C 
HETATM   36  C34 STQ I8621     -42.736 138.956   8.912  1.00 17.58     0.007 C 
HETATM   37  C35 STQ I8621     -41.614 138.134   8.528  1.00 19.85     0.001 C 
HETATM   38  C36 STQ I8621     -50.846 146.106   8.131  1.00 20.06     0.016 C 
HETATM   39  C37 STQ I8621     -51.476 144.234   9.653  1.00 21.16     0.016 C 
HETATM   40  C38 STQ I8621     -48.000 147.430  11.621  1.00 18.60     0.044 C 
HETATM   41  C39 STQ I8621     -46.318 144.409   7.524  1.00 24.32     0.048 C 
HETATM   42  C40 STQ I8621     -42.907 140.274   6.777  1.00 12.09     0.048 C 
HETATM   43  O23 STQ I8621     -52.600 148.434  11.651  1.00 19.68    -0.392 OA
ATOM     44  H23 STQ I8621     -53.493 148.366  11.336  1.00  0.00     0.210 HD
ENDROOT
TORSDOF 12
