REMARK VINA RESULT:   -10.700      0.000      0.000
REMARK INTER + INTRA:         -11.025
REMARK INTER:                 -10.700
REMARK INTRA:                  -0.325
REMARK UNBOUND:                -0.325
REMARK  0 active torsions:
REMARK  status: ('A' for Active; 'I' for Inactive)
REMARK       I    between atoms: C3_3  and  O3_21 
REMARK       I    between atoms: C6_6  and  C7_7 
REMARK       I    between atoms: C8_8  and  C9_9 
REMARK       I    between atoms: C10_10  and  C11_11 
REMARK       I    between atoms: C12_12  and  C13_13 
REMARK       I    between atoms: C14_14  and  C15_15 
REMARK       I    between atoms: C23_25  and  O23_43 
REMARK       I    between atoms: C26_28  and  C27_29 
REMARK       I    between atoms: C28_30  and  C29_31 
REMARK       I    between atoms: C30_32  and  C31_33 
REMARK       I    between atoms: C32_34  and  C33_35 
REMARK       I    between atoms: C34_36  and  C35_37 
ROOT
HETATM    1  C1  STQ 4 620     -50.221 145.107  11.088  1.00 98.00    -0.022 C 
HETATM    2  C2  STQ 4 620     -51.348 146.120  11.269  1.00 98.00     0.045 C 
HETATM    3  C3  STQ 4 620     -50.920 147.422  11.938  1.00 98.00     0.119 C 
HETATM    4  C4  STQ 4 620     -49.711 148.024  11.239  1.00 98.00     0.040 C 
HETATM    5  C5  STQ 4 620     -48.641 146.969  11.191  1.00 98.00     0.013 C 
HETATM    6  C6  STQ 4 620     -48.938 145.784  10.683  1.00 98.00    -0.068 C 
HETATM    7  C7  STQ 4 620     -48.041 145.149   9.707  1.00 98.00     0.004 C 
HETATM    8  C8  STQ 4 620     -46.821 144.799  10.097  1.00 98.00     0.007 C 
HETATM    9  C9  STQ 4 620     -45.899 144.134   9.167  1.00 98.00    -0.062 C 
HETATM   10  C10 STQ 4 620     -44.918 143.402   9.700  1.00 98.00     0.007 C 
HETATM   11  C11 STQ 4 620     -43.960 142.668   8.890  1.00 98.00     0.001 C 
HETATM   12  C12 STQ 4 620     -43.359 141.667   9.514  1.00 98.00     0.007 C 
HETATM   13  C13 STQ 4 620     -42.380 140.791   8.861  1.00 98.00    -0.062 C 
HETATM   14  C14 STQ 4 620     -41.912 139.758   9.571  1.00 98.00     0.007 C 
HETATM   15  C15 STQ 4 620     -40.960 138.812   9.019  1.00 98.00     0.001 C 
HETATM   16  C16 STQ 4 620     -50.637 144.082  10.043  1.00 98.00     0.019 C 
HETATM   17  C17 STQ 4 620     -49.951 144.379  12.396  1.00 98.00     0.019 C 
HETATM   18  C18 STQ 4 620     -48.183 148.095  10.308  1.00 98.00     0.015 C 
HETATM   19  C19 STQ 4 620     -46.064 144.259   7.682  1.00 98.00     0.048 C 
HETATM   20  C20 STQ 4 620     -41.945 141.038   7.448  1.00 98.00     0.048 C 
HETATM   21  O3  STQ 4 620     -52.000 148.360  11.912  1.00 98.00    -0.396 OA
ATOM     22  H3  STQ 4 620     -51.734 149.171  12.328  1.00  0.00     0.210 HD
HETATM   23  C21 STQ 4 620     -34.182 128.483   7.012  1.00 98.00    -0.035 C 
HETATM   24  C22 STQ 4 620     -33.364 127.815   5.918  1.00 98.00     0.045 C 
HETATM   25  C23 STQ 4 620     -31.861 127.860   6.142  1.00 98.00     0.142 C 
HETATM   26  C24 STQ 4 620     -31.423 129.228   6.604  1.00 98.00     0.007 C 
HETATM   27  C25 STQ 4 620     -32.211 129.932   7.423  1.00 98.00    -0.077 C 
HETATM   28  C26 STQ 4 620     -33.696 129.913   7.222  1.00 98.00     0.044 C 
HETATM   29  C27 STQ 4 620     -34.421 130.526   8.387  1.00 98.00    -0.016 C 
HETATM   30  C28 STQ 4 620     -35.084 131.643   8.146  1.00 98.00     0.003 C 
HETATM   31  C29 STQ 4 620     -35.846 132.318   9.196  1.00 98.00    -0.062 C 
HETATM   32  C30 STQ 4 620     -36.856 133.085   8.795  1.00 98.00     0.007 C 
HETATM   33  C31 STQ 4 620     -37.706 133.825   9.711  1.00 98.00     0.001 C 
HETATM   34  C32 STQ 4 620     -38.314 134.854   9.150  1.00 98.00     0.007 C 
HETATM   35  C33 STQ 4 620     -39.225 135.758   9.858  1.00 98.00    -0.062 C 
HETATM   36  C34 STQ 4 620     -39.754 136.759   9.148  1.00 98.00     0.007 C 
HETATM   37  C35 STQ 4 620     -40.687 137.719   9.716  1.00 98.00     0.001 C 
HETATM   38  C36 STQ 4 620     -34.127 127.681   8.307  1.00 98.00     0.016 C 
HETATM   39  C37 STQ 4 620     -35.630 128.494   6.540  1.00 98.00     0.016 C 
HETATM   40  C38 STQ 4 620     -31.594 130.713   8.545  1.00 98.00     0.044 C 
HETATM   41  C39 STQ 4 620     -35.508 132.154  10.645  1.00 98.00     0.048 C 
HETATM   42  C40 STQ 4 620     -39.533 135.570  11.310  1.00 98.00     0.048 C 
HETATM   43  O23 STQ 4 620     -31.194 127.517   4.925  1.00 98.00    -0.392 OA
ATOM     44  H23 STQ 4 620     -30.254 127.545   5.064  1.00  0.00     0.210 HD
ENDROOT
TORSDOF 12
