REMARK VINA RESULT:   -11.087      0.000      0.000
REMARK INTER + INTRA:         -13.820
REMARK INTER:                 -11.087
REMARK INTRA:                  -2.733
REMARK UNBOUND:                -2.733
REMARK  0 active torsions:
REMARK  status: ('A' for Active; 'I' for Inactive)
REMARK       I    between atoms: C3_3  and  O3_21 
REMARK       I    between atoms: C6_6  and  C7_7 
REMARK       I    between atoms: C8_8  and  C9_9 
REMARK       I    between atoms: C10_10  and  C11_11 
REMARK       I    between atoms: C12_12  and  C13_13 
REMARK       I    between atoms: C14_14  and  C15_15 
REMARK       I    between atoms: C23_25  and  O23_43 
REMARK       I    between atoms: C26_28  and  C27_29 
REMARK       I    between atoms: C28_30  and  C29_31 
REMARK       I    between atoms: C30_32  and  C31_33 
REMARK       I    between atoms: C32_34  and  C33_35 
REMARK       I    between atoms: C34_36  and  C35_37 
ROOT
HETATM    1  C1  STQ 1 617     -34.391 127.433   6.465  1.00 21.49    -0.018 C 
HETATM    2  C2  STQ 1 617     -33.886 127.090   5.068  1.00 21.49     0.045 C 
HETATM    3  C3  STQ 1 617     -32.585 127.729   4.610  1.00 21.49     0.123 C 
HETATM    4  C4  STQ 1 617     -31.602 127.894   5.747  1.00 21.49     0.066 C 
HETATM    5  C5  STQ 1 617     -32.246 128.643   6.879  1.00 21.49    -0.074 C 
HETATM    6  C6  STQ 1 617     -33.525 128.430   7.220  1.00 21.49    -0.048 C 
HETATM    7  C7  STQ 1 617     -34.116 129.168   8.368  1.00 21.49     0.009 C 
HETATM    8  C8  STQ 1 617     -34.796 130.301   8.194  1.00 21.49     0.007 C 
HETATM    9  C9  STQ 1 617     -35.398 131.069   9.295  1.00 21.49    -0.062 C 
HETATM   10  C10 STQ 1 617     -36.140 132.122   8.938  1.00 21.49     0.007 C 
HETATM   11  C11 STQ 1 617     -36.845 133.032   9.831  1.00 21.49     0.001 C 
HETATM   12  C12 STQ 1 617     -37.503 133.974   9.172  1.00 21.49     0.007 C 
HETATM   13  C13 STQ 1 617     -38.337 135.022   9.772  1.00 21.49    -0.062 C 
HETATM   14  C14 STQ 1 617     -39.084 135.737   8.927  1.00 21.49     0.007 C 
HETATM   15  C15 STQ 1 617     -39.993 136.783   9.368  1.00 21.49     0.001 C 
HETATM   16  C16 STQ 1 617     -34.522 126.111   7.219  1.00 21.49     0.020 C 
HETATM   17  C17 STQ 1 617     -35.774 128.048   6.314  1.00 21.49     0.020 C 
HETATM   18  C18 STQ 1 617     -31.369 129.604   7.629  1.00 21.49     0.044 C 
HETATM   19  C19 STQ 1 617     -35.165 130.695  10.725  1.00 21.49     0.048 C 
HETATM   20  C20 STQ 1 617     -38.369 135.267  11.249  1.00 21.49     0.048 C 
HETATM   21  O3  STQ 1 617     -31.989 126.870   3.634  1.00 21.49    -0.395 OA
ATOM     22  H3  STQ 1 617     -31.176 127.269   3.348  1.00  0.00     0.210 HD
HETATM   23  C21 STQ 1 617     -49.656 144.999   9.206  1.00 21.49    -0.035 C 
HETATM   24  C22 STQ 1 617     -50.556 145.742  10.188  1.00 21.49     0.045 C 
HETATM   25  C23 STQ 1 617     -50.090 147.132  10.609  1.00 21.49     0.142 C 
HETATM   26  C24 STQ 1 617     -48.586 147.290  10.622  1.00 21.49     0.007 C 
HETATM   27  C25 STQ 1 617     -47.781 146.484   9.920  1.00 21.49    -0.077 C 
HETATM   28  C26 STQ 1 617     -48.195 145.065   9.652  1.00 21.49     0.044 C 
HETATM   29  C27 STQ 1 617     -47.329 144.398   8.610  1.00 21.49    -0.016 C 
HETATM   30  C28 STQ 1 617     -46.509 143.436   9.007  1.00 21.49     0.003 C 
HETATM   31  C29 STQ 1 617     -45.654 142.716   8.057  1.00 21.49    -0.062 C 
HETATM   32  C30 STQ 1 617     -45.090 141.602   8.514  1.00 21.49     0.007 C 
HETATM   33  C31 STQ 1 617     -44.231 140.736   7.727  1.00 21.49     0.001 C 
HETATM   34  C32 STQ 1 617     -43.460 139.956   8.466  1.00 21.49     0.007 C 
HETATM   35  C33 STQ 1 617     -42.506 138.976   7.941  1.00 21.49    -0.062 C 
HETATM   36  C34 STQ 1 617     -41.765 138.317   8.838  1.00 21.49     0.007 C 
HETATM   37  C35 STQ 1 617     -40.807 137.297   8.454  1.00 21.49     0.001 C 
HETATM   38  C36 STQ 1 617     -49.834 145.540   7.790  1.00 21.49     0.016 C 
HETATM   39  C37 STQ 1 617     -50.101 143.543   9.199  1.00 21.49     0.016 C 
HETATM   40  C38 STQ 1 617     -46.477 147.022   9.416  1.00 21.49     0.044 C 
HETATM   41  C39 STQ 1 617     -45.441 143.198   6.655  1.00 21.49     0.048 C 
HETATM   42  C40 STQ 1 617     -42.390 138.728   6.471  1.00 21.49     0.048 C 
HETATM   43  O23 STQ 1 617     -50.590 147.393  11.922  1.00 21.49    -0.392 OA
ATOM     44  H23 STQ 1 617     -50.300 148.259  12.184  1.00  0.00     0.210 HD
ENDROOT
TORSDOF 12
