REMARK VINA RESULT:    -7.074      1.573      1.917
REMARK INTER + INTRA:          -9.886
REMARK INTER:                  -9.878
REMARK INTRA:                  -0.008
REMARK UNBOUND:                -2.812
REMARK  0 active torsions:
REMARK  status: ('A' for Active; 'I' for Inactive)
REMARK       I    between atoms: C3_3  and  O3_21 
REMARK       I    between atoms: C6_6  and  C7_7 
REMARK       I    between atoms: C8_8  and  C9_9 
REMARK       I    between atoms: C10_10  and  C11_11 
REMARK       I    between atoms: C12_12  and  C13_13 
REMARK       I    between atoms: C14_14  and  C15_15 
REMARK       I    between atoms: C23_25  and  O23_43 
REMARK       I    between atoms: C26_28  and  C27_29 
REMARK       I    between atoms: C28_30  and  C29_31 
REMARK       I    between atoms: C30_32  and  C31_33 
REMARK       I    between atoms: C32_34  and  C33_35 
REMARK       I    between atoms: C34_36  and  C35_37 
ROOT
HETATM    1  C1  STQ J9620     -34.265 128.136   6.757  1.00 17.81    -0.018 C 
HETATM    2  C2  STQ J9620     -33.301 127.427   5.783  1.00 18.03     0.045 C 
HETATM    3  C3  STQ J9620     -32.102 128.245   5.310  1.00 19.41     0.123 C 
HETATM    4  C4  STQ J9620     -31.400 128.969   6.457  1.00 18.47     0.066 C 
HETATM    5  C5  STQ J9620     -32.294 129.618   7.461  1.00 18.29    -0.074 C 
HETATM    6  C6  STQ J9620     -33.627 129.262   7.629  1.00 18.07    -0.048 C 
HETATM    7  C7  STQ J9620     -34.487 129.931   8.632  1.00 17.25     0.009 C 
HETATM    8  C8  STQ J9620     -35.088 131.129   8.507  1.00 17.01     0.007 C 
HETATM    9  C9  STQ J9620     -35.843 131.878   9.517  1.00 17.86    -0.062 C 
HETATM   10  C10 STQ J9620     -36.452 133.020   9.130  1.00 14.07     0.007 C 
HETATM   11  C11 STQ J9620     -37.252 133.889   9.944  1.00 13.24     0.001 C 
HETATM   12  C12 STQ J9620     -37.934 134.882   9.360  1.00 13.26     0.007 C 
HETATM   13  C13 STQ J9620     -38.861 135.832   9.970  1.00 14.95    -0.062 C 
HETATM   14  C14 STQ J9620     -39.515 136.676   9.142  1.00 15.84     0.007 C 
HETATM   15  C15 STQ J9620     -40.537 137.642   9.481  1.00 15.11     0.001 C 
HETATM   16  C16 STQ J9620     -34.775 126.989   7.631  1.00 16.04     0.020 C 
HETATM   17  C17 STQ J9620     -35.472 128.683   5.983  1.00 17.79     0.020 C 
HETATM   18  C18 STQ J9620     -31.478 130.646   8.165  1.00 17.18     0.044 C 
HETATM   19  C19 STQ J9620     -35.928 131.294  10.906  1.00 17.70     0.048 C 
HETATM   20  C20 STQ J9620     -39.080 135.752  11.460  1.00 11.96     0.048 C 
HETATM   21  O3  STQ J9620     -31.181 127.425   4.602  1.00 19.31    -0.395 OA
ATOM     22  H3  STQ J9620     -30.435 127.934   4.308  1.00  0.00     0.210 HD
HETATM   23  C21 STQ J9620     -50.881 145.427   9.414  1.00 34.78    -0.035 C 
HETATM   24  C22 STQ J9620     -51.992 146.288  10.061  1.00 34.65     0.045 C 
HETATM   25  C23 STQ J9620     -51.747 147.800  10.102  1.00 34.21     0.142 C 
HETATM   26  C24 STQ J9620     -50.277 148.158  10.321  1.00 34.68     0.007 C 
HETATM   27  C25 STQ J9620     -49.261 147.276  10.205  1.00 34.33    -0.077 C 
HETATM   28  C26 STQ J9620     -49.416 145.801   9.853  1.00 32.99     0.044 C 
HETATM   29  C27 STQ J9620     -48.269 145.382   8.922  1.00 29.80    -0.016 C 
HETATM   30  C28 STQ J9620     -47.369 144.395   9.200  1.00 25.87     0.003 C 
HETATM   31  C29 STQ J9620     -46.403 143.742   8.283  1.00 23.86    -0.062 C 
HETATM   32  C30 STQ J9620     -45.606 142.772   8.782  1.00 20.58     0.007 C 
HETATM   33  C31 STQ J9620     -44.633 141.980   8.063  1.00 18.13     0.001 C 
HETATM   34  C32 STQ J9620     -43.863 141.046   8.671  1.00 14.57     0.007 C 
HETATM   35  C33 STQ J9620     -42.826 140.183   8.076  1.00 16.93    -0.062 C 
HETATM   36  C34 STQ J9620     -42.161 139.335   8.892  1.00 15.59     0.007 C 
HETATM   37  C35 STQ J9620     -41.122 138.403   8.543  1.00 13.74     0.001 C 
HETATM   38  C36 STQ J9620     -51.040 145.541   7.870  1.00 32.58     0.016 C 
HETATM   39  C37 STQ J9620     -51.175 143.963   9.795  1.00 34.07     0.016 C 
HETATM   40  C38 STQ J9620     -47.936 147.905  10.486  1.00 35.34     0.044 C 
HETATM   41  C39 STQ J9620     -46.371 144.197   6.846  1.00 22.74     0.048 C 
HETATM   42  C40 STQ J9620     -42.563 140.312   6.599  1.00 15.29     0.048 C 
HETATM   43  O23 STQ J9620     -52.561 148.407  11.098  1.00 33.03    -0.392 OA
ATOM     44  H23 STQ J9620     -53.475 148.184  10.962  1.00  0.00     0.210 HD
ENDROOT
TORSDOF 12
