REMARK VINA RESULT:    -8.792      1.694     16.836
REMARK INTER + INTRA:         -11.329
REMARK INTER:                  -9.333
REMARK INTRA:                  -1.996
REMARK UNBOUND:                -2.536
REMARK  0 active torsions:
REMARK  status: ('A' for Active; 'I' for Inactive)
REMARK       I    between atoms: C3_3  and  O3_21 
REMARK       I    between atoms: C6_6  and  C7_7 
REMARK       I    between atoms: C8_8  and  C9_9 
REMARK       I    between atoms: C10_10  and  C11_11 
REMARK       I    between atoms: C12_12  and  C13_13 
REMARK       I    between atoms: C14_14  and  C15_15 
REMARK       I    between atoms: C23_25  and  O23_43 
REMARK       I    between atoms: C26_28  and  C27_29 
REMARK       I    between atoms: C28_30  and  C29_31 
REMARK       I    between atoms: C30_32  and  C31_33 
REMARK       I    between atoms: C32_34  and  C33_35 
REMARK       I    between atoms: C34_36  and  C35_37 
ROOT
HETATM    1  C1  STQ 6 624     -47.800 146.092  13.033  1.00 25.46    -0.018 C 
HETATM    2  C2  STQ 6 624     -48.402 146.438  14.392  1.00 25.46     0.045 C 
HETATM    3  C3  STQ 6 624     -47.475 147.059  15.423  1.00 25.46     0.123 C 
HETATM    4  C4  STQ 6 624     -46.531 148.032  14.754  1.00 25.46     0.066 C 
HETATM    5  C5  STQ 6 624     -45.732 147.261  13.746  1.00 25.46    -0.074 C 
HETATM    6  C6  STQ 6 624     -46.343 146.479  12.849  1.00 25.46    -0.048 C 
HETATM    7  C7  STQ 6 624     -45.622 146.010  11.631  1.00 25.46     0.009 C 
HETATM    8  C8  STQ 6 624     -44.861 144.912  11.637  1.00 25.46     0.007 C 
HETATM    9  C9  STQ 6 624     -44.124 144.384  10.469  1.00 25.46    -0.062 C 
HETATM   10  C10 STQ 6 624     -43.440 143.243  10.642  1.00 25.46     0.007 C 
HETATM   11  C11 STQ 6 624     -42.656 142.513   9.651  1.00 25.46     0.001 C 
HETATM   12  C12 STQ 6 624     -42.001 141.457  10.128  1.00 25.46     0.007 C 
HETATM   13  C13 STQ 6 624     -41.175 140.522   9.340  1.00 25.46    -0.062 C 
HETATM   14  C14 STQ 6 624     -40.795 139.379   9.935  1.00 25.46     0.007 C 
HETATM   15  C15 STQ 6 624     -40.028 138.355   9.235  1.00 25.46     0.001 C 
HETATM   16  C16 STQ 6 624     -48.689 146.725  11.968  1.00 25.46     0.020 C 
HETATM   17  C17 STQ 6 624     -47.848 144.585  12.889  1.00 25.46     0.020 C 
HETATM   18  C18 STQ 6 624     -44.445 147.961  13.449  1.00 25.46     0.044 C 
HETATM   19  C19 STQ 6 624     -44.140 145.090   9.150  1.00 25.46     0.048 C 
HETATM   20  C20 STQ 6 624     -40.790 140.825   7.924  1.00 25.46     0.048 C 
HETATM   21  O3  STQ 6 624     -48.272 147.761  16.381  1.00 25.46    -0.395 OA
ATOM     22  H3  STQ 6 624     -48.864 147.149  16.802  1.00  0.00     0.210 HD
HETATM   23  C21 STQ 6 624     -34.485 126.932   6.445  1.00 25.46    -0.035 C 
HETATM   24  C22 STQ 6 624     -33.914 126.167   5.255  1.00 25.46     0.045 C 
HETATM   25  C23 STQ 6 624     -32.532 126.622   4.801  1.00 25.46     0.142 C 
HETATM   26  C24 STQ 6 624     -32.404 128.121   4.817  1.00 25.46     0.007 C 
HETATM   27  C25 STQ 6 624     -33.047 128.858   5.726  1.00 25.46    -0.077 C 
HETATM   28  C26 STQ 6 624     -34.408 128.446   6.218  1.00 25.46     0.044 C 
HETATM   29  C27 STQ 6 624     -34.788 129.197   7.474  1.00 25.46    -0.016 C 
HETATM   30  C28 STQ 6 624     -35.772 130.085   7.377  1.00 25.46     0.003 C 
HETATM   31  C29 STQ 6 624     -36.255 130.895   8.505  1.00 25.46    -0.062 C 
HETATM   32  C30 STQ 6 624     -37.119 131.873   8.215  1.00 25.46     0.007 C 
HETATM   33  C31 STQ 6 624     -37.721 132.768   9.190  1.00 25.46     0.001 C 
HETATM   34  C32 STQ 6 624     -38.047 133.987   8.778  1.00 25.46     0.007 C 
HETATM   35  C33 STQ 6 624     -38.687 134.979   9.656  1.00 25.46    -0.062 C 
HETATM   36  C34 STQ 6 624     -39.115 136.123   9.101  1.00 25.46     0.007 C 
HETATM   37  C35 STQ 6 624     -39.816 137.179   9.823  1.00 25.46     0.001 C 
HETATM   38  C36 STQ 6 624     -33.773 126.528   7.729  1.00 25.46     0.016 C 
HETATM   39  C37 STQ 6 624     -35.945 126.527   6.588  1.00 25.46     0.016 C 
HETATM   40  C38 STQ 6 624     -32.375 130.092   6.242  1.00 25.46     0.044 C 
HETATM   41  C39 STQ 6 624     -35.792 130.639   9.908  1.00 25.46     0.048 C 
HETATM   42  C40 STQ 6 624     -38.850 134.701  11.120  1.00 25.46     0.048 C 
HETATM   43  O23 STQ 6 624     -32.289 126.139   3.475  1.00 25.46    -0.392 OA
ATOM     44  H23 STQ 6 624     -31.428 126.422   3.192  1.00  0.00     0.210 HD
ENDROOT
TORSDOF 12
