REMARK VINA RESULT:   -10.814      0.000      0.000
REMARK INTER + INTRA:         -12.998
REMARK INTER:                 -10.814
REMARK INTRA:                  -2.184
REMARK UNBOUND:                -2.184
REMARK  0 active torsions:
REMARK  status: ('A' for Active; 'I' for Inactive)
REMARK       I    between atoms: C3_3  and  O3_21 
REMARK       I    between atoms: C6_6  and  C7_7 
REMARK       I    between atoms: C8_8  and  C9_9 
REMARK       I    between atoms: C10_10  and  C11_11 
REMARK       I    between atoms: C12_12  and  C13_13 
REMARK       I    between atoms: C14_14  and  C15_15 
REMARK       I    between atoms: C23_25  and  O23_43 
REMARK       I    between atoms: C26_28  and  C27_29 
REMARK       I    between atoms: C28_30  and  C29_31 
REMARK       I    between atoms: C30_32  and  C31_33 
REMARK       I    between atoms: C32_34  and  C33_35 
REMARK       I    between atoms: C34_36  and  C35_37 
ROOT
HETATM    1  C1  STQ 3 316     -34.304 127.418   6.776  1.00 78.71    -0.018 C 
HETATM    2  C2  STQ 3 316     -33.681 126.946   5.461  1.00 77.73     0.045 C 
HETATM    3  C3  STQ 3 316     -32.498 127.761   4.951  1.00 76.79     0.123 C 
HETATM    4  C4  STQ 3 316     -31.566 128.089   6.101  1.00 76.86     0.066 C 
HETATM    5  C5  STQ 3 316     -32.332 128.918   7.093  1.00 77.66    -0.074 C 
HETATM    6  C6  STQ 3 316     -33.575 128.574   7.438  1.00 78.84    -0.048 C 
HETATM    7  C7  STQ 3 316     -34.286 129.346   8.483  1.00 78.35     0.009 C 
HETATM    8  C8  STQ 3 316     -34.852 130.511   8.170  1.00 77.95     0.007 C 
HETATM    9  C9  STQ 3 316     -35.584 131.322   9.159  1.00 78.35    -0.062 C 
HETATM   10  C10 STQ 3 316     -36.212 132.423   8.723  1.00 77.38     0.007 C 
HETATM   11  C11 STQ 3 316     -36.989 133.305   9.586  1.00 77.06     0.001 C 
HETATM   12  C12 STQ 3 316     -37.765 134.183   8.959  1.00 77.59     0.007 C 
HETATM   13  C13 STQ 3 316     -38.649 135.146   9.643  1.00 77.36    -0.062 C 
HETATM   14  C14 STQ 3 316     -39.433 135.917   8.876  1.00 75.86     0.007 C 
HETATM   15  C15 STQ 3 316     -40.369 136.890   9.423  1.00 74.54     0.001 C 
HETATM   16  C16 STQ 3 316     -34.331 126.246   7.751  1.00 78.56     0.020 C 
HETATM   17  C17 STQ 3 316     -35.736 127.865   6.496  1.00 78.60     0.020 C 
HETATM   18  C18 STQ 3 316     -31.580 129.984   7.837  1.00 77.80     0.044 C 
HETATM   19  C19 STQ 3 316     -35.630 130.919  10.603  1.00 79.41     0.048 C 
HETATM   20  C20 STQ 3 316     -38.676 135.248  11.140  1.00 77.68     0.048 C 
HETATM   21  O3  STQ 3 316     -31.780 127.013   3.964  1.00 76.23    -0.395 OA
ATOM     22  H3  STQ 3 316     -31.043 127.521   3.646  1.00  0.00     0.210 HD
HETATM   23  C21 STQ 3 316     -50.040 145.280   9.266  1.00 96.96    -0.035 C 
HETATM   24  C22 STQ 3 316     -51.002 146.205   9.999  1.00 97.38     0.045 C 
HETATM   25  C23 STQ 3 316     -50.703 147.675   9.741  1.00 98.02     0.142 C 
HETATM   26  C24 STQ 3 316     -49.228 147.969   9.884  1.00 97.48     0.007 C 
HETATM   27  C25 STQ 3 316     -48.279 147.045   9.667  1.00 96.88    -0.077 C 
HETATM   28  C26 STQ 3 316     -48.593 145.572   9.664  1.00 96.07     0.044 C 
HETATM   29  C27 STQ 3 316     -47.657 144.841   8.727  1.00 93.06    -0.016 C 
HETATM   30  C28 STQ 3 316     -46.801 143.964   9.240  1.00 90.59     0.003 C 
HETATM   31  C29 STQ 3 316     -45.864 143.206   8.390  1.00 87.05    -0.062 C 
HETATM   32  C30 STQ 3 316     -45.143 142.231   8.957  1.00 83.33     0.007 C 
HETATM   33  C31 STQ 3 316     -44.197 141.412   8.208  1.00 80.71     0.001 C 
HETATM   34  C32 STQ 3 316     -43.527 140.498   8.901  1.00 78.86     0.007 C 
HETATM   35  C33 STQ 3 316     -42.541 139.581   8.302  1.00 77.40    -0.062 C 
HETATM   36  C34 STQ 3 316     -41.991 138.646   9.089  1.00 76.14     0.007 C 
HETATM   37  C35 STQ 3 316     -41.023 137.682   8.580  1.00 74.61     0.001 C 
HETATM   38  C36 STQ 3 316     -50.220 145.422   7.758  1.00 96.87     0.016 C 
HETATM   39  C37 STQ 3 316     -50.372 143.844   9.650  1.00 97.09     0.016 C 
HETATM   40  C38 STQ 3 316     -46.867 147.496   9.437  1.00 95.39     0.044 C 
HETATM   41  C39 STQ 3 316     -45.728 143.515   6.928  1.00 86.53     0.048 C 
HETATM   42  C40 STQ 3 316     -42.164 139.694   6.855  1.00 77.09     0.048 C 
HETATM   43  O23 STQ 3 316     -51.426 148.474  10.684  1.00 99.18    -0.392 OA
ATOM     44  H23 STQ 3 316     -52.353 148.288  10.594  1.00  0.00     0.210 HD
ENDROOT
TORSDOF 12
