REMARK VINA RESULT:    -8.832      1.654      2.369
REMARK INTER + INTRA:          -9.006
REMARK INTER:                  -7.140
REMARK INTRA:                  -1.865
REMARK UNBOUND:                -0.174
REMARK  0 active torsions:
REMARK  status: ('A' for Active; 'I' for Inactive)
REMARK       I    between atoms: C3_3  and  O3_21 
REMARK       I    between atoms: C6_6  and  C7_7 
REMARK       I    between atoms: C8_8  and  C9_9 
REMARK       I    between atoms: C10_10  and  C11_11 
REMARK       I    between atoms: C12_12  and  C13_13 
REMARK       I    between atoms: C14_14  and  C15_15 
REMARK       I    between atoms: C23_25  and  O23_43 
REMARK       I    between atoms: C26_28  and  C27_29 
REMARK       I    between atoms: C28_30  and  C29_31 
REMARK       I    between atoms: C30_32  and  C31_33 
REMARK       I    between atoms: C32_34  and  C33_35 
REMARK       I    between atoms: C34_36  and  C35_37 
ROOT
HETATM    1  C1  STQ 2 615     -34.832 127.645   5.412  1.00 79.94    -0.018 C 
HETATM    2  C2  STQ 2 615     -33.589 127.171   4.662  1.00 79.60     0.045 C 
HETATM    3  C3  STQ 2 615     -32.310 127.945   4.946  1.00 80.06     0.123 C 
HETATM    4  C4  STQ 2 615     -32.110 128.073   6.443  1.00 79.91     0.066 C 
HETATM    5  C5  STQ 2 615     -33.301 128.772   7.041  1.00 78.96    -0.074 C 
HETATM    6  C6  STQ 2 615     -34.544 128.496   6.635  1.00 78.99    -0.048 C 
HETATM    7  C7  STQ 2 615     -35.685 129.035   7.410  1.00 78.77     0.009 C 
HETATM    8  C8  STQ 2 615     -36.088 130.296   7.244  1.00 79.10     0.007 C 
HETATM    9  C9  STQ 2 615     -37.220 130.857   8.005  1.00 80.39    -0.062 C 
HETATM   10  C10 STQ 2 615     -37.552 132.142   7.805  1.00 81.39     0.007 C 
HETATM   11  C11 STQ 2 615     -38.656 132.798   8.501  1.00 81.92     0.001 C 
HETATM   12  C12 STQ 2 615     -38.935 134.051   8.154  1.00 82.76     0.007 C 
HETATM   13  C13 STQ 2 615     -40.032 134.826   8.762  1.00 83.90    -0.062 C 
HETATM   14  C14 STQ 2 615     -40.437 135.941   8.137  1.00 84.98     0.007 C 
HETATM   15  C15 STQ 2 615     -41.530 136.773   8.632  1.00 86.34     0.001 C 
HETATM   16  C16 STQ 2 615     -35.617 126.413   5.844  1.00 79.93     0.020 C 
HETATM   17  C17 STQ 2 615     -35.684 128.478   4.461  1.00 80.89     0.020 C 
HETATM   18  C18 STQ 2 615     -33.054 129.413   8.375  1.00 77.35     0.044 C 
HETATM   19  C19 STQ 2 615     -37.974 130.008   8.986  1.00 80.43     0.048 C 
HETATM   20  C20 STQ 2 615     -40.676 134.377  10.041  1.00 83.80     0.048 C 
HETATM   21  O3  STQ 2 615     -31.197 127.239   4.384  1.00 80.93    -0.395 OA
ATOM     22  H3  STQ 2 615     -30.398 127.721   4.561  1.00  0.00     0.210 HD
HETATM   23  C21 STQ 2 615     -50.616 145.706   7.849  1.00 86.56    -0.035 C 
HETATM   24  C22 STQ 2 615     -51.829 146.433   8.409  1.00 85.76     0.045 C 
HETATM   25  C23 STQ 2 615     -51.537 147.900   8.690  1.00 84.08     0.142 C 
HETATM   26  C24 STQ 2 615     -50.238 148.062   9.444  1.00 85.20     0.007 C 
HETATM   27  C25 STQ 2 615     -49.255 147.148   9.416  1.00 86.87    -0.077 C 
HETATM   28  C26 STQ 2 615     -49.443 145.777   8.825  1.00 87.65     0.044 C 
HETATM   29  C27 STQ 2 615     -48.183 145.320   8.119  1.00 88.79    -0.016 C 
HETATM   30  C28 STQ 2 615     -47.567 144.228   8.567  1.00 89.77     0.003 C 
HETATM   31  C29 STQ 2 615     -46.346 143.698   7.932  1.00 89.92    -0.062 C 
HETATM   32  C30 STQ 2 615     -45.886 142.510   8.348  1.00 89.40     0.007 C 
HETATM   33  C31 STQ 2 615     -44.702 141.871   7.786  1.00 87.93     0.001 C 
HETATM   34  C32 STQ 2 615     -44.390 140.673   8.270  1.00 87.59     0.007 C 
HETATM   35  C33 STQ 2 615     -43.238 139.888   7.792  1.00 88.80    -0.062 C 
HETATM   36  C34 STQ 2 615     -42.964 138.715   8.385  1.00 88.99     0.007 C 
HETATM   37  C35 STQ 2 615     -41.858 137.868   7.948  1.00 88.02     0.001 C 
HETATM   38  C36 STQ 2 615     -50.224 146.297   6.499  1.00 86.59     0.016 C 
HETATM   39  C37 STQ 2 615     -50.988 144.240   7.647  1.00 84.95     0.016 C 
HETATM   40  C38 STQ 2 615     -47.927 147.497  10.016  1.00 87.30     0.044 C 
HETATM   41  C39 STQ 2 615     -45.644 144.460   6.846  1.00 89.99     0.048 C 
HETATM   42  C40 STQ 2 615     -42.400 140.390   6.655  1.00 89.61     0.048 C 
HETATM   43  O23 STQ 2 615     -52.600 148.450   9.477  1.00 82.24    -0.392 OA
ATOM     44  H23 STQ 2 615     -53.417 148.348   9.003  1.00  0.00     0.210 HD
ENDROOT
TORSDOF 12
