REMARK VINA RESULT:    -7.235      0.000      0.000
REMARK INTER + INTRA:         -11.291
REMARK INTER:                  -7.235
REMARK INTRA:                  -4.057
REMARK UNBOUND:                -4.057
REMARK  0 active torsions:
REMARK  status: ('A' for Active; 'I' for Inactive)
REMARK       I    between atoms: C3_3  and  O3_21 
REMARK       I    between atoms: C6_6  and  C7_7 
REMARK       I    between atoms: C8_8  and  C9_9 
REMARK       I    between atoms: C10_10  and  C11_11 
REMARK       I    between atoms: C12_12  and  C13_13 
REMARK       I    between atoms: C14_14  and  C15_15 
REMARK       I    between atoms: C23_25  and  O23_43 
REMARK       I    between atoms: C26_28  and  C27_29 
REMARK       I    between atoms: C28_30  and  C29_31 
REMARK       I    between atoms: C30_32  and  C31_33 
REMARK       I    between atoms: C32_34  and  C33_35 
REMARK       I    between atoms: C34_36  and  C35_37 
ROOT
HETATM    1  C1  STQ 1 618     -34.475 126.934   5.848  1.00 19.63    -0.018 C 
HETATM    2  C2  STQ 1 618     -33.943 126.254   4.588  1.00 19.63     0.045 C 
HETATM    3  C3  STQ 1 618     -32.707 126.857   3.940  1.00 19.63     0.123 C 
HETATM    4  C4  STQ 1 618     -31.746 127.349   4.999  1.00 19.63     0.066 C 
HETATM    5  C5  STQ 1 618     -32.476 128.400   5.777  1.00 19.63    -0.074 C 
HETATM    6  C6  STQ 1 618     -33.653 128.113   6.339  1.00 19.63    -0.048 C 
HETATM    7  C7  STQ 1 618     -34.186 128.899   7.481  1.00 19.63     0.009 C 
HETATM    8  C8  STQ 1 618     -34.785 130.080   7.319  1.00 19.63     0.007 C 
HETATM    9  C9  STQ 1 618     -35.335 130.846   8.453  1.00 19.63    -0.062 C 
HETATM   10  C10 STQ 1 618     -36.210 131.821   8.185  1.00 19.63     0.007 C 
HETATM   11  C11 STQ 1 618     -36.858 132.648   9.199  1.00 19.63     0.001 C 
HETATM   12  C12 STQ 1 618     -37.791 133.464   8.728  1.00 19.63     0.007 C 
HETATM   13  C13 STQ 1 618     -38.631 134.391   9.503  1.00 19.63    -0.062 C 
HETATM   14  C14 STQ 1 618     -39.458 135.172   8.797  1.00 19.63     0.007 C 
HETATM   15  C15 STQ 1 618     -40.389 136.114   9.402  1.00 19.63     0.001 C 
HETATM   16  C16 STQ 1 618     -34.593 125.863   6.926  1.00 19.63     0.020 C 
HETATM   17  C17 STQ 1 618     -35.863 127.461   5.537  1.00 19.63     0.020 C 
HETATM   18  C18 STQ 1 618     -31.412 129.184   6.480  1.00 19.63     0.044 C 
HETATM   19  C19 STQ 1 618     -34.931 130.542   9.863  1.00 19.63     0.048 C 
HETATM   20  C20 STQ 1 618     -38.579 134.443  10.998  1.00 19.63     0.048 C 
HETATM   21  O3  STQ 1 618     -32.064 125.850   3.154  1.00 19.63    -0.395 OA
ATOM     22  H3  STQ 1 618     -32.668 125.541   2.489  1.00  0.00     0.210 HD
HETATM   23  C21 STQ 1 618     -49.731 144.999  10.184  1.00 19.63    -0.035 C 
HETATM   24  C22 STQ 1 618     -50.615 145.708  11.204  1.00 19.63     0.045 C 
HETATM   25  C23 STQ 1 618     -49.924 146.859  11.921  1.00 19.63     0.142 C 
HETATM   26  C24 STQ 1 618     -48.564 146.448  12.407  1.00 19.63     0.007 C 
HETATM   27  C25 STQ 1 618     -47.801 145.603  11.717  1.00 19.63    -0.077 C 
HETATM   28  C26 STQ 1 618     -48.402 144.556  10.811  1.00 19.63     0.044 C 
HETATM   29  C27 STQ 1 618     -47.400 144.127   9.758  1.00 19.63    -0.016 C 
HETATM   30  C28 STQ 1 618     -46.948 142.881   9.830  1.00 19.63     0.003 C 
HETATM   31  C29 STQ 1 618     -45.969 142.302   8.897  1.00 19.63    -0.062 C 
HETATM   32  C30 STQ 1 618     -45.573 141.048   9.138  1.00 19.63     0.007 C 
HETATM   33  C31 STQ 1 618     -44.615 140.312   8.325  1.00 19.63     0.001 C 
HETATM   34  C32 STQ 1 618     -43.836 139.464   8.984  1.00 19.63     0.007 C 
HETATM   35  C33 STQ 1 618     -42.816 138.612   8.356  1.00 19.63    -0.062 C 
HETATM   36  C34 STQ 1 618     -42.196 137.712   9.126  1.00 19.63     0.007 C 
HETATM   37  C35 STQ 1 618     -41.199 136.792   8.596  1.00 19.63     0.001 C 
HETATM   38  C36 STQ 1 618     -49.517 145.900   8.977  1.00 19.63     0.016 C 
HETATM   39  C37 STQ 1 618     -50.485 143.770   9.699  1.00 19.63     0.016 C 
HETATM   40  C38 STQ 1 618     -46.317 145.712  11.887  1.00 19.63     0.044 C 
HETATM   41  C39 STQ 1 618     -45.433 143.086   7.739  1.00 19.63     0.048 C 
HETATM   42  C40 STQ 1 618     -42.478 138.757   6.907  1.00 19.63     0.048 C 
HETATM   43  O23 STQ 1 618     -50.701 147.273  13.049  1.00 19.63    -0.392 OA
ATOM     44  H23 STQ 1 618     -50.270 147.991  13.498  1.00  0.00     0.210 HD
ENDROOT
TORSDOF 12
