REMARK VINA RESULT:    -7.832      1.342     17.263
REMARK INTER + INTRA:          -8.316
REMARK INTER:                  -7.893
REMARK INTRA:                  -0.423
REMARK UNBOUND:                -0.484
REMARK  0 active torsions:
REMARK  status: ('A' for Active; 'I' for Inactive)
REMARK       I    between atoms: C3_3  and  O3_21 
REMARK       I    between atoms: C6_6  and  C7_7 
REMARK       I    between atoms: C8_8  and  C9_9 
REMARK       I    between atoms: C10_10  and  C11_11 
REMARK       I    between atoms: C12_12  and  C13_13 
REMARK       I    between atoms: C14_14  and  C15_15 
REMARK       I    between atoms: C23_25  and  O23_43 
REMARK       I    between atoms: C26_28  and  C27_29 
REMARK       I    between atoms: C28_30  and  C29_31 
REMARK       I    between atoms: C30_32  and  C31_33 
REMARK       I    between atoms: C32_34  and  C33_35 
REMARK       I    between atoms: C34_36  and  C35_37 
ROOT
HETATM    1  C1  STQ I8621     -50.210 146.319  12.148  1.00 22.25    -0.018 C 
HETATM    2  C2  STQ I8621     -51.133 146.729  13.306  1.00 20.45     0.045 C 
HETATM    3  C3  STQ I8621     -50.630 147.681  14.387  1.00 22.17     0.123 C 
HETATM    4  C4  STQ I8621     -49.322 148.421  14.069  1.00 20.30     0.066 C 
HETATM    5  C5  STQ I8621     -48.405 147.920  13.004  1.00 20.75    -0.074 C 
HETATM    6  C6  STQ I8621     -48.779 146.953  12.094  1.00 21.23    -0.048 C 
HETATM    7  C7  STQ I8621     -47.919 146.427  11.011  1.00 18.62     0.009 C 
HETATM    8  C8  STQ I8621     -46.959 145.496  11.175  1.00 19.71     0.007 C 
HETATM    9  C9  STQ I8621     -46.054 144.934  10.168  1.00 18.91    -0.062 C 
HETATM   10  C10 STQ I8621     -45.260 143.908  10.544  1.00 16.97     0.007 C 
HETATM   11  C11 STQ I8621     -44.382 143.164   9.692  1.00 17.11     0.001 C 
HETATM   12  C12 STQ I8621     -43.703 142.092  10.128  1.00 17.32     0.007 C 
HETATM   13  C13 STQ I8621     -42.851 141.203   9.329  1.00 18.45    -0.062 C 
HETATM   14  C14 STQ I8621     -42.288 140.143   9.947  1.00 18.02     0.007 C 
HETATM   15  C15 STQ I8621     -41.483 139.124   9.345  1.00 17.18     0.001 C 
HETATM   16  C16 STQ I8621     -51.024 146.735  10.906  1.00 20.14     0.020 C 
HETATM   17  C17 STQ I8621     -50.124 144.768  12.169  1.00 21.86     0.020 C 
HETATM   18  C18 STQ I8621     -47.112 148.653  13.095  1.00 20.13     0.044 C 
HETATM   19  C19 STQ I8621     -46.133 145.478   8.770  1.00 18.10     0.048 C 
HETATM   20  C20 STQ I8621     -42.698 141.506   7.861  1.00 17.04     0.048 C 
HETATM   21  O3  STQ I8621     -51.652 148.606  14.740  1.00 24.42    -0.395 OA
ATOM     22  H3  STQ I8621     -51.339 149.199  15.412  1.00  0.00     0.210 HD
HETATM   23  C21 STQ I8621     -34.202 128.567   7.152  1.00 21.73    -0.035 C 
HETATM   24  C22 STQ I8621     -33.295 127.587   6.378  1.00 20.45     0.045 C 
HETATM   25  C23 STQ I8621     -31.791 127.864   6.434  1.00 19.75     0.142 C 
HETATM   26  C24 STQ I8621     -31.425 129.346   6.557  1.00 19.93     0.007 C 
HETATM   27  C25 STQ I8621     -32.327 130.315   6.839  1.00 21.71    -0.077 C 
HETATM   28  C26 STQ I8621     -33.821 130.084   7.068  1.00 21.39     0.044 C 
HETATM   29  C27 STQ I8621     -34.379 130.935   8.198  1.00 22.08    -0.016 C 
HETATM   30  C28 STQ I8621     -35.411 131.811   8.056  1.00 23.05     0.003 C 
HETATM   31  C29 STQ I8621     -36.095 132.546   9.132  1.00 22.55    -0.062 C 
HETATM   32  C30 STQ I8621     -37.075 133.415   8.802  1.00 20.56     0.007 C 
HETATM   33  C31 STQ I8621     -37.854 134.205   9.724  1.00 20.09     0.001 C 
HETATM   34  C32 STQ I8621     -38.685 135.193   9.315  1.00 17.50     0.007 C 
HETATM   35  C33 STQ I8621     -39.500 136.111  10.121  1.00 16.61    -0.062 C 
HETATM   36  C34 STQ I8621     -40.155 137.097   9.473  1.00 17.58     0.007 C 
HETATM   37  C35 STQ I8621     -40.953 138.142  10.068  1.00 19.85     0.001 C 
HETATM   38  C36 STQ I8621     -34.198 128.082   8.621  1.00 20.06     0.016 C 
HETATM   39  C37 STQ I8621     -35.632 128.375   6.602  1.00 21.16     0.016 C 
HETATM   40  C38 STQ I8621     -31.740 131.682   6.884  1.00 18.60     0.044 C 
HETATM   41  C39 STQ I8621     -35.609 132.335  10.537  1.00 24.32     0.048 C 
HETATM   42  C40 STQ I8621     -39.487 135.954  11.610  1.00 12.09     0.048 C 
HETATM   43  O23 STQ I8621     -31.157 127.285   5.304  1.00 19.68    -0.392 OA
ATOM     44  H23 STQ I8621     -31.383 126.366   5.227  1.00  0.00     0.210 HD
ENDROOT
TORSDOF 12
