REMARK VINA RESULT:    -9.473      1.991      2.543
REMARK INTER + INTRA:          -9.966
REMARK INTER:                  -7.421
REMARK INTRA:                  -2.546
REMARK UNBOUND:                -0.494
REMARK  0 active torsions:
REMARK  status: ('A' for Active; 'I' for Inactive)
REMARK       I    between atoms: C3_3  and  O3_21 
REMARK       I    between atoms: C6_6  and  C7_7 
REMARK       I    between atoms: C8_8  and  C9_9 
REMARK       I    between atoms: C10_10  and  C11_11 
REMARK       I    between atoms: C12_12  and  C13_13 
REMARK       I    between atoms: C14_14  and  C15_15 
REMARK       I    between atoms: C23_25  and  O23_43 
REMARK       I    between atoms: C26_28  and  C27_29 
REMARK       I    between atoms: C28_30  and  C29_31 
REMARK       I    between atoms: C30_32  and  C31_33 
REMARK       I    between atoms: C32_34  and  C33_35 
REMARK       I    between atoms: C34_36  and  C35_37 
ROOT
HETATM    1  C1  STQ J9621     -34.641 127.438   6.168  1.00 21.11    -0.018 C 
HETATM    2  C2  STQ J9621     -34.274 126.841   4.798  1.00 20.11     0.045 C 
HETATM    3  C3  STQ J9621     -32.886 127.084   4.208  1.00 19.41     0.123 C 
HETATM    4  C4  STQ J9621     -31.969 128.024   5.005  1.00 18.39     0.066 C 
HETATM    5  C5  STQ J9621     -32.459 128.787   6.190  1.00 18.34    -0.074 C 
HETATM    6  C6  STQ J9621     -33.683 128.536   6.767  1.00 19.81    -0.048 C 
HETATM    7  C7  STQ J9621     -34.214 129.216   7.970  1.00 19.02     0.009 C 
HETATM    8  C8  STQ J9621     -34.804 130.427   7.975  1.00 17.97     0.007 C 
HETATM    9  C9  STQ J9621     -35.351 131.156   9.124  1.00 18.85    -0.062 C 
HETATM   10  C10 STQ J9621     -36.016 132.308   8.870  1.00 18.38     0.007 C 
HETATM   11  C11 STQ J9621     -36.709 133.147   9.820  1.00 18.57     0.001 C 
HETATM   12  C12 STQ J9621     -37.411 134.235   9.435  1.00 17.11     0.007 C 
HETATM   13  C13 STQ J9621     -38.226 135.123  10.278  1.00 20.42    -0.062 C 
HETATM   14  C14 STQ J9621     -38.881 136.143   9.677  1.00 20.50     0.007 C 
HETATM   15  C15 STQ J9621     -39.765 137.093  10.309  1.00 20.22     0.001 C 
HETATM   16  C16 STQ J9621     -34.710 126.203   7.100  1.00 19.56     0.020 C 
HETATM   17  C17 STQ J9621     -36.071 127.994   6.006  1.00 18.49     0.020 C 
HETATM   18  C18 STQ J9621     -31.394 129.724   6.626  1.00 16.89     0.044 C 
HETATM   19  C19 STQ J9621     -35.201 130.534  10.483  1.00 14.61     0.048 C 
HETATM   20  C20 STQ J9621     -38.312 134.820  11.756  1.00 17.59     0.048 C 
HETATM   21  O3  STQ J9621     -32.233 125.850   3.968  1.00 18.27    -0.395 OA
ATOM     22  H3  STQ J9621     -31.370 126.001   3.600  1.00  0.00     0.210 HD
HETATM   23  C21 STQ J9621     -48.135 146.580  13.187  1.00 22.52    -0.035 C 
HETATM   24  C22 STQ J9621     -48.994 147.441  14.135  1.00 21.99     0.045 C 
HETATM   25  C23 STQ J9621     -48.365 148.778  14.531  1.00 21.90     0.142 C 
HETATM   26  C24 STQ J9621     -46.849 148.719  14.749  1.00 21.56     0.007 C 
HETATM   27  C25 STQ J9621     -46.097 147.667  14.342  1.00 22.48    -0.077 C 
HETATM   28  C26 STQ J9621     -46.642 146.425  13.641  1.00 21.56     0.044 C 
HETATM   29  C27 STQ J9621     -45.711 145.946  12.548  1.00 20.56    -0.016 C 
HETATM   30  C28 STQ J9621     -45.186 144.694  12.468  1.00 20.46     0.003 C 
HETATM   31  C29 STQ J9621     -44.458 144.119  11.318  1.00 19.55    -0.062 C 
HETATM   32  C30 STQ J9621     -43.962 142.866  11.430  1.00 17.66     0.007 C 
HETATM   33  C31 STQ J9621     -43.221 142.145  10.425  1.00 19.12     0.001 C 
HETATM   34  C32 STQ J9621     -42.617 140.960  10.679  1.00 19.40     0.007 C 
HETATM   35  C33 STQ J9621     -41.800 140.116   9.788  1.00 19.31    -0.062 C 
HETATM   36  C34 STQ J9621     -41.221 139.018  10.319  1.00 17.72     0.007 C 
HETATM   37  C35 STQ J9621     -40.349 138.093   9.650  1.00 19.92     0.001 C 
HETATM   38  C36 STQ J9621     -48.224 147.224  11.771  1.00 21.96     0.016 C 
HETATM   39  C37 STQ J9621     -48.797 145.201  13.115  1.00 20.23     0.016 C 
HETATM   40  C38 STQ J9621     -44.645 147.797  14.649  1.00 21.00     0.044 C 
HETATM   41  C39 STQ J9621     -44.252 144.996  10.111  1.00 18.53     0.048 C 
HETATM   42  C40 STQ J9621     -41.610 140.571   8.366  1.00 15.86     0.048 C 
HETATM   43  O23 STQ J9621     -49.021 149.294  15.678  1.00 24.65    -0.392 OA
ATOM     44  H23 STQ J9621     -48.631 150.124  15.925  1.00  0.00     0.210 HD
ENDROOT
TORSDOF 12
