REMARK VINA RESULT:    -5.300      1.980     16.328
REMARK INTER + INTRA:          -7.868
REMARK INTER:                  -6.673
REMARK INTRA:                  -1.195
REMARK UNBOUND:                -2.568
REMARK  0 active torsions:
REMARK  status: ('A' for Active; 'I' for Inactive)
REMARK       I    between atoms: C3_3  and  O3_21 
REMARK       I    between atoms: C6_6  and  C7_7 
REMARK       I    between atoms: C8_8  and  C9_9 
REMARK       I    between atoms: C10_10  and  C11_11 
REMARK       I    between atoms: C12_12  and  C13_13 
REMARK       I    between atoms: C14_14  and  C15_15 
REMARK       I    between atoms: C23_25  and  O23_43 
REMARK       I    between atoms: C26_28  and  C27_29 
REMARK       I    between atoms: C28_30  and  C29_31 
REMARK       I    between atoms: C30_32  and  C31_33 
REMARK       I    between atoms: C32_34  and  C33_35 
REMARK       I    between atoms: C34_36  and  C35_37 
ROOT
HETATM    1  C1  STQ 7 619     -51.258 143.793  11.995  1.00 33.87    -0.018 C 
HETATM    2  C2  STQ 7 619     -50.916 143.204  13.357  1.00 33.87     0.045 C 
HETATM    3  C3  STQ 7 619     -49.895 144.012  14.143  1.00 33.87     0.123 C 
HETATM    4  C4  STQ 7 619     -50.068 145.492  13.854  1.00 33.87     0.066 C 
HETATM    5  C5  STQ 7 619     -49.799 145.725  12.395  1.00 33.87    -0.074 C 
HETATM    6  C6  STQ 7 619     -50.250 144.809  11.529  1.00 33.87    -0.048 C 
HETATM    7  C7  STQ 7 619     -49.571 144.530  10.267  1.00 33.87     0.009 C 
HETATM    8  C8  STQ 7 619     -48.364 144.033  10.558  1.00 33.87     0.007 C 
HETATM    9  C9  STQ 7 619     -47.471 143.470   9.521  1.00 33.87    -0.062 C 
HETATM   10  C10 STQ 7 619     -46.435 142.722   9.944  1.00 33.87     0.007 C 
HETATM   11  C11 STQ 7 619     -45.515 142.008   9.056  1.00 33.87     0.001 C 
HETATM   12  C12 STQ 7 619     -44.611 141.184   9.577  1.00 33.87     0.007 C 
HETATM   13  C13 STQ 7 619     -43.706 140.375   8.738  1.00 33.87    -0.062 C 
HETATM   14  C14 STQ 7 619     -42.977 139.447   9.377  1.00 33.87     0.007 C 
HETATM   15  C15 STQ 7 619     -42.052 138.512   8.742  1.00 33.87     0.001 C 
HETATM   16  C16 STQ 7 619     -52.594 144.522  12.071  1.00 33.87     0.020 C 
HETATM   17  C17 STQ 7 619     -51.338 142.683  10.957  1.00 33.87     0.020 C 
HETATM   18  C18 STQ 7 619     -48.648 146.660  12.142  1.00 33.87     0.044 C 
HETATM   19  C19 STQ 7 619     -47.773 143.704   8.065  1.00 33.87     0.048 C 
HETATM   20  C20 STQ 7 619     -43.662 140.587   7.253  1.00 33.87     0.048 C 
HETATM   21  O3  STQ 7 619     -50.094 143.791  15.541  1.00 33.87    -0.395 OA
ATOM     22  H3  STQ 7 619     -49.457 144.296  16.032  1.00  0.00     0.210 HD
HETATM   23  C21 STQ 7 619     -34.235 128.863   7.082  1.00 33.87    -0.035 C 
HETATM   24  C22 STQ 7 619     -33.391 128.067   6.121  1.00 33.87     0.045 C 
HETATM   25  C23 STQ 7 619     -31.939 128.066   6.540  1.00 33.87     0.142 C 
HETATM   26  C24 STQ 7 619     -31.470 129.454   6.895  1.00 33.87     0.007 C 
HETATM   27  C25 STQ 7 619     -32.303 130.471   7.142  1.00 33.87    -0.077 C 
HETATM   28  C26 STQ 7 619     -33.791 130.318   7.089  1.00 33.87     0.044 C 
HETATM   29  C27 STQ 7 619     -34.472 130.971   8.263  1.00 33.87    -0.016 C 
HETATM   30  C28 STQ 7 619     -35.429 131.847   8.014  1.00 33.87     0.003 C 
HETATM   31  C29 STQ 7 619     -36.181 132.507   9.085  1.00 33.87    -0.062 C 
HETATM   32  C30 STQ 7 619     -37.155 133.329   8.678  1.00 33.87     0.007 C 
HETATM   33  C31 STQ 7 619     -38.028 134.094   9.555  1.00 33.87     0.001 C 
HETATM   34  C32 STQ 7 619     -38.878 134.913   8.959  1.00 33.87     0.007 C 
HETATM   35  C33 STQ 7 619     -39.797 135.792   9.692  1.00 33.87    -0.062 C 
HETATM   36  C34 STQ 7 619     -40.494 136.678   8.960  1.00 33.87     0.007 C 
HETATM   37  C35 STQ 7 619     -41.430 137.643   9.524  1.00 33.87     0.001 C 
HETATM   38  C36 STQ 7 619     -34.146 128.239   8.466  1.00 33.87     0.016 C 
HETATM   39  C37 STQ 7 619     -35.676 128.787   6.609  1.00 33.87     0.016 C 
HETATM   40  C38 STQ 7 619     -31.721 131.814   7.445  1.00 33.87     0.044 C 
HETATM   41  C39 STQ 7 619     -35.869 132.205  10.518  1.00 33.87     0.048 C 
HETATM   42  C40 STQ 7 619     -39.870 135.669  11.185  1.00 33.87     0.048 C 
HETATM   43  O23 STQ 7 619     -31.196 127.600   5.419  1.00 33.87    -0.392 OA
ATOM     44  H23 STQ 7 619     -30.283 127.599   5.682  1.00  0.00     0.210 HD
ENDROOT
TORSDOF 12
