REMARK VINA RESULT:    -6.518      0.000      0.000
REMARK INTER + INTRA:          -9.827
REMARK INTER:                  -6.518
REMARK INTRA:                  -3.309
REMARK UNBOUND:                -3.309
REMARK  0 active torsions:
REMARK  status: ('A' for Active; 'I' for Inactive)
REMARK       I    between atoms: C3_3  and  O3_21 
REMARK       I    between atoms: C6_6  and  C7_7 
REMARK       I    between atoms: C8_8  and  C9_9 
REMARK       I    between atoms: C10_10  and  C11_11 
REMARK       I    between atoms: C12_12  and  C13_13 
REMARK       I    between atoms: C14_14  and  C15_15 
REMARK       I    between atoms: C23_25  and  O23_43 
REMARK       I    between atoms: C26_28  and  C27_29 
REMARK       I    between atoms: C28_30  and  C29_31 
REMARK       I    between atoms: C30_32  and  C31_33 
REMARK       I    between atoms: C32_34  and  C33_35 
REMARK       I    between atoms: C34_36  and  C35_37 
ROOT
HETATM    1  C1  STQ A 620     -34.593 126.952   5.911  1.00 22.96    -0.018 C 
HETATM    2  C2  STQ A 620     -34.029 126.213   4.677  1.00 23.40     0.045 C 
HETATM    3  C3  STQ A 620     -32.878 126.848   3.898  1.00 22.69     0.123 C 
HETATM    4  C4  STQ A 620     -31.960 127.726   4.747  1.00 22.06     0.066 C 
HETATM    5  C5  STQ A 620     -32.546 128.487   5.889  1.00 21.38    -0.074 C 
HETATM    6  C6  STQ A 620     -33.760 128.156   6.454  1.00 22.58    -0.048 C 
HETATM    7  C7  STQ A 620     -34.307 128.921   7.592  1.00 22.00     0.009 C 
HETATM    8  C8  STQ A 620     -34.919 130.122   7.562  1.00 20.93     0.007 C 
HETATM    9  C9  STQ A 620     -35.325 130.916   8.724  1.00 21.87    -0.062 C 
HETATM   10  C10 STQ A 620     -36.027 132.050   8.505  1.00 20.24     0.007 C 
HETATM   11  C11 STQ A 620     -36.530 132.957   9.506  1.00 21.04     0.001 C 
HETATM   12  C12 STQ A 620     -37.381 133.935   9.164  1.00 22.18     0.007 C 
HETATM   13  C13 STQ A 620     -38.053 134.940  10.000  1.00 24.17    -0.062 C 
HETATM   14  C14 STQ A 620     -38.959 135.736   9.390  1.00 25.88     0.007 C 
HETATM   15  C15 STQ A 620     -39.813 136.736   9.966  1.00 26.51     0.001 C 
HETATM   16  C16 STQ A 620     -34.691 125.850   6.983  1.00 20.65     0.020 C 
HETATM   17  C17 STQ A 620     -36.026 127.399   5.565  1.00 21.73     0.020 C 
HETATM   18  C18 STQ A 620     -31.585 129.566   6.248  1.00 21.05     0.044 C 
HETATM   19  C19 STQ A 620     -34.977 130.382  10.087  1.00 19.19     0.048 C 
HETATM   20  C20 STQ A 620     -37.753 134.966  11.469  1.00 21.80     0.048 C 
HETATM   21  O3  STQ A 620     -32.120 125.850   3.231  1.00 22.00    -0.395 OA
ATOM     22  H3  STQ A 620     -31.405 126.245   2.747  1.00  0.00     0.210 HD
HETATM   23  C21 STQ A 620     -49.759 144.447  12.588  1.00 38.17    -0.035 C 
HETATM   24  C22 STQ A 620     -50.630 145.354  13.481  1.00 37.47     0.045 C 
HETATM   25  C23 STQ A 620     -50.377 146.856  13.335  1.00 37.61     0.142 C 
HETATM   26  C24 STQ A 620     -48.911 147.209  13.061  1.00 37.22     0.007 C 
HETATM   27  C25 STQ A 620     -47.978 146.304  12.693  1.00 37.36    -0.077 C 
HETATM   28  C26 STQ A 620     -48.240 144.814  12.507  1.00 37.84     0.044 C 
HETATM   29  C27 STQ A 620     -47.507 144.287  11.271  1.00 39.21    -0.016 C 
HETATM   30  C28 STQ A 620     -46.541 143.330  11.287  1.00 38.37     0.003 C 
HETATM   31  C29 STQ A 620     -45.982 142.586  10.142  1.00 37.91    -0.062 C 
HETATM   32  C30 STQ A 620     -45.014 141.676  10.385  1.00 37.54     0.007 C 
HETATM   33  C31 STQ A 620     -44.335 140.842   9.427  1.00 35.36     0.001 C 
HETATM   34  C32 STQ A 620     -43.362 139.998   9.824  1.00 32.59     0.007 C 
HETATM   35  C33 STQ A 620     -42.528 139.078   9.036  1.00 30.48    -0.062 C 
HETATM   36  C34 STQ A 620     -41.606 138.350   9.703  1.00 28.06     0.007 C 
HETATM   37  C35 STQ A 620     -40.684 137.384   9.176  1.00 27.79     0.001 C 
HETATM   38  C36 STQ A 620     -50.399 144.458  11.171  1.00 37.05     0.016 C 
HETATM   39  C37 STQ A 620     -49.901 143.024  13.147  1.00 38.32     0.016 C 
HETATM   40  C38 STQ A 620     -46.624 146.888  12.502  1.00 37.13     0.044 C 
HETATM   41  C39 STQ A 620     -46.518 142.892   8.773  1.00 38.40     0.048 C 
HETATM   42  C40 STQ A 620     -42.754 139.015   7.548  1.00 28.72     0.048 C 
HETATM   43  O23 STQ A 620     -50.847 147.544  14.487  1.00 38.44    -0.392 OA
ATOM     44  H23 STQ A 620     -50.691 148.476  14.397  1.00  0.00     0.210 HD
ENDROOT
TORSDOF 12
