REMARK VINA RESULT:    -8.167      0.000      0.000
REMARK INTER + INTRA:         -10.979
REMARK INTER:                  -8.167
REMARK INTRA:                  -2.812
REMARK UNBOUND:                -2.812
REMARK  0 active torsions:
REMARK  status: ('A' for Active; 'I' for Inactive)
REMARK       I    between atoms: C3_3  and  O3_21 
REMARK       I    between atoms: C6_6  and  C7_7 
REMARK       I    between atoms: C8_8  and  C9_9 
REMARK       I    between atoms: C10_10  and  C11_11 
REMARK       I    between atoms: C12_12  and  C13_13 
REMARK       I    between atoms: C14_14  and  C15_15 
REMARK       I    between atoms: C23_25  and  O23_43 
REMARK       I    between atoms: C26_28  and  C27_29 
REMARK       I    between atoms: C28_30  and  C29_31 
REMARK       I    between atoms: C30_32  and  C31_33 
REMARK       I    between atoms: C32_34  and  C33_35 
REMARK       I    between atoms: C34_36  and  C35_37 
ROOT
HETATM    1  C1  STQ J9620     -34.507 126.881   6.196  1.00 17.81    -0.018 C 
HETATM    2  C2  STQ J9620     -33.910 126.057   5.036  1.00 18.03     0.045 C 
HETATM    3  C3  STQ J9620     -32.983 126.810   4.085  1.00 19.41     0.123 C 
HETATM    4  C4  STQ J9620     -31.958 127.666   4.825  1.00 18.47     0.066 C 
HETATM    5  C5  STQ J9620     -32.476 128.435   5.996  1.00 18.29    -0.074 C 
HETATM    6  C6  STQ J9620     -33.653 128.104   6.656  1.00 18.07    -0.048 C 
HETATM    7  C7  STQ J9620     -34.139 128.892   7.813  1.00 17.25     0.009 C 
HETATM    8  C8  STQ J9620     -34.795 130.067   7.768  1.00 17.01     0.007 C 
HETATM    9  C9  STQ J9620     -35.184 130.934   8.885  1.00 17.86    -0.062 C 
HETATM   10  C10 STQ J9620     -35.936 132.022   8.606  1.00 14.07     0.007 C 
HETATM   11  C11 STQ J9620     -36.440 132.984   9.542  1.00 13.24     0.001 C 
HETATM   12  C12 STQ J9620     -37.321 133.900   9.122  1.00 13.26     0.007 C 
HETATM   13  C13 STQ J9620     -38.018 134.919   9.904  1.00 14.95    -0.062 C 
HETATM   14  C14 STQ J9620     -38.952 135.657   9.264  1.00 15.84     0.007 C 
HETATM   15  C15 STQ J9620     -39.832 136.659   9.824  1.00 15.11     0.001 C 
HETATM   16  C16 STQ J9620     -34.636 125.850   7.319  1.00 16.04     0.020 C 
HETATM   17  C17 STQ J9620     -35.928 127.333   5.834  1.00 17.79     0.020 C 
HETATM   18  C18 STQ J9620     -31.509 129.539   6.249  1.00 17.18     0.044 C 
HETATM   19  C19 STQ J9620     -34.760 130.523  10.274  1.00 17.70     0.048 C 
HETATM   20  C20 STQ J9620     -37.706 135.021  11.375  1.00 11.96     0.048 C 
HETATM   21  O3  STQ J9620     -32.331 125.908   3.200  1.00 19.31    -0.395 OA
ATOM     22  H3  STQ J9620     -31.754 126.376   2.609  1.00  0.00     0.210 HD
HETATM   23  C21 STQ J9620     -49.870 144.396  12.468  1.00 34.78    -0.035 C 
HETATM   24  C22 STQ J9620     -50.723 145.331  13.359  1.00 34.65     0.045 C 
HETATM   25  C23 STQ J9620     -50.540 146.837  13.138  1.00 34.21     0.142 C 
HETATM   26  C24 STQ J9620     -49.101 147.215  12.789  1.00 34.68     0.007 C 
HETATM   27  C25 STQ J9620     -48.153 146.325  12.429  1.00 34.33    -0.077 C 
HETATM   28  C26 STQ J9620     -48.359 144.819  12.325  1.00 32.99     0.044 C 
HETATM   29  C27 STQ J9620     -47.589 144.287  11.107  1.00 29.80    -0.016 C 
HETATM   30  C28 STQ J9620     -46.609 143.340  11.166  1.00 25.87     0.003 C 
HETATM   31  C29 STQ J9620     -45.993 142.578  10.051  1.00 23.86    -0.062 C 
HETATM   32  C30 STQ J9620     -45.034 141.674  10.349  1.00 20.58     0.007 C 
HETATM   33  C31 STQ J9620     -44.339 140.799   9.433  1.00 18.13     0.001 C 
HETATM   34  C32 STQ J9620     -43.369 139.945   9.838  1.00 14.57     0.007 C 
HETATM   35  C33 STQ J9620     -42.567 139.015   9.021  1.00 16.93    -0.062 C 
HETATM   36  C34 STQ J9620     -41.627 138.271   9.647  1.00 15.59     0.007 C 
HETATM   37  C35 STQ J9620     -40.736 137.302   9.067  1.00 13.74     0.001 C 
HETATM   38  C36 STQ J9620     -50.557 144.321  11.074  1.00 32.58     0.016 C 
HETATM   39  C37 STQ J9620     -49.953 142.990  13.093  1.00 34.07     0.016 C 
HETATM   40  C38 STQ J9620     -46.839 146.980  12.157  1.00 35.34     0.044 C 
HETATM   41  C39 STQ J9620     -46.479 142.855   8.651  1.00 22.74     0.048 C 
HETATM   42  C40 STQ J9620     -42.836 138.962   7.542  1.00 15.29     0.048 C 
HETATM   43  O23 STQ J9620     -50.984 147.561  14.279  1.00 33.03    -0.392 OA
ATOM     44  H23 STQ J9620     -51.879 147.326  14.496  1.00  0.00     0.210 HD
ENDROOT
TORSDOF 12
