REMARK VINA RESULT:    -7.971      1.972      2.516
REMARK INTER + INTRA:         -10.484
REMARK INTER:                 -10.001
REMARK INTRA:                  -0.483
REMARK UNBOUND:                -2.513
REMARK  0 active torsions:
REMARK  status: ('A' for Active; 'I' for Inactive)
REMARK       I    between atoms: C3_3  and  O3_21 
REMARK       I    between atoms: C6_6  and  C7_7 
REMARK       I    between atoms: C8_8  and  C9_9 
REMARK       I    between atoms: C10_10  and  C11_11 
REMARK       I    between atoms: C12_12  and  C13_13 
REMARK       I    between atoms: C14_14  and  C15_15 
REMARK       I    between atoms: C23_25  and  O23_43 
REMARK       I    between atoms: C26_28  and  C27_29 
REMARK       I    between atoms: C28_30  and  C29_31 
REMARK       I    between atoms: C30_32  and  C31_33 
REMARK       I    between atoms: C32_34  and  C33_35 
REMARK       I    between atoms: C34_36  and  C35_37 
ROOT
HETATM    1  C1  STQ F5621     -34.119 128.230   7.031  1.00 20.77    -0.018 C 
HETATM    2  C2  STQ F5621     -33.396 127.655   5.803  1.00 19.21     0.045 C 
HETATM    3  C3  STQ F5621     -31.977 128.105   5.461  1.00 20.68     0.123 C 
HETATM    4  C4  STQ F5621     -31.371 129.162   6.391  1.00 17.77     0.066 C 
HETATM    5  C5  STQ F5621     -32.198 129.851   7.429  1.00 19.05    -0.074 C 
HETATM    6  C6  STQ F5621     -33.480 129.456   7.762  1.00 19.48    -0.048 C 
HETATM    7  C7  STQ F5621     -34.340 130.120   8.778  1.00 16.56     0.009 C 
HETATM    8  C8  STQ F5621     -35.051 131.262   8.577  1.00 15.55     0.007 C 
HETATM    9  C9  STQ F5621     -35.893 132.014   9.521  1.00 14.22    -0.062 C 
HETATM   10  C10 STQ F5621     -36.603 133.057   9.035  1.00 14.29     0.007 C 
HETATM   11  C11 STQ F5621     -37.552 133.872   9.754  1.00 14.32     0.001 C 
HETATM   12  C12 STQ F5621     -38.293 134.829   9.144  1.00 14.19     0.007 C 
HETATM   13  C13 STQ F5621     -39.370 135.667   9.735  1.00 15.26    -0.062 C 
HETATM   14  C14 STQ F5621     -40.016 136.536   8.925  1.00 15.45     0.007 C 
HETATM   15  C15 STQ F5621     -41.123 137.396   9.271  1.00 16.70     0.001 C 
HETATM   16  C16 STQ F5621     -34.208 127.027   8.002  1.00 20.67     0.020 C 
HETATM   17  C17 STQ F5621     -35.551 128.564   6.562  1.00 19.98     0.020 C 
HETATM   18  C18 STQ F5621     -31.405 130.975   8.000  1.00 17.40     0.044 C 
HETATM   19  C19 STQ F5621     -35.968 131.524  10.934  1.00 13.40     0.048 C 
HETATM   20  C20 STQ F5621     -39.701 135.469  11.187  1.00 11.87     0.048 C 
HETATM   21  O3  STQ F5621     -31.110 126.980   5.351  1.00 20.33    -0.395 OA
ATOM     22  H3  STQ F5621     -30.228 127.260   5.138  1.00  0.00     0.210 HD
HETATM   23  C21 STQ F5621     -50.944 145.787   9.903  1.00 22.54    -0.035 C 
HETATM   24  C22 STQ F5621     -52.058 146.610  10.592  1.00 22.10     0.045 C 
HETATM   25  C23 STQ F5621     -51.676 148.052  10.953  1.00 22.88     0.142 C 
HETATM   26  C24 STQ F5621     -50.235 148.193  11.471  1.00 23.28     0.007 C 
HETATM   27  C25 STQ F5621     -49.317 147.206  11.315  1.00 24.20    -0.077 C 
HETATM   28  C26 STQ F5621     -49.565 145.858  10.635  1.00 21.98     0.044 C 
HETATM   29  C27 STQ F5621     -48.380 145.456   9.767  1.00 22.14    -0.016 C 
HETATM   30  C28 STQ F5621     -47.714 144.278   9.847  1.00 22.19     0.003 C 
HETATM   31  C29 STQ F5621     -46.705 143.765   8.909  1.00 22.13    -0.062 C 
HETATM   32  C30 STQ F5621     -46.117 142.579   9.179  1.00 22.11     0.007 C 
HETATM   33  C31 STQ F5621     -45.111 141.921   8.374  1.00 21.40     0.001 C 
HETATM   34  C32 STQ F5621     -44.438 140.832   8.810  1.00 17.66     0.007 C 
HETATM   35  C33 STQ F5621     -43.362 140.086   8.141  1.00 16.53    -0.062 C 
HETATM   36  C34 STQ F5621     -42.767 139.092   8.837  1.00 14.90     0.007 C 
HETATM   37  C35 STQ F5621     -41.670 138.267   8.415  1.00 15.48     0.001 C 
HETATM   38  C36 STQ F5621     -50.827 146.311   8.445  1.00 21.25     0.016 C 
HETATM   39  C37 STQ F5621     -51.411 144.322   9.824  1.00 21.27     0.016 C 
HETATM   40  C38 STQ F5621     -47.994 147.544  11.899  1.00 22.66     0.044 C 
HETATM   41  C39 STQ F5621     -46.339 144.624   7.740  1.00 22.70     0.048 C 
HETATM   42  C40 STQ F5621     -42.950 140.528   6.766  1.00 12.92     0.048 C 
HETATM   43  O23 STQ F5621     -52.600 148.577  11.893  1.00 22.94    -0.392 OA
ATOM     44  H23 STQ F5621     -52.363 149.469  12.116  1.00  0.00     0.210 HD
ENDROOT
TORSDOF 12
