REMARK VINA RESULT:    -4.596      1.342     17.407
REMARK INTER + INTRA:          -7.907
REMARK INTER:                  -7.556
REMARK INTRA:                  -0.352
REMARK UNBOUND:                -3.311
REMARK  0 active torsions:
REMARK  status: ('A' for Active; 'I' for Inactive)
REMARK       I    between atoms: C3_3  and  O3_21 
REMARK       I    between atoms: C6_6  and  C7_7 
REMARK       I    between atoms: C8_8  and  C9_9 
REMARK       I    between atoms: C10_10  and  C11_11 
REMARK       I    between atoms: C12_12  and  C13_13 
REMARK       I    between atoms: C14_14  and  C15_15 
REMARK       I    between atoms: C23_25  and  O23_43 
REMARK       I    between atoms: C26_28  and  C27_29 
REMARK       I    between atoms: C28_30  and  C29_31 
REMARK       I    between atoms: C30_32  and  C31_33 
REMARK       I    between atoms: C32_34  and  C33_35 
REMARK       I    between atoms: C34_36  and  C35_37 
ROOT
HETATM    1  C1  STQ D3621     -50.131 146.641  12.168  1.00 23.41    -0.018 C 
HETATM    2  C2  STQ D3621     -51.059 147.181  13.271  1.00 23.79     0.045 C 
HETATM    3  C3  STQ D3621     -50.502 148.057  14.391  1.00 23.28     0.123 C 
HETATM    4  C4  STQ D3621     -49.152 148.714  14.061  1.00 23.70     0.066 C 
HETATM    5  C5  STQ D3621     -48.279 148.173  12.965  1.00 23.84    -0.074 C 
HETATM    6  C6  STQ D3621     -48.689 147.214  12.059  1.00 22.99    -0.048 C 
HETATM    7  C7  STQ D3621     -47.849 146.670  10.959  1.00 20.55     0.009 C 
HETATM    8  C8  STQ D3621     -46.920 145.700  11.107  1.00 19.35     0.007 C 
HETATM    9  C9  STQ D3621     -45.997 145.122  10.127  1.00 18.45    -0.062 C 
HETATM   10  C10 STQ D3621     -45.258 144.062  10.523  1.00 18.11     0.007 C 
HETATM   11  C11 STQ D3621     -44.363 143.283   9.716  1.00 18.44     0.001 C 
HETATM   12  C12 STQ D3621     -43.730 142.186  10.191  1.00 19.34     0.007 C 
HETATM   13  C13 STQ D3621     -42.875 141.272   9.410  1.00 20.12    -0.062 C 
HETATM   14  C14 STQ D3621     -42.338 140.197  10.035  1.00 19.73     0.007 C 
HETATM   15  C15 STQ D3621     -41.515 139.146   9.442  1.00 19.24     0.001 C 
HETATM   16  C16 STQ D3621     -50.937 146.964  10.905  1.00 23.73     0.020 C 
HETATM   17  C17 STQ D3621     -50.078 145.115  12.318  1.00 23.42     0.020 C 
HETATM   18  C18 STQ D3621     -46.960 148.854  13.011  1.00 22.78     0.044 C 
HETATM   19  C19 STQ D3621     -45.993 145.692   8.743  1.00 16.12     0.048 C 
HETATM   20  C20 STQ D3621     -42.685 141.592   7.953  1.00 17.75     0.048 C 
HETATM   21  O3  STQ D3621     -51.458 149.039  14.765  1.00 21.52    -0.395 OA
ATOM     22  H3  STQ D3621     -51.112 149.584  15.461  1.00  0.00     0.210 HD
HETATM   23  C21 STQ D3621     -34.240 128.559   7.098  1.00 19.77    -0.035 C 
HETATM   24  C22 STQ D3621     -33.386 127.581   6.265  1.00 17.50     0.045 C 
HETATM   25  C23 STQ D3621     -31.879 127.747   6.441  1.00 17.67     0.142 C 
HETATM   26  C24 STQ D3621     -31.413 129.208   6.591  1.00 18.06     0.007 C 
HETATM   27  C25 STQ D3621     -32.284 130.213   6.864  1.00 19.36    -0.077 C 
HETATM   28  C26 STQ D3621     -33.793 130.054   7.044  1.00 19.09     0.044 C 
HETATM   29  C27 STQ D3621     -34.360 130.895   8.194  1.00 18.58    -0.016 C 
HETATM   30  C28 STQ D3621     -35.407 131.755   8.069  1.00 19.42     0.003 C 
HETATM   31  C29 STQ D3621     -36.091 132.500   9.145  1.00 21.21    -0.062 C 
HETATM   32  C30 STQ D3621     -37.087 133.356   8.812  1.00 20.08     0.007 C 
HETATM   33  C31 STQ D3621     -37.852 134.173   9.726  1.00 17.89     0.001 C 
HETATM   34  C32 STQ D3621     -38.686 135.159   9.315  1.00 17.64     0.007 C 
HETATM   35  C33 STQ D3621     -39.479 136.097  10.148  1.00 17.45    -0.062 C 
HETATM   36  C34 STQ D3621     -40.156 137.088   9.519  1.00 15.95     0.007 C 
HETATM   37  C35 STQ D3621     -40.954 138.136  10.135  1.00 18.41     0.001 C 
HETATM   38  C36 STQ D3621     -34.205 128.041   8.570  1.00 20.23     0.016 C 
HETATM   39  C37 STQ D3621     -35.688 128.434   6.570  1.00 15.16     0.016 C 
HETATM   40  C38 STQ D3621     -31.684 131.559   6.963  1.00 16.76     0.044 C 
HETATM   41  C39 STQ D3621     -35.575 132.320  10.548  1.00 22.05     0.048 C 
HETATM   42  C40 STQ D3621     -39.414 135.927  11.645  1.00 11.49     0.048 C 
HETATM   43  O23 STQ D3621     -31.203 127.111   5.372  1.00 18.64    -0.392 OA
ATOM     44  H23 STQ D3621     -31.490 126.209   5.280  1.00  0.00     0.210 HD
ENDROOT
TORSDOF 12
