REMARK VINA RESULT:    -9.235      1.470     16.651
REMARK INTER + INTRA:         -10.238
REMARK INTER:                  -7.998
REMARK INTRA:                  -2.239
REMARK UNBOUND:                -1.002
REMARK  0 active torsions:
REMARK  status: ('A' for Active; 'I' for Inactive)
REMARK       I    between atoms: C3_3  and  O3_21 
REMARK       I    between atoms: C6_6  and  C7_7 
REMARK       I    between atoms: C8_8  and  C9_9 
REMARK       I    between atoms: C10_10  and  C11_11 
REMARK       I    between atoms: C12_12  and  C13_13 
REMARK       I    between atoms: C14_14  and  C15_15 
REMARK       I    between atoms: C23_25  and  O23_43 
REMARK       I    between atoms: C26_28  and  C27_29 
REMARK       I    between atoms: C28_30  and  C29_31 
REMARK       I    between atoms: C30_32  and  C31_33 
REMARK       I    between atoms: C32_34  and  C33_35 
REMARK       I    between atoms: C34_36  and  C35_37 
ROOT
HETATM    1  C1  STQ 3 618     -34.181 127.112   6.722  1.00 32.96    -0.018 C 
HETATM    2  C2  STQ 3 618     -34.078 127.185   5.199  1.00 32.96     0.045 C 
HETATM    3  C3  STQ 3 618     -32.956 128.059   4.652  1.00 32.96     0.123 C 
HETATM    4  C4  STQ 3 618     -31.832 128.170   5.661  1.00 32.96     0.066 C 
HETATM    5  C5  STQ 3 618     -32.397 128.791   6.906  1.00 32.96    -0.074 C 
HETATM    6  C6  STQ 3 618     -33.498 128.249   7.436  1.00 32.96    -0.048 C 
HETATM    7  C7  STQ 3 618     -34.218 128.882   8.550  1.00 32.96     0.009 C 
HETATM    8  C8  STQ 3 618     -34.438 130.182   8.349  1.00 32.96     0.007 C 
HETATM    9  C9  STQ 3 618     -35.321 130.953   9.238  1.00 32.96    -0.062 C 
HETATM   10  C10 STQ 3 618     -35.799 132.106   8.745  1.00 32.96     0.007 C 
HETATM   11  C11 STQ 3 618     -36.784 132.931   9.436  1.00 32.96     0.001 C 
HETATM   12  C12 STQ 3 618     -37.362 133.943   8.796  1.00 32.96     0.007 C 
HETATM   13  C13 STQ 3 618     -38.425 134.739   9.440  1.00 32.96    -0.062 C 
HETATM   14  C14 STQ 3 618     -39.108 135.605   8.673  1.00 32.96     0.007 C 
HETATM   15  C15 STQ 3 618     -40.203 136.447   9.150  1.00 32.96     0.001 C 
HETATM   16  C16 STQ 3 618     -33.478 125.850   7.207  1.00 32.96     0.020 C 
HETATM   17  C17 STQ 3 618     -35.643 127.074   7.144  1.00 32.96     0.020 C 
HETATM   18  C18 STQ 3 618     -31.517 129.783   7.623  1.00 32.96     0.044 C 
HETATM   19  C19 STQ 3 618     -35.684 130.406  10.590  1.00 32.96     0.048 C 
HETATM   20  C20 STQ 3 618     -38.712 134.516  10.892  1.00 32.96     0.048 C 
HETATM   21  O3  STQ 3 618     -32.430 127.476   3.457  1.00 32.96    -0.395 OA
ATOM     22  H3  STQ 3 618     -31.730 128.021   3.116  1.00  0.00     0.210 HD
HETATM   23  C21 STQ 3 618     -49.748 144.695   9.332  1.00 32.96    -0.035 C 
HETATM   24  C22 STQ 3 618     -50.706 145.357  10.294  1.00 32.96     0.045 C 
HETATM   25  C23 STQ 3 618     -50.555 146.864  10.286  1.00 32.96     0.142 C 
HETATM   26  C24 STQ 3 618     -49.103 147.267  10.323  1.00 32.96     0.007 C 
HETATM   27  C25 STQ 3 618     -48.098 146.409  10.106  1.00 32.96    -0.077 C 
HETATM   28  C26 STQ 3 618     -48.327 144.960   9.792  1.00 32.96     0.044 C 
HETATM   29  C27 STQ 3 618     -47.368 144.451   8.745  1.00 32.96    -0.016 C 
HETATM   30  C28 STQ 3 618     -46.606 143.418   9.071  1.00 32.96     0.003 C 
HETATM   31  C29 STQ 3 618     -45.651 142.809   8.141  1.00 32.96    -0.062 C 
HETATM   32  C30 STQ 3 618     -45.010 141.731   8.613  1.00 32.96     0.007 C 
HETATM   33  C31 STQ 3 618     -44.020 140.950   7.890  1.00 32.96     0.001 C 
HETATM   34  C32 STQ 3 618     -43.466 139.933   8.542  1.00 32.96     0.007 C 
HETATM   35  C33 STQ 3 618     -42.426 139.085   7.938  1.00 32.96    -0.062 C 
HETATM   36  C34 STQ 3 618     -41.854 138.159   8.726  1.00 32.96     0.007 C 
HETATM   37  C35 STQ 3 618     -40.781 137.274   8.290  1.00 32.96     0.001 C 
HETATM   38  C36 STQ 3 618     -49.989 145.198   7.917  1.00 32.96     0.016 C 
HETATM   39  C37 STQ 3 618     -50.005 143.200   9.373  1.00 32.96     0.016 C 
HETATM   40  C38 STQ 3 618     -46.700 146.919  10.232  1.00 32.96     0.044 C 
HETATM   41  C39 STQ 3 618     -45.479 143.378   6.765  1.00 32.96     0.048 C 
HETATM   42  C40 STQ 3 618     -42.067 139.318   6.505  1.00 32.96     0.048 C 
HETATM   43  O23 STQ 3 618     -51.218 147.384  11.439  1.00 32.96    -0.392 OA
ATOM     44  H23 STQ 3 618     -51.123 148.329  11.433  1.00  0.00     0.210 HD
ENDROOT
TORSDOF 12
