REMARK VINA RESULT:    -9.508      0.000      0.000
REMARK INTER + INTRA:         -12.375
REMARK INTER:                  -9.508
REMARK INTRA:                  -2.868
REMARK UNBOUND:                -2.868
REMARK  0 active torsions:
REMARK  status: ('A' for Active; 'I' for Inactive)
REMARK       I    between atoms: C3_3  and  O3_21 
REMARK       I    between atoms: C6_6  and  C7_7 
REMARK       I    between atoms: C8_8  and  C9_9 
REMARK       I    between atoms: C10_10  and  C11_11 
REMARK       I    between atoms: C12_12  and  C13_13 
REMARK       I    between atoms: C14_14  and  C15_15 
REMARK       I    between atoms: C23_25  and  O23_43 
REMARK       I    between atoms: C26_28  and  C27_29 
REMARK       I    between atoms: C28_30  and  C29_31 
REMARK       I    between atoms: C30_32  and  C31_33 
REMARK       I    between atoms: C32_34  and  C33_35 
REMARK       I    between atoms: C34_36  and  C35_37 
ROOT
HETATM    1  C1  STQ N1621     -34.480 126.914   6.237  1.00 48.43    -0.018 C 
HETATM    2  C2  STQ N1621     -34.041 126.180   4.977  1.00 44.61     0.045 C 
HETATM    3  C3  STQ N1621     -32.941 126.838   4.168  1.00 44.41     0.123 C 
HETATM    4  C4  STQ N1621     -31.873 127.403   5.072  1.00 41.53     0.066 C 
HETATM    5  C5  STQ N1621     -32.515 128.421   5.961  1.00 37.72    -0.074 C 
HETATM    6  C6  STQ N1621     -33.647 128.131   6.600  1.00 43.52    -0.048 C 
HETATM    7  C7  STQ N1621     -34.141 128.963   7.721  1.00 44.60     0.009 C 
HETATM    8  C8  STQ N1621     -34.814 130.091   7.524  1.00 43.22     0.007 C 
HETATM    9  C9  STQ N1621     -35.328 130.868   8.650  1.00 45.04    -0.062 C 
HETATM   10  C10 STQ N1621     -36.177 131.834   8.324  1.00 43.71     0.007 C 
HETATM   11  C11 STQ N1621     -36.858 132.697   9.260  1.00 42.87     0.001 C 
HETATM   12  C12 STQ N1621     -37.736 133.474   8.659  1.00 44.70     0.007 C 
HETATM   13  C13 STQ N1621     -38.616 134.392   9.378  1.00 42.63    -0.062 C 
HETATM   14  C14 STQ N1621     -39.497 135.074   8.645  1.00 42.62     0.007 C 
HETATM   15  C15 STQ N1621     -40.445 135.977   9.263  1.00 44.33     0.001 C 
HETATM   16  C16 STQ N1621     -34.491 125.867   7.345  1.00 47.48     0.020 C 
HETATM   17  C17 STQ N1621     -35.885 127.455   6.040  1.00 54.25     0.020 C 
HETATM   18  C18 STQ N1621     -31.531 129.415   6.482  1.00 37.77     0.044 C 
HETATM   19  C19 STQ N1621     -34.936 130.568  10.061  1.00 46.17     0.048 C 
HETATM   20  C20 STQ N1621     -38.552 134.501  10.870  1.00 40.87     0.048 C 
HETATM   21  O3  STQ N1621     -32.347 125.860   3.313  1.00 48.83    -0.395 OA
ATOM     22  H3  STQ N1621     -31.658 126.272   2.806  1.00  0.00     0.210 HD
HETATM   23  C21 STQ N1621     -50.015 143.942  10.745  1.00 50.32    -0.035 C 
HETATM   24  C22 STQ N1621     -50.966 144.834  11.509  1.00 50.33     0.045 C 
HETATM   25  C23 STQ N1621     -50.640 146.303  11.350  1.00 53.86     0.142 C 
HETATM   26  C24 STQ N1621     -49.209 146.524  11.765  1.00 55.05     0.007 C 
HETATM   27  C25 STQ N1621     -48.256 145.631  11.450  1.00 51.87    -0.077 C 
HETATM   28  C26 STQ N1621     -48.561 144.185  11.171  1.00 52.37     0.044 C 
HETATM   29  C27 STQ N1621     -47.639 143.648  10.100  1.00 50.93    -0.016 C 
HETATM   30  C28 STQ N1621     -47.014 142.502  10.301  1.00 50.76     0.003 C 
HETATM   31  C29 STQ N1621     -46.153 141.921   9.275  1.00 54.19    -0.062 C 
HETATM   32  C30 STQ N1621     -45.753 140.668   9.495  1.00 54.84     0.007 C 
HETATM   33  C31 STQ N1621     -44.900 139.918   8.598  1.00 51.40     0.001 C 
HETATM   34  C32 STQ N1621     -44.046 139.107   9.199  1.00 48.08     0.007 C 
HETATM   35  C33 STQ N1621     -43.108 138.273   8.449  1.00 45.58    -0.062 C 
HETATM   36  C34 STQ N1621     -42.244 137.524   9.134  1.00 47.58     0.007 C 
HETATM   37  C35 STQ N1621     -41.281 136.648   8.490  1.00 48.15     0.001 C 
HETATM   38  C36 STQ N1621     -50.209 144.195   9.256  1.00 49.31     0.016 C 
HETATM   39  C37 STQ N1621     -50.453 142.515  11.049  1.00 51.12     0.016 C 
HETATM   40  C38 STQ N1621     -46.835 146.072  11.388  1.00 54.86     0.044 C 
HETATM   41  C39 STQ N1621     -45.798 142.702   8.050  1.00 53.01     0.048 C 
HETATM   42  C40 STQ N1621     -43.139 138.285   6.960  1.00 46.34     0.048 C 
HETATM   43  O23 STQ N1621     -51.535 147.027  12.193  1.00 60.75    -0.392 OA
ATOM     44  H23 STQ N1621     -52.438 146.888  11.932  1.00  0.00     0.210 HD
ENDROOT
TORSDOF 12
