REMARK VINA RESULT:    -5.253      1.691      2.029
REMARK INTER + INTRA:         -10.057
REMARK INTER:                  -5.064
REMARK INTRA:                  -4.993
REMARK UNBOUND:                -4.804
REMARK  0 active torsions:
REMARK  status: ('A' for Active; 'I' for Inactive)
REMARK       I    between atoms: C3_3  and  O3_21 
REMARK       I    between atoms: C6_6  and  C7_7 
REMARK       I    between atoms: C8_8  and  C9_9 
REMARK       I    between atoms: C10_10  and  C11_11 
REMARK       I    between atoms: C12_12  and  C13_13 
REMARK       I    between atoms: C14_14  and  C15_15 
REMARK       I    between atoms: C23_25  and  O23_43 
REMARK       I    between atoms: C26_28  and  C27_29 
REMARK       I    between atoms: C28_30  and  C29_31 
REMARK       I    between atoms: C30_32  and  C31_33 
REMARK       I    between atoms: C32_34  and  C33_35 
REMARK       I    between atoms: C34_36  and  C35_37 
ROOT
HETATM    1  C1  STQ Y1621     -34.531 126.998   5.405  1.00 37.60    -0.018 C 
HETATM    2  C2  STQ Y1621     -33.861 126.190   4.307  1.00 37.60     0.045 C 
HETATM    3  C3  STQ Y1621     -32.688 126.847   3.617  1.00 37.60     0.123 C 
HETATM    4  C4  STQ Y1621     -31.726 127.366   4.652  1.00 37.60     0.066 C 
HETATM    5  C5  STQ Y1621     -32.393 128.245   5.665  1.00 37.60    -0.074 C 
HETATM    6  C6  STQ Y1621     -33.653 128.037   6.073  1.00 37.60    -0.048 C 
HETATM    7  C7  STQ Y1621     -34.223 128.784   7.228  1.00 37.60     0.009 C 
HETATM    8  C8  STQ Y1621     -34.733 130.016   7.131  1.00 37.60     0.007 C 
HETATM    9  C9  STQ Y1621     -35.300 130.723   8.281  1.00 37.60    -0.062 C 
HETATM   10  C10 STQ Y1621     -36.218 131.650   8.013  1.00 37.60     0.007 C 
HETATM   11  C11 STQ Y1621     -36.915 132.448   9.006  1.00 37.60     0.001 C 
HETATM   12  C12 STQ Y1621     -37.865 133.205   8.480  1.00 37.60     0.007 C 
HETATM   13  C13 STQ Y1621     -38.768 134.098   9.209  1.00 37.60    -0.062 C 
HETATM   14  C14 STQ Y1621     -39.565 134.896   8.496  1.00 37.60     0.007 C 
HETATM   15  C15 STQ Y1621     -40.512 135.777   9.158  1.00 37.60     0.001 C 
HETATM   16  C16 STQ Y1621     -35.099 125.983   6.385  1.00 37.60     0.020 C 
HETATM   17  C17 STQ Y1621     -35.686 127.761   4.801  1.00 37.60     0.020 C 
HETATM   18  C18 STQ Y1621     -31.432 129.132   6.396  1.00 37.60     0.044 C 
HETATM   19  C19 STQ Y1621     -34.864 130.419   9.675  1.00 37.60     0.048 C 
HETATM   20  C20 STQ Y1621     -38.813 134.097  10.704  1.00 37.60     0.048 C 
HETATM   21  O3  STQ Y1621     -31.998 125.850   2.866  1.00 37.60    -0.395 OA
ATOM     22  H3  STQ Y1621     -32.604 125.523   2.213  1.00  0.00     0.210 HD
HETATM   23  C21 STQ Y1621     -49.932 144.195  10.663  1.00 37.60    -0.035 C 
HETATM   24  C22 STQ Y1621     -50.824 145.056  11.537  1.00 37.60     0.045 C 
HETATM   25  C23 STQ Y1621     -50.328 146.485  11.633  1.00 37.60     0.142 C 
HETATM   26  C24 STQ Y1621     -48.872 146.500  12.025  1.00 37.60     0.007 C 
HETATM   27  C25 STQ Y1621     -48.031 145.513  11.695  1.00 37.60    -0.077 C 
HETATM   28  C26 STQ Y1621     -48.497 144.177  11.189  1.00 37.60     0.044 C 
HETATM   29  C27 STQ Y1621     -47.539 143.678  10.131  1.00 37.60    -0.016 C 
HETATM   30  C28 STQ Y1621     -46.930 142.514  10.299  1.00 37.60     0.003 C 
HETATM   31  C29 STQ Y1621     -45.993 141.988   9.301  1.00 37.60    -0.062 C 
HETATM   32  C30 STQ Y1621     -45.619 140.719   9.445  1.00 37.60     0.007 C 
HETATM   33  C31 STQ Y1621     -44.701 140.022   8.564  1.00 37.60     0.001 C 
HETATM   34  C32 STQ Y1621     -43.902 139.166   9.178  1.00 37.60     0.007 C 
HETATM   35  C33 STQ Y1621     -42.917 138.357   8.461  1.00 37.60    -0.062 C 
HETATM   36  C34 STQ Y1621     -42.133 137.531   9.152  1.00 37.60     0.007 C 
HETATM   37  C35 STQ Y1621     -41.164 136.692   8.465  1.00 37.60     0.001 C 
HETATM   38  C36 STQ Y1621     -50.019 144.665   9.214  1.00 37.60     0.016 C 
HETATM   39  C37 STQ Y1621     -50.470 142.779  10.737  1.00 37.60     0.016 C 
HETATM   40  C38 STQ Y1621     -46.562 145.729  11.865  1.00 37.60     0.044 C 
HETATM   41  C39 STQ Y1621     -45.491 142.846   8.187  1.00 37.60     0.048 C 
HETATM   42  C40 STQ Y1621     -42.822 138.453   6.975  1.00 37.60     0.048 C 
HETATM   43  O23 STQ Y1621     -51.099 147.144  12.637  1.00 37.60    -0.392 OA
ATOM     44  H23 STQ Y1621     -50.788 148.039  12.697  1.00  0.00     0.210 HD
ENDROOT
TORSDOF 12
