REMARK VINA RESULT:   -12.221      0.000      0.000
REMARK INTER + INTRA:         -12.601
REMARK INTER:                 -12.221
REMARK INTRA:                  -0.380
REMARK UNBOUND:                -0.380
REMARK  0 active torsions:
REMARK  status: ('A' for Active; 'I' for Inactive)
REMARK       I    between atoms: C3_3  and  O3_21 
REMARK       I    between atoms: C6_6  and  C7_7 
REMARK       I    between atoms: C8_8  and  C9_9 
REMARK       I    between atoms: C10_10  and  C11_11 
REMARK       I    between atoms: C12_12  and  C13_13 
REMARK       I    between atoms: C14_14  and  C15_15 
REMARK       I    between atoms: C23_25  and  O23_43 
REMARK       I    between atoms: C26_28  and  C27_29 
REMARK       I    between atoms: C28_30  and  C29_31 
REMARK       I    between atoms: C30_32  and  C31_33 
REMARK       I    between atoms: C32_34  and  C33_35 
REMARK       I    between atoms: C34_36  and  C35_37 
ROOT
HETATM    1  C1  STQ 4 619     -50.120 144.609  12.950  1.00 29.53    -0.018 C 
HETATM    2  C2  STQ 4 619     -50.785 144.867  14.301  1.00 29.53     0.045 C 
HETATM    3  C3  STQ 4 619     -50.016 145.688  15.325  1.00 29.53     0.123 C 
HETATM    4  C4  STQ 4 619     -49.225 146.785  14.646  1.00 29.53     0.066 C 
HETATM    5  C5  STQ 4 619     -48.286 146.140  13.670  1.00 29.53    -0.074 C 
HETATM    6  C6  STQ 4 619     -48.746 145.235  12.797  1.00 29.53    -0.048 C 
HETATM    7  C7  STQ 4 619     -47.924 144.837  11.633  1.00 29.53     0.009 C 
HETATM    8  C8  STQ 4 619     -46.973 143.904  11.702  1.00 29.53     0.007 C 
HETATM    9  C9  STQ 4 619     -46.192 143.538  10.511  1.00 29.53    -0.062 C 
HETATM   10  C10 STQ 4 619     -45.116 142.754  10.676  1.00 29.53     0.007 C 
HETATM   11  C11 STQ 4 619     -44.232 142.269   9.619  1.00 29.53     0.001 C 
HETATM   12  C12 STQ 4 619     -43.277 141.439  10.018  1.00 29.53     0.007 C 
HETATM   13  C13 STQ 4 619     -42.275 140.783   9.164  1.00 29.53    -0.062 C 
HETATM   14  C14 STQ 4 619     -41.689 139.712   9.714  1.00 29.53     0.007 C 
HETATM   15  C15 STQ 4 619     -40.696 138.870   9.065  1.00 29.53     0.001 C 
HETATM   16  C16 STQ 4 619     -51.080 145.109  11.875  1.00 29.53     0.020 C 
HETATM   17  C17 STQ 4 619     -49.948 143.104  12.780  1.00 29.53     0.020 C 
HETATM   18  C18 STQ 4 619     -47.095 147.010  13.388  1.00 29.53     0.044 C 
HETATM   19  C19 STQ 4 619     -46.629 144.045   9.172  1.00 29.53     0.048 C 
HETATM   20  C20 STQ 4 619     -41.943 141.272   7.789  1.00 29.53     0.048 C 
HETATM   21  O3  STQ 4 619     -50.942 146.298  16.229  1.00 29.53    -0.395 OA
ATOM     22  H3  STQ 4 619     -50.462 146.811  16.868  1.00  0.00     0.210 HD
HETATM   23  C21 STQ 4 619     -34.157 128.151   6.977  1.00 29.53    -0.035 C 
HETATM   24  C22 STQ 4 619     -33.422 127.540   5.792  1.00 29.53     0.045 C 
HETATM   25  C23 STQ 4 619     -31.921 127.800   5.739  1.00 29.53     0.142 C 
HETATM   26  C24 STQ 4 619     -31.528 129.153   6.285  1.00 29.53     0.007 C 
HETATM   27  C25 STQ 4 619     -32.288 129.825   7.156  1.00 29.53    -0.077 C 
HETATM   28  C26 STQ 4 619     -33.777 129.624   7.171  1.00 29.53     0.044 C 
HETATM   29  C27 STQ 4 619     -34.434 130.169   8.422  1.00 29.53    -0.016 C 
HETATM   30  C28 STQ 4 619     -35.178 131.257   8.263  1.00 29.53     0.003 C 
HETATM   31  C29 STQ 4 619     -35.925 131.919   9.342  1.00 29.53    -0.062 C 
HETATM   32  C30 STQ 4 619     -36.720 132.918   8.953  1.00 29.53     0.007 C 
HETATM   33  C31 STQ 4 619     -37.591 133.710   9.812  1.00 29.53     0.001 C 
HETATM   34  C32 STQ 4 619     -38.125 134.762   9.205  1.00 29.53     0.007 C 
HETATM   35  C33 STQ 4 619     -39.059 135.706   9.829  1.00 29.53    -0.062 C 
HETATM   36  C34 STQ 4 619     -39.408 136.807   9.146  1.00 29.53     0.007 C 
HETATM   37  C35 STQ 4 619     -40.362 137.755   9.707  1.00 29.53     0.001 C 
HETATM   38  C36 STQ 4 619     -33.900 127.328   8.235  1.00 29.53     0.016 C 
HETATM   39  C37 STQ 4 619     -35.647 128.061   6.669  1.00 29.53     0.016 C 
HETATM   40  C38 STQ 4 619     -31.622 130.787   8.094  1.00 29.53     0.044 C 
HETATM   41  C39 STQ 4 619     -35.819 131.486  10.774  1.00 29.53     0.048 C 
HETATM   42  C40 STQ 4 619     -39.620 135.415  11.186  1.00 29.53     0.048 C 
HETATM   43  O23 STQ 4 619     -31.526 127.754   4.367  1.00 29.53    -0.392 OA
ATOM     44  H23 STQ 4 619     -30.591 127.916   4.334  1.00  0.00     0.210 HD
ENDROOT
TORSDOF 12
