REMARK VINA RESULT:    -9.754      0.000      0.000
REMARK INTER + INTRA:         -12.983
REMARK INTER:                  -9.754
REMARK INTRA:                  -3.229
REMARK UNBOUND:                -3.229
REMARK  0 active torsions:
REMARK  status: ('A' for Active; 'I' for Inactive)
REMARK       I    between atoms: C3_3  and  O3_21 
REMARK       I    between atoms: C6_6  and  C7_7 
REMARK       I    between atoms: C8_8  and  C9_9 
REMARK       I    between atoms: C10_10  and  C11_11 
REMARK       I    between atoms: C12_12  and  C13_13 
REMARK       I    between atoms: C14_14  and  C15_15 
REMARK       I    between atoms: C23_25  and  O23_43 
REMARK       I    between atoms: C26_28  and  C27_29 
REMARK       I    between atoms: C28_30  and  C29_31 
REMARK       I    between atoms: C30_32  and  C31_33 
REMARK       I    between atoms: C32_34  and  C33_35 
REMARK       I    between atoms: C34_36  and  C35_37 
ROOT
HETATM    1  C1  STQ N1621     -34.342 127.011   6.299  1.00 51.88    -0.018 C 
HETATM    2  C2  STQ N1621     -33.940 126.445   4.943  1.00 51.88     0.045 C 
HETATM    3  C3  STQ N1621     -32.771 127.107   4.248  1.00 51.88     0.123 C 
HETATM    4  C4  STQ N1621     -31.695 127.433   5.256  1.00 51.88     0.066 C 
HETATM    5  C5  STQ N1621     -32.258 128.357   6.294  1.00 51.88    -0.074 C 
HETATM    6  C6  STQ N1621     -33.458 128.124   6.830  1.00 51.88    -0.048 C 
HETATM    7  C7  STQ N1621     -33.990 128.925   7.964  1.00 51.88     0.009 C 
HETATM    8  C8  STQ N1621     -34.602 130.098   7.784  1.00 51.88     0.007 C 
HETATM    9  C9  STQ N1621     -35.185 130.898   8.869  1.00 51.88    -0.062 C 
HETATM   10  C10 STQ N1621     -36.085 131.801   8.477  1.00 51.88     0.007 C 
HETATM   11  C11 STQ N1621     -36.847 132.696   9.330  1.00 51.88     0.001 C 
HETATM   12  C12 STQ N1621     -37.699 133.476   8.678  1.00 51.88     0.007 C 
HETATM   13  C13 STQ N1621     -38.603 134.411   9.360  1.00 51.88    -0.062 C 
HETATM   14  C14 STQ N1621     -39.411 135.178   8.617  1.00 51.88     0.007 C 
HETATM   15  C15 STQ N1621     -40.358 136.099   9.230  1.00 51.88     0.001 C 
HETATM   16  C16 STQ N1621     -34.419 125.850   7.278  1.00 51.88     0.020 C 
HETATM   17  C17 STQ N1621     -35.735 127.576   6.151  1.00 51.88     0.020 C 
HETATM   18  C18 STQ N1621     -31.286 129.338   6.872  1.00 51.88     0.044 C 
HETATM   19  C19 STQ N1621     -34.805 130.708  10.303  1.00 51.88     0.048 C 
HETATM   20  C20 STQ N1621     -38.636 134.459  10.856  1.00 51.88     0.048 C 
HETATM   21  O3  STQ N1621     -32.224 126.190   3.297  1.00 51.88    -0.395 OA
ATOM     22  H3  STQ N1621     -31.489 126.605   2.860  1.00  0.00     0.210 HD
HETATM   23  C21 STQ N1621     -49.851 144.779  10.085  1.00 51.88    -0.035 C 
HETATM   24  C22 STQ N1621     -50.684 145.821  10.814  1.00 51.88     0.045 C 
HETATM   25  C23 STQ N1621     -50.103 147.219  10.713  1.00 51.88     0.142 C 
HETATM   26  C24 STQ N1621     -48.651 147.208  11.107  1.00 51.88     0.007 C 
HETATM   27  C25 STQ N1621     -47.885 146.115  11.016  1.00 51.88    -0.077 C 
HETATM   28  C26 STQ N1621     -48.398 144.772  10.574  1.00 51.88     0.044 C 
HETATM   29  C27 STQ N1621     -47.449 144.195   9.547  1.00 51.88    -0.016 C 
HETATM   30  C28 STQ N1621     -46.904 143.016   9.815  1.00 51.88     0.003 C 
HETATM   31  C29 STQ N1621     -45.970 142.345   8.900  1.00 51.88    -0.062 C 
HETATM   32  C30 STQ N1621     -45.564 141.115   9.234  1.00 51.88     0.007 C 
HETATM   33  C31 STQ N1621     -44.643 140.303   8.448  1.00 51.88     0.001 C 
HETATM   34  C32 STQ N1621     -43.820 139.497   9.117  1.00 51.88     0.007 C 
HETATM   35  C33 STQ N1621     -42.853 138.631   8.428  1.00 51.88    -0.062 C 
HETATM   36  C34 STQ N1621     -42.040 137.823   9.127  1.00 51.88     0.007 C 
HETATM   37  C35 STQ N1621     -41.078 136.934   8.483  1.00 51.88     0.001 C 
HETATM   38  C36 STQ N1621     -49.956 145.013   8.584  1.00 51.88     0.016 C 
HETATM   39  C37 STQ N1621     -50.474 143.430  10.397  1.00 51.88     0.016 C 
HETATM   40  C38 STQ N1621     -46.446 146.227  11.400  1.00 51.88     0.044 C 
HETATM   41  C39 STQ N1621     -45.504 143.028   7.652  1.00 51.88     0.048 C 
HETATM   42  C40 STQ N1621     -42.803 138.669   6.942  1.00 51.88     0.048 C 
HETATM   43  O23 STQ N1621     -50.823 148.055  11.617  1.00 51.88    -0.392 OA
ATOM     44  H23 STQ N1621     -50.460 148.930  11.554  1.00  0.00     0.210 HD
ENDROOT
TORSDOF 12
