REMARK VINA RESULT:    -9.471      0.000      0.000
REMARK INTER + INTRA:          -9.680
REMARK INTER:                  -9.471
REMARK INTRA:                  -0.210
REMARK UNBOUND:                -0.210
REMARK  0 active torsions:
REMARK  status: ('A' for Active; 'I' for Inactive)
REMARK       I    between atoms: C3_3  and  O3_21 
REMARK       I    between atoms: C6_6  and  C7_7 
REMARK       I    between atoms: C8_8  and  C9_9 
REMARK       I    between atoms: C10_10  and  C11_11 
REMARK       I    between atoms: C12_12  and  C13_13 
REMARK       I    between atoms: C14_14  and  C15_15 
REMARK       I    between atoms: C23_25  and  O23_43 
REMARK       I    between atoms: C26_28  and  C27_29 
REMARK       I    between atoms: C28_30  and  C29_31 
REMARK       I    between atoms: C30_32  and  C31_33 
REMARK       I    between atoms: C32_34  and  C33_35 
REMARK       I    between atoms: C34_36  and  C35_37 
ROOT
HETATM    1  C1  STQ G6621     -34.075 128.308   7.227  1.00 23.69    -0.018 C 
HETATM    2  C2  STQ G6621     -33.329 127.521   6.138  1.00 24.09     0.045 C 
HETATM    3  C3  STQ G6621     -32.007 128.044   5.583  1.00 24.28     0.123 C 
HETATM    4  C4  STQ G6621     -31.363 129.165   6.412  1.00 23.79     0.066 C 
HETATM    5  C5  STQ G6621     -32.157 129.949   7.412  1.00 23.83    -0.074 C 
HETATM    6  C6  STQ G6621     -33.412 129.586   7.828  1.00 23.66    -0.048 C 
HETATM    7  C7  STQ G6621     -34.236 130.306   8.835  1.00 22.83     0.009 C 
HETATM    8  C8  STQ G6621     -34.953 131.432   8.596  1.00 20.24     0.007 C 
HETATM    9  C9  STQ G6621     -35.788 132.195   9.533  1.00 21.52    -0.062 C 
HETATM   10  C10 STQ G6621     -36.519 133.217   9.031  1.00 20.57     0.007 C 
HETATM   11  C11 STQ G6621     -37.476 134.018   9.753  1.00 19.35     0.001 C 
HETATM   12  C12 STQ G6621     -38.243 134.958   9.159  1.00 20.67     0.007 C 
HETATM   13  C13 STQ G6621     -39.318 135.755   9.780  1.00 22.18    -0.062 C 
HETATM   14  C14 STQ G6621     -39.991 136.633   9.004  1.00 21.93     0.007 C 
HETATM   15  C15 STQ G6621     -41.092 137.479   9.400  1.00 21.89     0.001 C 
HETATM   16  C16 STQ G6621     -34.258 127.231   8.320  1.00 22.02     0.020 C 
HETATM   17  C17 STQ G6621     -35.455 128.653   6.632  1.00 22.09     0.020 C 
HETATM   18  C18 STQ G6621     -31.353 131.099   7.901  1.00 25.09     0.044 C 
HETATM   19  C19 STQ G6621     -35.843 131.730  10.969  1.00 16.21     0.048 C 
HETATM   20  C20 STQ G6621     -39.616 135.520  11.235  1.00 20.93     0.048 C 
HETATM   21  O3  STQ G6621     -31.093 126.968   5.396  1.00 23.32    -0.395 OA
ATOM     22  H3  STQ G6621     -30.269 127.293   5.050  1.00  0.00     0.210 HD
HETATM   23  C21 STQ G6621     -50.921 145.822   9.933  1.00 19.02    -0.035 C 
HETATM   24  C22 STQ G6621     -52.030 146.631  10.639  1.00 18.22     0.045 C 
HETATM   25  C23 STQ G6621     -51.688 148.108  10.857  1.00 19.51     0.142 C 
HETATM   26  C24 STQ G6621     -50.230 148.343  11.296  1.00 18.29     0.007 C 
HETATM   27  C25 STQ G6621     -49.278 147.386  11.153  1.00 19.71    -0.077 C 
HETATM   28  C26 STQ G6621     -49.509 145.991  10.569  1.00 19.08     0.044 C 
HETATM   29  C27 STQ G6621     -48.385 145.568   9.638  1.00 19.58    -0.016 C 
HETATM   30  C28 STQ G6621     -47.711 144.410   9.762  1.00 20.67     0.003 C 
HETATM   31  C29 STQ G6621     -46.748 143.834   8.830  1.00 21.92    -0.062 C 
HETATM   32  C30 STQ G6621     -46.143 142.676   9.173  1.00 23.00     0.007 C 
HETATM   33  C31 STQ G6621     -45.149 141.967   8.401  1.00 23.88     0.001 C 
HETATM   34  C32 STQ G6621     -44.460 140.909   8.892  1.00 22.59     0.007 C 
HETATM   35  C33 STQ G6621     -43.403 140.132   8.236  1.00 21.40    -0.062 C 
HETATM   36  C34 STQ G6621     -42.778 139.182   8.966  1.00 20.55     0.007 C 
HETATM   37  C35 STQ G6621     -41.681 138.343   8.561  1.00 21.49     0.001 C 
HETATM   38  C36 STQ G6621     -50.894 146.250   8.435  1.00 19.20     0.016 C 
HETATM   39  C37 STQ G6621     -51.341 144.345   9.988  1.00 16.30     0.016 C 
HETATM   40  C38 STQ G6621     -47.920 147.760  11.635  1.00 16.85     0.044 C 
HETATM   41  C39 STQ G6621     -46.436 144.608   7.585  1.00 23.01     0.048 C 
HETATM   42  C40 STQ G6621     -43.042 140.497   6.826  1.00 20.32     0.048 C 
HETATM   43  O23 STQ G6621     -52.598 148.684  11.785  1.00 20.61    -0.392 OA
ATOM     44  H23 STQ G6621     -53.498 148.540  11.514  1.00  0.00     0.210 HD
ENDROOT
TORSDOF 12
