REMARK VINA RESULT:    -6.567      1.180     16.881
REMARK INTER + INTRA:          -9.655
REMARK INTER:                  -9.146
REMARK INTRA:                  -0.509
REMARK UNBOUND:                -3.087
REMARK  0 active torsions:
REMARK  status: ('A' for Active; 'I' for Inactive)
REMARK       I    between atoms: C3_3  and  O3_21 
REMARK       I    between atoms: C6_6  and  C7_7 
REMARK       I    between atoms: C8_8  and  C9_9 
REMARK       I    between atoms: C10_10  and  C11_11 
REMARK       I    between atoms: C12_12  and  C13_13 
REMARK       I    between atoms: C14_14  and  C15_15 
REMARK       I    between atoms: C23_25  and  O23_43 
REMARK       I    between atoms: C26_28  and  C27_29 
REMARK       I    between atoms: C28_30  and  C29_31 
REMARK       I    between atoms: C30_32  and  C31_33 
REMARK       I    between atoms: C32_34  and  C33_35 
REMARK       I    between atoms: C34_36  and  C35_37 
ROOT
HETATM    1  C1  STQ G1621     -51.364 144.250  11.348  1.00 57.09    -0.018 C 
HETATM    2  C2  STQ G1621     -52.094 144.582  12.642  1.00 57.09     0.045 C 
HETATM    3  C3  STQ G1621     -51.518 145.693  13.502  1.00 57.09     0.123 C 
HETATM    4  C4  STQ G1621     -50.957 146.799  12.636  1.00 57.09     0.066 C 
HETATM    5  C5  STQ G1621     -49.907 146.217  11.735  1.00 57.09    -0.074 C 
HETATM    6  C6  STQ G1621     -50.155 145.105  11.033  1.00 57.09    -0.048 C 
HETATM    7  C7  STQ G1621     -49.274 144.680   9.912  1.00 57.09     0.009 C 
HETATM    8  C8  STQ G1621     -48.129 144.024  10.124  1.00 57.09     0.007 C 
HETATM    9  C9  STQ G1621     -47.231 143.566   9.051  1.00 57.09    -0.062 C 
HETATM   10  C10 STQ G1621     -46.411 142.564   9.374  1.00 57.09     0.007 C 
HETATM   11  C11 STQ G1621     -45.450 141.905   8.498  1.00 57.09     0.001 C 
HETATM   12  C12 STQ G1621     -44.792 140.897   9.061  1.00 57.09     0.007 C 
HETATM   13  C13 STQ G1621     -43.806 140.058   8.366  1.00 57.09    -0.062 C 
HETATM   14  C14 STQ G1621     -43.142 139.130   9.068  1.00 57.09     0.007 C 
HETATM   15  C15 STQ G1621     -42.188 138.231   8.432  1.00 57.09     0.001 C 
HETATM   16  C16 STQ G1621     -52.390 144.328  10.228  1.00 57.09     0.020 C 
HETATM   17  C17 STQ G1621     -50.867 142.826  11.465  1.00 57.09     0.020 C 
HETATM   18  C18 STQ G1621     -48.928 147.257  11.278  1.00 57.09     0.044 C 
HETATM   19  C19 STQ G1621     -47.243 144.186   7.688  1.00 57.09     0.048 C 
HETATM   20  C20 STQ G1621     -43.595 140.214   6.892  1.00 57.09     0.048 C 
HETATM   21  O3  STQ G1621     -52.581 146.223  14.295  1.00 57.09    -0.395 OA
ATOM     22  H3  STQ G1621     -52.933 145.528  14.839  1.00  0.00     0.210 HD
HETATM   23  C21 STQ G1621     -34.140 128.366   7.131  1.00 57.09    -0.035 C 
HETATM   24  C22 STQ G1621     -33.164 127.562   6.290  1.00 57.09     0.045 C 
HETATM   25  C23 STQ G1621     -31.709 127.929   6.513  1.00 57.09     0.142 C 
HETATM   26  C24 STQ G1621     -31.523 129.423   6.511  1.00 57.09     0.007 C 
HETATM   27  C25 STQ G1621     -32.514 130.283   6.773  1.00 57.09    -0.077 C 
HETATM   28  C26 STQ G1621     -33.952 129.869   6.917  1.00 57.09     0.044 C 
HETATM   29  C27 STQ G1621     -34.603 130.684   8.015  1.00 57.09    -0.016 C 
HETATM   30  C28 STQ G1621     -35.673 131.404   7.706  1.00 57.09     0.003 C 
HETATM   31  C29 STQ G1621     -36.392 132.233   8.682  1.00 57.09    -0.062 C 
HETATM   32  C30 STQ G1621     -37.556 132.749   8.282  1.00 57.09     0.007 C 
HETATM   33  C31 STQ G1621     -38.394 133.594   9.117  1.00 57.09     0.001 C 
HETATM   34  C32 STQ G1621     -39.062 134.552   8.489  1.00 57.09     0.007 C 
HETATM   35  C33 STQ G1621     -39.949 135.477   9.196  1.00 57.09    -0.062 C 
HETATM   36  C34 STQ G1621     -40.702 136.337   8.506  1.00 57.09     0.007 C 
HETATM   37  C35 STQ G1621     -41.621 137.268   9.149  1.00 57.09     0.001 C 
HETATM   38  C36 STQ G1621     -34.004 127.984   8.603  1.00 57.09     0.016 C 
HETATM   39  C37 STQ G1621     -35.531 127.986   6.651  1.00 57.09     0.016 C 
HETATM   40  C38 STQ G1621     -32.172 131.731   6.902  1.00 57.09     0.044 C 
HETATM   41  C39 STQ G1621     -35.839 132.493  10.048  1.00 57.09     0.048 C 
HETATM   42  C40 STQ G1621     -39.963 135.435  10.680  1.00 57.09     0.048 C 
HETATM   43  O23 STQ G1621     -30.938 127.385   5.439  1.00 57.09    -0.392 OA
ATOM     44  H23 STQ G1621     -30.026 127.615   5.579  1.00  0.00     0.210 HD
ENDROOT
TORSDOF 12
