REMARK VINA RESULT:    -7.370      1.710     16.764
REMARK INTER + INTRA:         -10.908
REMARK INTER:                  -8.936
REMARK INTRA:                  -1.972
REMARK UNBOUND:                -3.538
REMARK  0 active torsions:
REMARK  status: ('A' for Active; 'I' for Inactive)
REMARK       I    between atoms: C3_3  and  O3_21 
REMARK       I    between atoms: C6_6  and  C7_7 
REMARK       I    between atoms: C8_8  and  C9_9 
REMARK       I    between atoms: C10_10  and  C11_11 
REMARK       I    between atoms: C12_12  and  C13_13 
REMARK       I    between atoms: C14_14  and  C15_15 
REMARK       I    between atoms: C23_25  and  O23_43 
REMARK       I    between atoms: C26_28  and  C27_29 
REMARK       I    between atoms: C28_30  and  C29_31 
REMARK       I    between atoms: C30_32  and  C31_33 
REMARK       I    between atoms: C32_34  and  C33_35 
REMARK       I    between atoms: C34_36  and  C35_37 
ROOT
HETATM    1  C1  STQ Z 618     -47.814 145.690  12.890  1.00 27.67    -0.018 C 
HETATM    2  C2  STQ Z 618     -48.583 146.031  14.166  1.00 27.67     0.045 C 
HETATM    3  C3  STQ Z 618     -47.853 146.859  15.213  1.00 27.67     0.123 C 
HETATM    4  C4  STQ Z 618     -46.974 147.902  14.559  1.00 27.67     0.066 C 
HETATM    5  C5  STQ Z 618     -45.985 147.165  13.706  1.00 27.67    -0.074 C 
HETATM    6  C6  STQ Z 618     -46.413 146.271  12.813  1.00 27.67    -0.048 C 
HETATM    7  C7  STQ Z 618     -45.541 145.833  11.695  1.00 27.67     0.009 C 
HETATM    8  C8  STQ Z 618     -44.591 144.910  11.856  1.00 27.67     0.007 C 
HETATM    9  C9  STQ Z 618     -43.746 144.470  10.738  1.00 27.67    -0.062 C 
HETATM   10  C10 STQ Z 618     -43.150 143.282  10.868  1.00 27.67     0.007 C 
HETATM   11  C11 STQ Z 618     -42.299 142.649   9.869  1.00 27.67     0.001 C 
HETATM   12  C12 STQ Z 618     -41.971 141.405  10.193  1.00 27.67     0.007 C 
HETATM   13  C13 STQ Z 618     -41.164 140.472   9.396  1.00 27.67    -0.062 C 
HETATM   14  C14 STQ Z 618     -40.919 139.271   9.937  1.00 27.67     0.007 C 
HETATM   15  C15 STQ Z 618     -40.184 138.227   9.239  1.00 27.67     0.001 C 
HETATM   16  C16 STQ Z 618     -48.664 146.153  11.711  1.00 27.67     0.020 C 
HETATM   17  C17 STQ Z 618     -47.673 144.176  12.817  1.00 27.67     0.020 C 
HETATM   18  C18 STQ Z 618     -44.803 148.052  13.457  1.00 27.67     0.044 C 
HETATM   19  C19 STQ Z 618     -43.568 145.320   9.519  1.00 27.67     0.048 C 
HETATM   20  C20 STQ Z 618     -40.667 140.836   8.032  1.00 27.67     0.048 C 
HETATM   21  O3  STQ Z 618     -48.818 147.509  16.041  1.00 27.67    -0.395 OA
ATOM     22  H3  STQ Z 618     -49.370 146.854  16.452  1.00  0.00     0.210 HD
HETATM   23  C21 STQ Z 618     -34.581 127.008   6.348  1.00 27.67    -0.035 C 
HETATM   24  C22 STQ Z 618     -33.899 126.213   5.240  1.00 27.67     0.045 C 
HETATM   25  C23 STQ Z 618     -32.452 126.603   4.983  1.00 27.67     0.142 C 
HETATM   26  C24 STQ Z 618     -32.313 128.096   4.899  1.00 27.67     0.007 C 
HETATM   27  C25 STQ Z 618     -33.031 128.895   5.688  1.00 27.67    -0.077 C 
HETATM   28  C26 STQ Z 618     -34.415 128.520   6.145  1.00 27.67     0.044 C 
HETATM   29  C27 STQ Z 618     -34.787 129.284   7.398  1.00 27.67    -0.016 C 
HETATM   30  C28 STQ Z 618     -35.770 130.173   7.321  1.00 27.67     0.003 C 
HETATM   31  C29 STQ Z 618     -36.218 130.971   8.473  1.00 27.67    -0.062 C 
HETATM   32  C30 STQ Z 618     -37.234 131.815   8.272  1.00 27.67     0.007 C 
HETATM   33  C31 STQ Z 618     -37.807 132.677   9.296  1.00 27.67     0.001 C 
HETATM   34  C32 STQ Z 618     -38.192 133.877   8.877  1.00 27.67     0.007 C 
HETATM   35  C33 STQ Z 618     -38.808 134.897   9.738  1.00 27.67    -0.062 C 
HETATM   36  C34 STQ Z 618     -39.271 136.004   9.145  1.00 27.67     0.007 C 
HETATM   37  C35 STQ Z 618     -39.950 137.076   9.862  1.00 27.67     0.001 C 
HETATM   38  C36 STQ Z 618     -34.046 126.548   7.697  1.00 27.67     0.016 C 
HETATM   39  C37 STQ Z 618     -36.065 126.674   6.306  1.00 27.67     0.016 C 
HETATM   40  C38 STQ Z 618     -32.412 130.188   6.108  1.00 27.67     0.044 C 
HETATM   41  C39 STQ Z 618     -35.554 130.835   9.810  1.00 27.67     0.048 C 
HETATM   42  C40 STQ Z 618     -38.909 134.712  11.219  1.00 27.67     0.048 C 
HETATM   43  O23 STQ Z 618     -32.018 126.040   3.744  1.00 27.67    -0.392 OA
ATOM     44  H23 STQ Z 618     -31.114 126.284   3.584  1.00  0.00     0.210 HD
ENDROOT
TORSDOF 12
