REMARK VINA RESULT:   -10.156      1.852     16.808
REMARK INTER + INTRA:         -10.467
REMARK INTER:                 -10.135
REMARK INTRA:                  -0.332
REMARK UNBOUND:                -0.311
REMARK  0 active torsions:
REMARK  status: ('A' for Active; 'I' for Inactive)
REMARK       I    between atoms: C3_3  and  O3_21 
REMARK       I    between atoms: C6_6  and  C7_7 
REMARK       I    between atoms: C8_8  and  C9_9 
REMARK       I    between atoms: C10_10  and  C11_11 
REMARK       I    between atoms: C12_12  and  C13_13 
REMARK       I    between atoms: C14_14  and  C15_15 
REMARK       I    between atoms: C23_25  and  O23_43 
REMARK       I    between atoms: C26_28  and  C27_29 
REMARK       I    between atoms: C28_30  and  C29_31 
REMARK       I    between atoms: C30_32  and  C31_33 
REMARK       I    between atoms: C32_34  and  C33_35 
REMARK       I    between atoms: C34_36  and  C35_37 
ROOT
HETATM    1  C1  STQ Y1621     -49.238 145.779  13.095  1.00 26.19    -0.018 C 
HETATM    2  C2  STQ Y1621     -50.090 146.245  14.269  1.00 26.65     0.045 C 
HETATM    3  C3  STQ Y1621     -49.392 147.027  15.365  1.00 28.07     0.123 C 
HETATM    4  C4  STQ Y1621     -48.368 147.978  14.802  1.00 30.07     0.066 C 
HETATM    5  C5  STQ Y1621     -47.392 147.208  13.973  1.00 28.83    -0.074 C 
HETATM    6  C6  STQ Y1621     -47.827 146.346  13.049  1.00 27.49    -0.048 C 
HETATM    7  C7  STQ Y1621     -46.962 145.902  11.927  1.00 29.45     0.009 C 
HETATM    8  C8  STQ Y1621     -45.955 145.041  12.095  1.00 27.83     0.007 C 
HETATM    9  C9  STQ Y1621     -45.125 144.569  10.982  1.00 26.06    -0.062 C 
HETATM   10  C10 STQ Y1621     -44.390 143.489  11.233  1.00 25.01     0.007 C 
HETATM   11  C11 STQ Y1621     -43.544 142.824  10.266  1.00 25.09     0.001 C 
HETATM   12  C12 STQ Y1621     -42.934 141.749  10.726  1.00 26.01     0.007 C 
HETATM   13  C13 STQ Y1621     -42.092 140.890   9.891  1.00 26.36    -0.062 C 
HETATM   14  C14 STQ Y1621     -41.605 139.777  10.446  1.00 27.67     0.007 C 
HETATM   15  C15 STQ Y1621     -40.792 138.849   9.677  1.00 28.38     0.001 C 
HETATM   16  C16 STQ Y1621     -50.020 146.183  11.857  1.00 26.46     0.020 C 
HETATM   17  C17 STQ Y1621     -49.114 144.263  13.146  1.00 26.61     0.020 C 
HETATM   18  C18 STQ Y1621     -46.225 148.115  13.762  1.00 29.43     0.044 C 
HETATM   19  C19 STQ Y1621     -45.122 145.250   9.651  1.00 26.07     0.048 C 
HETATM   20  C20 STQ Y1621     -41.846 141.230   8.454  1.00 25.83     0.048 C 
HETATM   21  O3  STQ Y1621     -50.367 147.775  16.086  1.00 27.44    -0.395 OA
ATOM     22  H3  STQ Y1621     -51.012 147.175  16.442  1.00  0.00     0.210 HD
HETATM   23  C21 STQ Y1621     -34.230 128.386   6.987  1.00 36.06    -0.035 C 
HETATM   24  C22 STQ Y1621     -33.467 127.544   5.990  1.00 35.97     0.045 C 
HETATM   25  C23 STQ Y1621     -31.954 127.651   6.004  1.00 37.89     0.142 C 
HETATM   26  C24 STQ Y1621     -31.480 129.044   6.320  1.00 35.66     0.007 C 
HETATM   27  C25 STQ Y1621     -32.293 130.004   6.781  1.00 33.59    -0.077 C 
HETATM   28  C26 STQ Y1621     -33.780 129.846   6.915  1.00 33.73     0.044 C 
HETATM   29  C27 STQ Y1621     -34.292 130.595   8.121  1.00 31.94    -0.016 C 
HETATM   30  C28 STQ Y1621     -35.262 131.477   7.947  1.00 31.56     0.003 C 
HETATM   31  C29 STQ Y1621     -35.839 132.235   9.052  1.00 29.73    -0.062 C 
HETATM   32  C30 STQ Y1621     -36.952 132.908   8.780  1.00 28.64     0.007 C 
HETATM   33  C31 STQ Y1621     -37.663 133.721   9.743  1.00 27.79     0.001 C 
HETATM   34  C32 STQ Y1621     -38.263 134.782   9.233  1.00 27.11     0.007 C 
HETATM   35  C33 STQ Y1621     -39.034 135.716  10.050  1.00 25.78    -0.062 C 
HETATM   36  C34 STQ Y1621     -39.570 136.799   9.483  1.00 26.10     0.007 C 
HETATM   37  C35 STQ Y1621     -40.361 137.741  10.257  1.00 27.22     0.001 C 
HETATM   38  C36 STQ Y1621     -34.079 127.810   8.392  1.00 34.31     0.016 C 
HETATM   39  C37 STQ Y1621     -35.685 128.267   6.558  1.00 37.49     0.016 C 
HETATM   40  C38 STQ Y1621     -31.706 131.320   7.145  1.00 34.38     0.044 C 
HETATM   41  C39 STQ Y1621     -35.199 132.232  10.400  1.00 32.37     0.048 C 
HETATM   42  C40 STQ Y1621     -39.210 135.431  11.498  1.00 25.14     0.048 C 
HETATM   43  O23 STQ Y1621     -31.509 127.287   4.694  1.00 41.29    -0.392 OA
ATOM     44  H23 STQ Y1621     -30.562 127.354   4.702  1.00  0.00     0.210 HD
ENDROOT
TORSDOF 12
