REMARK VINA RESULT:    -6.406      0.000      0.000
REMARK INTER + INTRA:         -10.772
REMARK INTER:                  -6.406
REMARK INTRA:                  -4.366
REMARK UNBOUND:                -4.366
REMARK  0 active torsions:
REMARK  status: ('A' for Active; 'I' for Inactive)
REMARK       I    between atoms: C3_3  and  O3_21 
REMARK       I    between atoms: C6_6  and  C7_7 
REMARK       I    between atoms: C8_8  and  C9_9 
REMARK       I    between atoms: C10_10  and  C11_11 
REMARK       I    between atoms: C12_12  and  C13_13 
REMARK       I    between atoms: C14_14  and  C15_15 
REMARK       I    between atoms: C23_25  and  O23_43 
REMARK       I    between atoms: C26_28  and  C27_29 
REMARK       I    between atoms: C28_30  and  C29_31 
REMARK       I    between atoms: C30_32  and  C31_33 
REMARK       I    between atoms: C32_34  and  C33_35 
REMARK       I    between atoms: C34_36  and  C35_37 
ROOT
HETATM    1  C1  STQ 8 618     -34.673 127.067   5.340  1.00 13.13    -0.018 C 
HETATM    2  C2  STQ 8 618     -34.144 126.257   4.165  1.00 13.13     0.045 C 
HETATM    3  C3  STQ 8 618     -32.905 126.820   3.507  1.00 13.13     0.123 C 
HETATM    4  C4  STQ 8 618     -31.848 127.070   4.552  1.00 13.13     0.066 C 
HETATM    5  C5  STQ 8 618     -32.366 127.967   5.641  1.00 13.13    -0.074 C 
HETATM    6  C6  STQ 8 618     -33.641 127.919   6.062  1.00 13.13    -0.048 C 
HETATM    7  C7  STQ 8 618     -34.093 128.641   7.285  1.00 13.13     0.009 C 
HETATM    8  C8  STQ 8 618     -34.408 129.943   7.331  1.00 13.13     0.007 C 
HETATM    9  C9  STQ 8 618     -34.869 130.603   8.566  1.00 13.13    -0.062 C 
HETATM   10  C10 STQ 8 618     -35.548 131.744   8.433  1.00 13.13     0.007 C 
HETATM   11  C11 STQ 8 618     -36.103 132.520   9.535  1.00 13.13     0.001 C 
HETATM   12  C12 STQ 8 618     -36.967 133.442   9.137  1.00 13.13     0.007 C 
HETATM   13  C13 STQ 8 618     -37.734 134.380   9.970  1.00 13.13    -0.062 C 
HETATM   14  C14 STQ 8 618     -38.351 135.399   9.355  1.00 13.13     0.007 C 
HETATM   15  C15 STQ 8 618     -39.165 136.352  10.091  1.00 13.13     0.001 C 
HETATM   16  C16 STQ 8 618     -35.297 126.049   6.279  1.00 13.13     0.020 C 
HETATM   17  C17 STQ 8 618     -35.739 128.019   4.821  1.00 13.13     0.020 C 
HETATM   18  C18 STQ 8 618     -31.277 128.640   6.419  1.00 13.13     0.044 C 
HETATM   19  C19 STQ 8 618     -34.589 130.019   9.917  1.00 13.13     0.048 C 
HETATM   20  C20 STQ 8 618     -37.861 134.189  11.446  1.00 13.13     0.048 C 
HETATM   21  O3  STQ 8 618     -32.406 125.850   2.586  1.00 13.13    -0.395 OA
ATOM     22  H3  STQ 8 618     -33.072 125.693   1.927  1.00  0.00     0.210 HD
HETATM   23  C21 STQ 8 618     -47.164 146.149  12.572  1.00 13.13    -0.035 C 
HETATM   24  C22 STQ 8 618     -47.933 146.840  13.686  1.00 13.13     0.045 C 
HETATM   25  C23 STQ 8 618     -47.102 147.774  14.538  1.00 13.13     0.142 C 
HETATM   26  C24 STQ 8 618     -45.829 147.104  14.962  1.00 13.13     0.007 C 
HETATM   27  C25 STQ 8 618     -45.192 146.247  14.163  1.00 13.13    -0.077 C 
HETATM   28  C26 STQ 8 618     -45.915 145.445  13.116  1.00 13.13     0.044 C 
HETATM   29  C27 STQ 8 618     -44.982 145.052  11.990  1.00 13.13    -0.016 C 
HETATM   30  C28 STQ 8 618     -44.751 143.756  11.843  1.00 13.13     0.003 C 
HETATM   31  C29 STQ 8 618     -43.882 143.203  10.800  1.00 13.13    -0.062 C 
HETATM   32  C30 STQ 8 618     -43.524 141.926  10.942  1.00 13.13     0.007 C 
HETATM   33  C31 STQ 8 618     -42.683 141.192  10.012  1.00 13.13     0.001 C 
HETATM   34  C32 STQ 8 618     -41.958 140.208  10.525  1.00 13.13     0.007 C 
HETATM   35  C33 STQ 8 618     -41.089 139.377   9.684  1.00 13.13    -0.062 C 
HETATM   36  C34 STQ 8 618     -40.648 138.224  10.191  1.00 13.13     0.007 C 
HETATM   37  C35 STQ 8 618     -39.810 137.307   9.436  1.00 13.13     0.001 C 
HETATM   38  C36 STQ 8 618     -46.828 147.154  11.481  1.00 13.13     0.016 C 
HETATM   39  C37 STQ 8 618     -48.097 145.111  11.962  1.00 13.13     0.016 C 
HETATM   40  C38 STQ 8 618     -43.720 146.091  14.349  1.00 13.13     0.044 C 
HETATM   41  C39 STQ 8 618     -43.442 144.034   9.635  1.00 13.13     0.048 C 
HETATM   42  C40 STQ 8 618     -40.720 139.810   8.305  1.00 13.13     0.048 C 
HETATM   43  O23 STQ 8 618     -47.847 148.116  15.705  1.00 13.13    -0.392 OA
ATOM     44  H23 STQ 8 618     -47.325 148.702  16.241  1.00  0.00     0.210 HD
ENDROOT
TORSDOF 12
