REMARK VINA RESULT:    -8.250      2.211     16.822
REMARK INTER + INTRA:         -11.465
REMARK INTER:                 -11.059
REMARK INTRA:                  -0.405
REMARK UNBOUND:                -3.214
REMARK  0 active torsions:
REMARK  status: ('A' for Active; 'I' for Inactive)
REMARK       I    between atoms: C3_3  and  O3_21 
REMARK       I    between atoms: C6_6  and  C7_7 
REMARK       I    between atoms: C8_8  and  C9_9 
REMARK       I    between atoms: C10_10  and  C11_11 
REMARK       I    between atoms: C12_12  and  C13_13 
REMARK       I    between atoms: C14_14  and  C15_15 
REMARK       I    between atoms: C23_25  and  O23_43 
REMARK       I    between atoms: C26_28  and  C27_29 
REMARK       I    between atoms: C28_30  and  C29_31 
REMARK       I    between atoms: C30_32  and  C31_33 
REMARK       I    between atoms: C32_34  and  C33_35 
REMARK       I    between atoms: C34_36  and  C35_37 
ROOT
HETATM    1  C1  STQ 6 621     -50.149 144.607  13.410  1.00 27.76    -0.018 C 
HETATM    2  C2  STQ 6 621     -50.736 144.726  14.814  1.00 27.76     0.045 C 
HETATM    3  C3  STQ 6 621     -50.122 145.712  15.800  1.00 27.76     0.123 C 
HETATM    4  C4  STQ 6 621     -49.435 146.869  15.108  1.00 27.76     0.066 C 
HETATM    5  C5  STQ 6 621     -48.481 146.327  14.080  1.00 27.76    -0.074 C 
HETATM    6  C6  STQ 6 621     -48.853 145.370  13.227  1.00 27.76    -0.048 C 
HETATM    7  C7  STQ 6 621     -47.988 145.065  12.060  1.00 27.76     0.009 C 
HETATM    8  C8  STQ 6 621     -47.052 144.110  12.080  1.00 27.76     0.007 C 
HETATM    9  C9  STQ 6 621     -46.202 143.841  10.907  1.00 27.76    -0.062 C 
HETATM   10  C10 STQ 6 621     -45.306 142.839  10.980  1.00 27.76     0.007 C 
HETATM   11  C11 STQ 6 621     -44.364 142.433   9.936  1.00 27.76     0.001 C 
HETATM   12  C12 STQ 6 621     -43.458 141.528  10.292  1.00 27.76     0.007 C 
HETATM   13  C13 STQ 6 621     -42.407 140.925   9.451  1.00 27.76    -0.062 C 
HETATM   14  C14 STQ 6 621     -41.832 139.810   9.922  1.00 27.76     0.007 C 
HETATM   15  C15 STQ 6 621     -40.803 139.046   9.227  1.00 27.76     0.001 C 
HETATM   16  C16 STQ 6 621     -51.224 145.069  12.430  1.00 27.76     0.020 C 
HETATM   17  C17 STQ 6 621     -49.849 143.142  13.138  1.00 27.76     0.020 C 
HETATM   18  C18 STQ 6 621     -47.342 147.254  13.768  1.00 27.76     0.044 C 
HETATM   19  C19 STQ 6 621     -46.362 144.691   9.687  1.00 27.76     0.048 C 
HETATM   20  C20 STQ 6 621     -41.997 141.513   8.138  1.00 27.76     0.048 C 
HETATM   21  O3  STQ 6 621     -51.147 146.235  16.650  1.00 27.76    -0.395 OA
ATOM     22  H3  STQ 6 621     -50.764 146.850  17.264  1.00  0.00     0.210 HD
HETATM   23  C21 STQ 6 621     -34.135 128.234   7.027  1.00 27.76    -0.035 C 
HETATM   24  C22 STQ 6 621     -33.312 127.595   5.912  1.00 27.76     0.045 C 
HETATM   25  C23 STQ 6 621     -31.812 127.864   5.975  1.00 27.76     0.142 C 
HETATM   26  C24 STQ 6 621     -31.483 129.254   6.472  1.00 27.76     0.007 C 
HETATM   27  C25 STQ 6 621     -32.314 129.936   7.267  1.00 27.76    -0.077 C 
HETATM   28  C26 STQ 6 621     -33.799 129.720   7.175  1.00 27.76     0.044 C 
HETATM   29  C27 STQ 6 621     -34.533 130.310   8.359  1.00 27.76    -0.016 C 
HETATM   30  C28 STQ 6 621     -35.295 131.372   8.125  1.00 27.76     0.003 C 
HETATM   31  C29 STQ 6 621     -36.085 132.046   9.166  1.00 27.76    -0.062 C 
HETATM   32  C30 STQ 6 621     -36.937 132.980   8.735  1.00 27.76     0.007 C 
HETATM   33  C31 STQ 6 621     -37.835 133.760   9.575  1.00 27.76     0.001 C 
HETATM   34  C32 STQ 6 621     -38.361 134.825   8.983  1.00 27.76     0.007 C 
HETATM   35  C33 STQ 6 621     -39.315 135.733   9.630  1.00 27.76    -0.062 C 
HETATM   36  C34 STQ 6 621     -39.645 136.889   9.030  1.00 27.76     0.007 C 
HETATM   37  C35 STQ 6 621     -40.616 137.794   9.641  1.00 27.76     0.001 C 
HETATM   38  C36 STQ 6 621     -33.941 127.485   8.342  1.00 27.76     0.016 C 
HETATM   39  C37 STQ 6 621     -35.599 128.100   6.633  1.00 27.76     0.016 C 
HETATM   40  C38 STQ 6 621     -31.733 130.913   8.244  1.00 27.76     0.044 C 
HETATM   41  C39 STQ 6 621     -35.942 131.696  10.617  1.00 27.76     0.048 C 
HETATM   42  C40 STQ 6 621     -39.926 135.332  10.931  1.00 27.76     0.048 C 
HETATM   43  O23 STQ 6 621     -31.255 127.705   4.665  1.00 27.76    -0.392 OA
ATOM     44  H23 STQ 6 621     -30.321 127.874   4.704  1.00  0.00     0.210 HD
ENDROOT
TORSDOF 12
