REMARK VINA RESULT:   -10.004      0.000      0.000
REMARK INTER + INTRA:         -12.020
REMARK INTER:                 -10.004
REMARK INTRA:                  -2.015
REMARK UNBOUND:                -2.015
REMARK  0 active torsions:
REMARK  status: ('A' for Active; 'I' for Inactive)
REMARK       I    between atoms: C3_3  and  O3_21 
REMARK       I    between atoms: C6_6  and  C7_7 
REMARK       I    between atoms: C8_8  and  C9_9 
REMARK       I    between atoms: C10_10  and  C11_11 
REMARK       I    between atoms: C12_12  and  C13_13 
REMARK       I    between atoms: C14_14  and  C15_15 
REMARK       I    between atoms: C23_25  and  O23_43 
REMARK       I    between atoms: C26_28  and  C27_29 
REMARK       I    between atoms: C28_30  and  C29_31 
REMARK       I    between atoms: C30_32  and  C31_33 
REMARK       I    between atoms: C32_34  and  C33_35 
REMARK       I    between atoms: C34_36  and  C35_37 
ROOT
HETATM    1  C1  STQ 6 619     -34.129 127.125   6.657  1.00 45.52    -0.018 C 
HETATM    2  C2  STQ 6 619     -34.421 127.452   5.194  1.00 45.52     0.045 C 
HETATM    3  C3  STQ 6 619     -33.519 128.528   4.603  1.00 45.52     0.123 C 
HETATM    4  C4  STQ 6 619     -32.145 128.446   5.242  1.00 45.52     0.066 C 
HETATM    5  C5  STQ 6 619     -32.324 128.791   6.692  1.00 45.52    -0.074 C 
HETATM    6  C6  STQ 6 619     -33.330 128.199   7.349  1.00 45.52    -0.048 C 
HETATM    7  C7  STQ 6 619     -33.861 128.774   8.588  1.00 45.52     0.009 C 
HETATM    8  C8  STQ 6 619     -34.300 130.009   8.335  1.00 45.52     0.007 C 
HETATM    9  C9  STQ 6 619     -35.040 130.815   9.330  1.00 45.52    -0.062 C 
HETATM   10  C10 STQ 6 619     -35.638 131.923   8.867  1.00 45.52     0.007 C 
HETATM   11  C11 STQ 6 619     -36.478 132.803   9.674  1.00 45.52     0.001 C 
HETATM   12  C12 STQ 6 619     -37.126 133.785   9.068  1.00 45.52     0.007 C 
HETATM   13  C13 STQ 6 619     -38.044 134.685   9.781  1.00 45.52    -0.062 C 
HETATM   14  C14 STQ 6 619     -38.750 135.516   9.005  1.00 45.52     0.007 C 
HETATM   15  C15 STQ 6 619     -39.741 136.472   9.479  1.00 45.52     0.001 C 
HETATM   16  C16 STQ 6 619     -33.297 125.850   6.733  1.00 45.52     0.020 C 
HETATM   17  C17 STQ 6 619     -35.428 126.926   7.424  1.00 45.52     0.020 C 
HETATM   18  C18 STQ 6 619     -31.464 129.896   7.255  1.00 45.52     0.044 C 
HETATM   19  C19 STQ 6 619     -35.117 130.373  10.765  1.00 45.52     0.048 C 
HETATM   20  C20 STQ 6 619     -38.146 134.629  11.276  1.00 45.52     0.048 C 
HETATM   21  O3  STQ 6 619     -33.391 128.339   3.191  1.00 45.52    -0.395 OA
ATOM     22  H3  STQ 6 619     -32.828 129.010   2.823  1.00  0.00     0.210 HD
HETATM   23  C21 STQ 6 619     -49.332 145.054   8.602  1.00 45.52    -0.035 C 
HETATM   24  C22 STQ 6 619     -50.264 145.735   9.582  1.00 45.52     0.045 C 
HETATM   25  C23 STQ 6 619     -49.810 147.125  10.004  1.00 45.52     0.142 C 
HETATM   26  C24 STQ 6 619     -48.319 147.363   9.869  1.00 45.52     0.007 C 
HETATM   27  C25 STQ 6 619     -47.447 146.430   9.457  1.00 45.52    -0.077 C 
HETATM   28  C26 STQ 6 619     -47.917 145.036   9.163  1.00 45.52     0.044 C 
HETATM   29  C27 STQ 6 619     -47.043 144.273   8.199  1.00 45.52    -0.016 C 
HETATM   30  C28 STQ 6 619     -46.258 143.328   8.696  1.00 45.52     0.003 C 
HETATM   31  C29 STQ 6 619     -45.391 142.511   7.838  1.00 45.52    -0.062 C 
HETATM   32  C30 STQ 6 619     -44.656 141.585   8.465  1.00 45.52     0.007 C 
HETATM   33  C31 STQ 6 619     -43.732 140.670   7.811  1.00 45.52     0.001 C 
HETATM   34  C32 STQ 6 619     -43.050 139.841   8.585  1.00 45.52     0.007 C 
HETATM   35  C33 STQ 6 619     -42.070 138.894   8.040  1.00 45.52    -0.062 C 
HETATM   36  C34 STQ 6 619     -41.386 138.155   8.930  1.00 45.52     0.007 C 
HETATM   37  C35 STQ 6 619     -40.371 137.179   8.555  1.00 45.52     0.001 C 
HETATM   38  C36 STQ 6 619     -49.396 145.736   7.241  1.00 45.52     0.016 C 
HETATM   39  C37 STQ 6 619     -49.817 143.620   8.449  1.00 45.52     0.016 C 
HETATM   40  C38 STQ 6 619     -46.003 146.813   9.308  1.00 45.52     0.044 C 
HETATM   41  C39 STQ 6 619     -45.401 142.726   6.354  1.00 45.52     0.048 C 
HETATM   42  C40 STQ 6 619     -41.887 138.828   6.552  1.00 45.52     0.048 C 
HETATM   43  O23 STQ 6 619     -50.222 147.340  11.359  1.00 45.52    -0.392 OA
ATOM     44  H23 STQ 6 619     -49.939 148.208  11.622  1.00  0.00     0.210 HD
ENDROOT
TORSDOF 12
