REMARK VINA RESULT:    -7.756      2.274     16.844
REMARK INTER + INTRA:          -8.511
REMARK INTER:                  -5.168
REMARK INTRA:                  -3.343
REMARK UNBOUND:                -0.755
REMARK  0 active torsions:
REMARK  status: ('A' for Active; 'I' for Inactive)
REMARK       I    between atoms: C3_3  and  O3_21 
REMARK       I    between atoms: C6_6  and  C7_7 
REMARK       I    between atoms: C8_8  and  C9_9 
REMARK       I    between atoms: C10_10  and  C11_11 
REMARK       I    between atoms: C12_12  and  C13_13 
REMARK       I    between atoms: C14_14  and  C15_15 
REMARK       I    between atoms: C23_25  and  O23_43 
REMARK       I    between atoms: C26_28  and  C27_29 
REMARK       I    between atoms: C28_30  and  C29_31 
REMARK       I    between atoms: C30_32  and  C31_33 
REMARK       I    between atoms: C32_34  and  C33_35 
REMARK       I    between atoms: C34_36  and  C35_37 
ROOT
HETATM    1  C1  STQ 5 620     -34.442 128.109   6.154  1.00 27.86    -0.018 C 
HETATM    2  C2  STQ 5 620     -33.243 127.451   5.481  1.00 27.86     0.045 C 
HETATM    3  C3  STQ 5 620     -32.026 128.358   5.363  1.00 27.86     0.123 C 
HETATM    4  C4  STQ 5 620     -31.636 128.869   6.738  1.00 27.86     0.066 C 
HETATM    5  C5  STQ 5 620     -32.809 129.549   7.392  1.00 27.86    -0.074 C 
HETATM    6  C6  STQ 5 620     -34.056 129.092   7.234  1.00 27.86    -0.048 C 
HETATM    7  C7  STQ 5 620     -35.128 129.563   8.134  1.00 27.86     0.009 C 
HETATM    8  C8  STQ 5 620     -35.330 130.872   8.220  1.00 27.86     0.007 C 
HETATM    9  C9  STQ 5 620     -36.382 131.452   9.074  1.00 27.86    -0.062 C 
HETATM   10  C10 STQ 5 620     -36.692 132.742   8.887  1.00 27.86     0.007 C 
HETATM   11  C11 STQ 5 620     -37.722 133.443   9.646  1.00 27.86     0.001 C 
HETATM   12  C12 STQ 5 620     -38.132 134.595   9.129  1.00 27.86     0.007 C 
HETATM   13  C13 STQ 5 620     -39.176 135.441   9.732  1.00 27.86    -0.062 C 
HETATM   14  C14 STQ 5 620     -39.728 136.384   8.957  1.00 27.86     0.007 C 
HETATM   15  C15 STQ 5 620     -40.780 137.266   9.441  1.00 27.86     0.001 C 
HETATM   16  C16 STQ 5 620     -35.306 127.033   6.799  1.00 27.86     0.020 C 
HETATM   17  C17 STQ 5 620     -35.266 128.853   5.111  1.00 27.86     0.020 C 
HETATM   18  C18 STQ 5 620     -32.411 130.242   8.662  1.00 27.86     0.044 C 
HETATM   19  C19 STQ 5 620     -37.077 130.624  10.110  1.00 27.86     0.048 C 
HETATM   20  C20 STQ 5 620     -39.613 135.255  11.155  1.00 27.86     0.048 C 
HETATM   21  O3  STQ 5 620     -30.937 127.615   4.808  1.00 27.86    -0.395 OA
ATOM     22  H3  STQ 5 620     -30.178 128.181   4.734  1.00  0.00     0.210 HD
HETATM   23  C21 STQ 5 620     -50.363 145.738   8.478  1.00 27.86    -0.035 C 
HETATM   24  C22 STQ 5 620     -51.456 146.293   9.379  1.00 27.86     0.045 C 
HETATM   25  C23 STQ 5 620     -51.212 147.743   9.790  1.00 27.86     0.142 C 
HETATM   26  C24 STQ 5 620     -49.752 148.032  10.062  1.00 27.86     0.007 C 
HETATM   27  C25 STQ 5 620     -48.758 147.261   9.599  1.00 27.86    -0.077 C 
HETATM   28  C26 STQ 5 620     -49.024 145.839   9.194  1.00 27.86     0.044 C 
HETATM   29  C27 STQ 5 620     -47.926 145.294   8.309  1.00 27.86    -0.016 C 
HETATM   30  C28 STQ 5 620     -47.231 144.270   8.789  1.00 27.86     0.003 C 
HETATM   31  C29 STQ 5 620     -46.137 143.618   8.049  1.00 27.86    -0.062 C 
HETATM   32  C30 STQ 5 620     -45.634 142.493   8.570  1.00 27.86     0.007 C 
HETATM   33  C31 STQ 5 620     -44.554 141.732   7.954  1.00 27.86     0.001 C 
HETATM   34  C32 STQ 5 620     -44.041 140.742   8.676  1.00 27.86     0.007 C 
HETATM   35  C33 STQ 5 620     -42.954 139.882   8.181  1.00 27.86    -0.062 C 
HETATM   36  C34 STQ 5 620     -42.440 138.962   9.008  1.00 27.86     0.007 C 
HETATM   37  C35 STQ 5 620     -41.372 138.075   8.570  1.00 27.86     0.001 C 
HETATM   38  C36 STQ 5 620     -50.316 146.506   7.166  1.00 27.86     0.016 C 
HETATM   39  C37 STQ 5 620     -50.655 144.272   8.186  1.00 27.86     0.016 C 
HETATM   40  C38 STQ 5 620     -47.374 147.828   9.495  1.00 27.86     0.044 C 
HETATM   41  C39 STQ 5 620     -45.609 144.189   6.769  1.00 27.86     0.048 C 
HETATM   42  C40 STQ 5 620     -42.443 140.029   6.780  1.00 27.86     0.048 C 
HETATM   43  O23 STQ 5 620     -51.966 148.016  10.975  1.00 27.86    -0.392 OA
ATOM     44  H23 STQ 5 620     -51.814 148.919  11.231  1.00  0.00     0.210 HD
ENDROOT
TORSDOF 12
