REMARK VINA RESULT:    -8.726      0.000      0.000
REMARK INTER + INTRA:         -11.653
REMARK INTER:                  -8.726
REMARK INTRA:                  -2.926
REMARK UNBOUND:                -2.926
REMARK  0 active torsions:
REMARK  status: ('A' for Active; 'I' for Inactive)
REMARK       I    between atoms: C3_3  and  O3_21 
REMARK       I    between atoms: C6_6  and  C7_7 
REMARK       I    between atoms: C8_8  and  C9_9 
REMARK       I    between atoms: C10_10  and  C11_11 
REMARK       I    between atoms: C12_12  and  C13_13 
REMARK       I    between atoms: C14_14  and  C15_15 
REMARK       I    between atoms: C23_25  and  O23_43 
REMARK       I    between atoms: C26_28  and  C27_29 
REMARK       I    between atoms: C28_30  and  C29_31 
REMARK       I    between atoms: C30_32  and  C31_33 
REMARK       I    between atoms: C32_34  and  C33_35 
REMARK       I    between atoms: C34_36  and  C35_37 
ROOT
HETATM    1  C1  STQ 9 616     -34.452 127.596   6.327  1.00 62.55    -0.018 C 
HETATM    2  C2  STQ 9 616     -33.826 127.202   4.991  1.00 62.55     0.045 C 
HETATM    3  C3  STQ 9 616     -32.440 127.746   4.657  1.00 62.55     0.123 C 
HETATM    4  C4  STQ 9 616     -31.592 127.893   5.906  1.00 62.55     0.066 C 
HETATM    5  C5  STQ 9 616     -32.334 128.817   6.832  1.00 62.55    -0.074 C 
HETATM    6  C6  STQ 9 616     -33.624 128.599   7.114  1.00 62.55    -0.048 C 
HETATM    7  C7  STQ 9 616     -34.254 129.332   8.236  1.00 62.55     0.009 C 
HETATM    8  C8  STQ 9 616     -34.853 130.505   8.049  1.00 62.55     0.007 C 
HETATM    9  C9  STQ 9 616     -35.474 131.241   9.157  1.00 62.55    -0.062 C 
HETATM   10  C10 STQ 9 616     -36.200 132.314   8.840  1.00 62.55     0.007 C 
HETATM   11  C11 STQ 9 616     -36.875 133.173   9.802  1.00 62.55     0.001 C 
HETATM   12  C12 STQ 9 616     -37.669 134.074   9.242  1.00 62.55     0.007 C 
HETATM   13  C13 STQ 9 616     -38.453 135.076   9.965  1.00 62.55    -0.062 C 
HETATM   14  C14 STQ 9 616     -39.208 135.928   9.247  1.00 62.55     0.007 C 
HETATM   15  C15 STQ 9 616     -40.051 136.982   9.804  1.00 62.55     0.001 C 
HETATM   16  C16 STQ 9 616     -34.688 126.310   7.121  1.00 62.55     0.020 C 
HETATM   17  C17 STQ 9 616     -35.803 128.241   6.047  1.00 62.55     0.020 C 
HETATM   18  C18 STQ 9 616     -31.433 129.563   7.774  1.00 62.55     0.044 C 
HETATM   19  C19 STQ 9 616     -35.289 130.793  10.575  1.00 62.55     0.048 C 
HETATM   20  C20 STQ 9 616     -38.359 135.107  11.453  1.00 62.55     0.048 C 
HETATM   21  O3  STQ 9 616     -31.790 126.850   3.748  1.00 62.55    -0.395 OA
ATOM     22  H3  STQ 9 616     -30.927 127.189   3.541  1.00  0.00     0.210 HD
HETATM   23  C21 STQ 9 616     -49.551 145.623  10.066  1.00 62.55    -0.035 C 
HETATM   24  C22 STQ 9 616     -50.348 146.587  10.939  1.00 62.55     0.045 C 
HETATM   25  C23 STQ 9 616     -50.005 148.060  10.748  1.00 62.55     0.142 C 
HETATM   26  C24 STQ 9 616     -48.512 148.260  10.628  1.00 62.55     0.007 C 
HETATM   27  C25 STQ 9 616     -47.723 147.342  10.052  1.00 62.55    -0.077 C 
HETATM   28  C26 STQ 9 616     -48.041 145.876  10.167  1.00 62.55     0.044 C 
HETATM   29  C27 STQ 9 616     -47.304 145.041   9.131  1.00 62.55    -0.016 C 
HETATM   30  C28 STQ 9 616     -46.357 144.195   9.539  1.00 62.55     0.003 C 
HETATM   31  C29 STQ 9 616     -45.599 143.318   8.622  1.00 62.55    -0.062 C 
HETATM   32  C30 STQ 9 616     -44.881 142.324   9.167  1.00 62.55     0.007 C 
HETATM   33  C31 STQ 9 616     -44.087 141.350   8.423  1.00 62.55     0.001 C 
HETATM   34  C32 STQ 9 616     -43.337 140.530   9.161  1.00 62.55     0.007 C 
HETATM   35  C33 STQ 9 616     -42.467 139.471   8.616  1.00 62.55    -0.062 C 
HETATM   36  C34 STQ 9 616     -41.704 138.747   9.456  1.00 62.55     0.007 C 
HETATM   37  C35 STQ 9 616     -40.826 137.681   8.970  1.00 62.55     0.001 C 
HETATM   38  C36 STQ 9 616     -50.033 145.706   8.620  1.00 62.55     0.016 C 
HETATM   39  C37 STQ 9 616     -49.842 144.222  10.584  1.00 62.55     0.016 C 
HETATM   40  C38 STQ 9 616     -46.516 147.807   9.292  1.00 62.55     0.044 C 
HETATM   41  C39 STQ 9 616     -45.637 143.526   7.137  1.00 62.55     0.048 C 
HETATM   42  C40 STQ 9 616     -42.451 139.211   7.141  1.00 62.55     0.048 C 
HETATM   43  O23 STQ 9 616     -50.487 148.787  11.884  1.00 62.55    -0.392 OA
ATOM     44  H23 STQ 9 616     -50.274 149.705  11.764  1.00  0.00     0.210 HD
ENDROOT
TORSDOF 12
