REMARK VINA RESULT:    -8.150      1.480      1.811
REMARK INTER + INTRA:         -10.958
REMARK INTER:                 -10.610
REMARK INTRA:                  -0.348
REMARK UNBOUND:                -2.808
REMARK  0 active torsions:
REMARK  status: ('A' for Active; 'I' for Inactive)
REMARK       I    between atoms: C3_3  and  O3_21 
REMARK       I    between atoms: C6_6  and  C7_7 
REMARK       I    between atoms: C8_8  and  C9_9 
REMARK       I    between atoms: C10_10  and  C11_11 
REMARK       I    between atoms: C12_12  and  C13_13 
REMARK       I    between atoms: C14_14  and  C15_15 
REMARK       I    between atoms: C23_25  and  O23_43 
REMARK       I    between atoms: C26_28  and  C27_29 
REMARK       I    between atoms: C28_30  and  C29_31 
REMARK       I    between atoms: C30_32  and  C31_33 
REMARK       I    between atoms: C32_34  and  C33_35 
REMARK       I    between atoms: C34_36  and  C35_37 
ROOT
HETATM    1  C1  STQ F5620     -34.208 128.172   6.798  1.00 19.30    -0.018 C 
HETATM    2  C2  STQ F5620     -33.376 127.665   5.604  1.00 17.68     0.045 C 
HETATM    3  C3  STQ F5620     -32.026 128.316   5.320  1.00 17.79     0.123 C 
HETATM    4  C4  STQ F5620     -31.395 129.060   6.498  1.00 18.50     0.066 C 
HETATM    5  C5  STQ F5620     -32.288 129.717   7.500  1.00 19.40    -0.074 C 
HETATM    6  C6  STQ F5620     -33.603 129.326   7.660  1.00 19.02    -0.048 C 
HETATM    7  C7  STQ F5620     -34.488 129.983   8.633  1.00 18.60     0.009 C 
HETATM    8  C8  STQ F5620     -35.095 131.180   8.493  1.00 18.09     0.007 C 
HETATM    9  C9  STQ F5620     -35.882 131.896   9.503  1.00 18.23    -0.062 C 
HETATM   10  C10 STQ F5620     -36.494 133.040   9.127  1.00 15.81     0.007 C 
HETATM   11  C11 STQ F5620     -37.322 133.881   9.946  1.00 18.00     0.001 C 
HETATM   12  C12 STQ F5620     -38.008 134.887   9.382  1.00 18.12     0.007 C 
HETATM   13  C13 STQ F5620     -38.939 135.828   9.992  1.00 18.88    -0.062 C 
HETATM   14  C14 STQ F5620     -39.583 136.682   9.168  1.00 21.10     0.007 C 
HETATM   15  C15 STQ F5620     -40.604 137.638   9.508  1.00 24.06     0.001 C 
HETATM   16  C16 STQ F5620     -34.385 126.914   7.666  1.00 17.17     0.020 C 
HETATM   17  C17 STQ F5620     -35.595 128.569   6.246  1.00 16.95     0.020 C 
HETATM   18  C18 STQ F5620     -31.518 130.785   8.207  1.00 19.80     0.044 C 
HETATM   19  C19 STQ F5620     -35.995 131.277  10.878  1.00 17.09     0.048 C 
HETATM   20  C20 STQ F5620     -39.172 135.735  11.468  1.00 16.35     0.048 C 
HETATM   21  O3  STQ F5620     -31.119 127.356   4.811  1.00 17.38    -0.395 OA
ATOM     22  H3  STQ F5620     -30.278 127.762   4.635  1.00  0.00     0.210 HD
HETATM   23  C21 STQ F5620     -50.870 145.288   9.650  1.00 25.60    -0.035 C 
HETATM   24  C22 STQ F5620     -51.972 146.155  10.305  1.00 24.99     0.045 C 
HETATM   25  C23 STQ F5620     -51.736 147.666  10.191  1.00 24.73     0.142 C 
HETATM   26  C24 STQ F5620     -50.273 148.045  10.437  1.00 25.13     0.007 C 
HETATM   27  C25 STQ F5620     -49.258 147.158  10.367  1.00 24.82    -0.077 C 
HETATM   28  C26 STQ F5620     -49.411 145.681  10.046  1.00 24.32     0.044 C 
HETATM   29  C27 STQ F5620     -48.327 145.260   9.073  1.00 25.62    -0.016 C 
HETATM   30  C28 STQ F5620     -47.446 144.266   9.326  1.00 26.25     0.003 C 
HETATM   31  C29 STQ F5620     -46.466 143.677   8.406  1.00 26.61    -0.062 C 
HETATM   32  C30 STQ F5620     -45.679 142.683   8.870  1.00 25.24     0.007 C 
HETATM   33  C31 STQ F5620     -44.701 141.945   8.127  1.00 26.40     0.001 C 
HETATM   34  C32 STQ F5620     -43.940 141.001   8.712  1.00 26.29     0.007 C 
HETATM   35  C33 STQ F5620     -42.893 140.168   8.111  1.00 26.99    -0.062 C 
HETATM   36  C34 STQ F5620     -42.235 139.310   8.921  1.00 26.65     0.007 C 
HETATM   37  C35 STQ F5620     -41.177 138.405   8.573  1.00 25.43     0.001 C 
HETATM   38  C36 STQ F5620     -51.060 145.371   8.106  1.00 22.69     0.016 C 
HETATM   39  C37 STQ F5620     -51.135 143.835  10.071  1.00 23.76     0.016 C 
HETATM   40  C38 STQ F5620     -47.919 147.739  10.662  1.00 26.09     0.044 C 
HETATM   41  C39 STQ F5620     -46.395 144.221   7.000  1.00 26.87     0.048 C 
HETATM   42  C40 STQ F5620     -42.609 140.346   6.648  1.00 24.17     0.048 C 
HETATM   43  O23 STQ F5620     -52.592 148.365  11.084  1.00 24.51    -0.392 OA
ATOM     44  H23 STQ F5620     -52.446 149.302  11.013  1.00  0.00     0.210 HD
ENDROOT
TORSDOF 12
