REMARK VINA RESULT:    -9.722      0.000      0.000
REMARK INTER + INTRA:         -12.100
REMARK INTER:                  -9.722
REMARK INTRA:                  -2.377
REMARK UNBOUND:                -2.377
REMARK  0 active torsions:
REMARK  status: ('A' for Active; 'I' for Inactive)
REMARK       I    between atoms: C3_3  and  O3_21 
REMARK       I    between atoms: C6_6  and  C7_7 
REMARK       I    between atoms: C8_8  and  C9_9 
REMARK       I    between atoms: C10_10  and  C11_11 
REMARK       I    between atoms: C12_12  and  C13_13 
REMARK       I    between atoms: C14_14  and  C15_15 
REMARK       I    between atoms: C23_25  and  O23_43 
REMARK       I    between atoms: C26_28  and  C27_29 
REMARK       I    between atoms: C28_30  and  C29_31 
REMARK       I    between atoms: C30_32  and  C31_33 
REMARK       I    between atoms: C32_34  and  C33_35 
REMARK       I    between atoms: C34_36  and  C35_37 
ROOT
HETATM    1  C1  STQ Z1621     -34.253 127.180   6.744  1.00 27.99    -0.018 C 
HETATM    2  C2  STQ Z1621     -33.789 126.837   5.322  1.00 27.99     0.045 C 
HETATM    3  C3  STQ Z1621     -32.738 127.769   4.735  1.00 27.99     0.123 C 
HETATM    4  C4  STQ Z1621     -31.727 128.099   5.816  1.00 27.99     0.066 C 
HETATM    5  C5  STQ Z1621     -32.477 128.908   6.834  1.00 27.99    -0.074 C 
HETATM    6  C6  STQ Z1621     -33.594 128.402   7.370  1.00 27.99    -0.048 C 
HETATM    7  C7  STQ Z1621     -34.356 129.114   8.421  1.00 27.99     0.009 C 
HETATM    8  C8  STQ Z1621     -34.436 130.449   8.338  1.00 27.99     0.007 C 
HETATM    9  C9  STQ Z1621     -35.390 131.165   9.220  1.00 27.99    -0.062 C 
HETATM   10  C10 STQ Z1621     -35.873 132.345   8.774  1.00 27.99     0.007 C 
HETATM   11  C11 STQ Z1621     -36.939 133.086   9.452  1.00 27.99     0.001 C 
HETATM   12  C12 STQ Z1621     -37.538 134.106   8.836  1.00 27.99     0.007 C 
HETATM   13  C13 STQ Z1621     -38.680 134.819   9.457  1.00 27.99    -0.062 C 
HETATM   14  C14 STQ Z1621     -39.325 135.736   8.705  1.00 27.99     0.007 C 
HETATM   15  C15 STQ Z1621     -40.485 136.510   9.159  1.00 27.99     0.001 C 
HETATM   16  C16 STQ Z1621     -33.819 126.035   7.661  1.00 27.99     0.020 C 
HETATM   17  C17 STQ Z1621     -35.775 127.295   6.738  1.00 27.99     0.020 C 
HETATM   18  C18 STQ Z1621     -31.543 129.808   7.594  1.00 27.99     0.044 C 
HETATM   19  C19 STQ Z1621     -35.852 130.516  10.502  1.00 27.99     0.048 C 
HETATM   20  C20 STQ Z1621     -39.077 134.465  10.867  1.00 27.99     0.048 C 
HETATM   21  O3  STQ Z1621     -32.089 127.147   3.619  1.00 27.99    -0.395 OA
ATOM     22  H3  STQ Z1621     -32.722 126.940   2.942  1.00  0.00     0.210 HD
HETATM   23  C21 STQ Z1621     -49.747 145.470   9.385  1.00 27.99    -0.035 C 
HETATM   24  C22 STQ Z1621     -50.716 146.319  10.187  1.00 27.99     0.045 C 
HETATM   25  C23 STQ Z1621     -50.182 147.709  10.485  1.00 27.99     0.142 C 
HETATM   26  C24 STQ Z1621     -48.715 147.704  10.859  1.00 27.99     0.007 C 
HETATM   27  C25 STQ Z1621     -47.908 146.644  10.683  1.00 27.99    -0.077 C 
HETATM   28  C26 STQ Z1621     -48.404 145.346  10.105  1.00 27.99     0.044 C 
HETATM   29  C27 STQ Z1621     -47.402 144.759   9.137  1.00 27.99    -0.016 C 
HETATM   30  C28 STQ Z1621     -46.900 143.552   9.392  1.00 27.99     0.003 C 
HETATM   31  C29 STQ Z1621     -45.917 142.913   8.494  1.00 27.99    -0.062 C 
HETATM   32  C30 STQ Z1621     -45.440 141.714   8.882  1.00 27.99     0.007 C 
HETATM   33  C31 STQ Z1621     -44.421 140.964   8.148  1.00 27.99     0.001 C 
HETATM   34  C32 STQ Z1621     -43.896 139.874   8.703  1.00 27.99     0.007 C 
HETATM   35  C33 STQ Z1621     -42.797 139.130   8.053  1.00 27.99    -0.062 C 
HETATM   36  C34 STQ Z1621     -42.193 138.171   8.788  1.00 27.99     0.007 C 
HETATM   37  C35 STQ Z1621     -41.048 137.382   8.330  1.00 27.99     0.001 C 
HETATM   38  C36 STQ Z1621     -49.614 146.066   7.985  1.00 27.99     0.016 C 
HETATM   39  C37 STQ Z1621     -50.335 144.068   9.277  1.00 27.99     0.016 C 
HETATM   40  C38 STQ Z1621     -46.469 146.759  11.108  1.00 27.99     0.044 C 
HETATM   41  C39 STQ Z1621     -45.527 143.620   7.223  1.00 27.99     0.048 C 
HETATM   42  C40 STQ Z1621     -42.376 139.513   6.660  1.00 27.99     0.048 C 
HETATM   43  O23 STQ Z1621     -50.937 148.198  11.594  1.00 27.99    -0.392 OA
ATOM     44  H23 STQ Z1621     -50.603 149.067  11.779  1.00  0.00     0.210 HD
ENDROOT
TORSDOF 12
