REMARK VINA RESULT:    -9.011      1.892     16.869
REMARK INTER + INTRA:          -9.399
REMARK INTER:                  -9.197
REMARK INTRA:                  -0.202
REMARK UNBOUND:                -0.388
REMARK  0 active torsions:
REMARK  status: ('A' for Active; 'I' for Inactive)
REMARK       I    between atoms: C3_3  and  O3_21 
REMARK       I    between atoms: C6_6  and  C7_7 
REMARK       I    between atoms: C8_8  and  C9_9 
REMARK       I    between atoms: C10_10  and  C11_11 
REMARK       I    between atoms: C12_12  and  C13_13 
REMARK       I    between atoms: C14_14  and  C15_15 
REMARK       I    between atoms: C23_25  and  O23_43 
REMARK       I    between atoms: C26_28  and  C27_29 
REMARK       I    between atoms: C28_30  and  C29_31 
REMARK       I    between atoms: C30_32  and  C31_33 
REMARK       I    between atoms: C32_34  and  C33_35 
REMARK       I    between atoms: C34_36  and  C35_37 
ROOT
HETATM    1  C1  STQ G1620     -50.126 145.152  13.151  1.00 66.29    -0.018 C 
HETATM    2  C2  STQ G1620     -50.704 145.421  14.535  1.00 66.29     0.045 C 
HETATM    3  C3  STQ G1620     -49.970 146.393  15.446  1.00 66.29     0.123 C 
HETATM    4  C4  STQ G1620     -49.283 147.485  14.654  1.00 66.29     0.066 C 
HETATM    5  C5  STQ G1620     -48.381 146.863  13.631  1.00 66.29    -0.074 C 
HETATM    6  C6  STQ G1620     -48.797 145.836  12.881  1.00 66.29    -0.048 C 
HETATM    7  C7  STQ G1620     -47.972 145.346  11.748  1.00 66.29     0.009 C 
HETATM    8  C8  STQ G1620     -47.015 144.431  11.924  1.00 66.29     0.007 C 
HETATM    9  C9  STQ G1620     -46.194 143.922  10.818  1.00 66.29    -0.062 C 
HETATM   10  C10 STQ G1620     -45.210 143.073  11.126  1.00 66.29     0.007 C 
HETATM   11  C11 STQ G1620     -44.330 142.480  10.134  1.00 66.29     0.001 C 
HETATM   12  C12 STQ G1620     -43.555 141.502  10.577  1.00 66.29     0.007 C 
HETATM   13  C13 STQ G1620     -42.613 140.769   9.722  1.00 66.29    -0.062 C 
HETATM   14  C14 STQ G1620     -41.981 139.719  10.258  1.00 66.29     0.007 C 
HETATM   15  C15 STQ G1620     -41.047 138.904   9.500  1.00 66.29     0.001 C 
HETATM   16  C16 STQ G1620     -51.173 145.573  12.128  1.00 66.29     0.020 C 
HETATM   17  C17 STQ G1620     -49.912 143.651  13.030  1.00 66.29     0.020 C 
HETATM   18  C18 STQ G1620     -47.168 147.676  13.285  1.00 66.29     0.044 C 
HETATM   19  C19 STQ G1620     -46.464 144.336   9.404  1.00 66.29     0.048 C 
HETATM   20  C20 STQ G1620     -42.378 141.177   8.299  1.00 66.29     0.048 C 
HETATM   21  O3  STQ G1620     -50.921 146.996  16.327  1.00 66.29    -0.395 OA
ATOM     22  H3  STQ G1620     -51.351 146.311  16.825  1.00  0.00     0.210 HD
HETATM   23  C21 STQ G1620     -34.254 128.467   6.969  1.00 66.29    -0.035 C 
HETATM   24  C22 STQ G1620     -33.484 127.745   5.868  1.00 66.29     0.045 C 
HETATM   25  C23 STQ G1620     -31.968 127.783   6.021  1.00 66.29     0.142 C 
HETATM   26  C24 STQ G1620     -31.480 129.128   6.505  1.00 66.29     0.007 C 
HETATM   27  C25 STQ G1620     -32.227 129.882   7.320  1.00 66.29    -0.077 C 
HETATM   28  C26 STQ G1620     -33.721 129.888   7.163  1.00 66.29     0.044 C 
HETATM   29  C27 STQ G1620     -34.401 130.536   8.347  1.00 66.29    -0.016 C 
HETATM   30  C28 STQ G1620     -35.011 131.699   8.148  1.00 66.29     0.003 C 
HETATM   31  C29 STQ G1620     -35.715 132.401   9.230  1.00 66.29    -0.062 C 
HETATM   32  C30 STQ G1620     -36.598 133.332   8.862  1.00 66.29     0.007 C 
HETATM   33  C31 STQ G1620     -37.403 134.116   9.789  1.00 66.29     0.001 C 
HETATM   34  C32 STQ G1620     -38.137 135.075   9.239  1.00 66.29     0.007 C 
HETATM   35  C33 STQ G1620     -39.024 135.947  10.018  1.00 66.29    -0.062 C 
HETATM   36  C34 STQ G1620     -39.677 136.916   9.370  1.00 66.29     0.007 C 
HETATM   37  C35 STQ G1620     -40.593 137.799  10.077  1.00 66.29     0.001 C 
HETATM   38  C36 STQ G1620     -34.214 127.670   8.270  1.00 66.29     0.016 C 
HETATM   39  C37 STQ G1620     -35.706 128.543   6.524  1.00 66.29     0.016 C 
HETATM   40  C38 STQ G1620     -31.551 130.699   8.381  1.00 66.29     0.044 C 
HETATM   41  C39 STQ G1620     -35.451 132.082  10.672  1.00 66.29     0.048 C 
HETATM   42  C40 STQ G1620     -39.194 135.728  11.492  1.00 66.29     0.048 C 
HETATM   43  O23 STQ G1620     -31.354 127.507   4.760  1.00 66.29    -0.392 OA
ATOM     44  H23 STQ G1620     -31.660 126.661   4.455  1.00  0.00     0.210 HD
ENDROOT
TORSDOF 12
