REMARK VINA RESULT:    -9.430      0.000      0.000
REMARK INTER + INTRA:         -12.607
REMARK INTER:                  -9.430
REMARK INTRA:                  -3.177
REMARK UNBOUND:                -3.177
REMARK  0 active torsions:
REMARK  status: ('A' for Active; 'I' for Inactive)
REMARK       I    between atoms: C3_3  and  O3_21 
REMARK       I    between atoms: C6_6  and  C7_7 
REMARK       I    between atoms: C8_8  and  C9_9 
REMARK       I    between atoms: C10_10  and  C11_11 
REMARK       I    between atoms: C12_12  and  C13_13 
REMARK       I    between atoms: C14_14  and  C15_15 
REMARK       I    between atoms: C23_25  and  O23_43 
REMARK       I    between atoms: C26_28  and  C27_29 
REMARK       I    between atoms: C28_30  and  C29_31 
REMARK       I    between atoms: C30_32  and  C31_33 
REMARK       I    between atoms: C32_34  and  C33_35 
REMARK       I    between atoms: C34_36  and  C35_37 
ROOT
HETATM    1  C1  STQ 21621     -34.484 126.959   6.218  1.00 90.34    -0.018 C 
HETATM    2  C2  STQ 21621     -34.111 126.333   4.878  1.00 90.34     0.045 C 
HETATM    3  C3  STQ 21621     -32.947 126.938   4.111  1.00 90.34     0.123 C 
HETATM    4  C4  STQ 21621     -31.893 127.493   5.048  1.00 90.34     0.066 C 
HETATM    5  C5  STQ 21621     -32.562 128.490   5.947  1.00 90.34    -0.074 C 
HETATM    6  C6  STQ 21621     -33.662 128.164   6.623  1.00 90.34    -0.048 C 
HETATM    7  C7  STQ 21621     -34.113 128.948   7.800  1.00 90.34     0.009 C 
HETATM    8  C8  STQ 21621     -34.784 130.092   7.648  1.00 90.34     0.007 C 
HETATM    9  C9  STQ 21621     -35.291 130.912   8.756  1.00 90.34    -0.062 C 
HETATM   10  C10 STQ 21621     -36.195 131.832   8.421  1.00 90.34     0.007 C 
HETATM   11  C11 STQ 21621     -36.881 132.756   9.308  1.00 90.34     0.001 C 
HETATM   12  C12 STQ 21621     -37.731 133.571   8.690  1.00 90.34     0.007 C 
HETATM   13  C13 STQ 21621     -38.547 134.553   9.413  1.00 90.34    -0.062 C 
HETATM   14  C14 STQ 21621     -39.404 135.305   8.715  1.00 90.34     0.007 C 
HETATM   15  C15 STQ 21621     -40.274 136.272   9.370  1.00 90.34     0.001 C 
HETATM   16  C16 STQ 21621     -34.385 125.850   7.259  1.00 90.34     0.020 C 
HETATM   17  C17 STQ 21621     -35.922 127.431   6.132  1.00 90.34     0.020 C 
HETATM   18  C18 STQ 21621     -31.512 129.383   6.529  1.00 90.34     0.044 C 
HETATM   19  C19 STQ 21621     -34.832 130.720  10.168  1.00 90.34     0.048 C 
HETATM   20  C20 STQ 21621     -38.432 134.689  10.900  1.00 90.34     0.048 C 
HETATM   21  O3  STQ 21621     -32.350 125.907   3.326  1.00 90.34    -0.395 OA
ATOM     22  H3  STQ 21621     -31.623 126.285   2.846  1.00  0.00     0.210 HD
HETATM   23  C21 STQ 21621     -50.023 144.422  10.861  1.00 90.34    -0.035 C 
HETATM   24  C22 STQ 21621     -50.891 145.272  11.763  1.00 90.34     0.045 C 
HETATM   25  C23 STQ 21621     -50.415 146.703  11.877  1.00 90.34     0.142 C 
HETATM   26  C24 STQ 21621     -48.941 146.734  12.173  1.00 90.34     0.007 C 
HETATM   27  C25 STQ 21621     -48.094 145.795  11.739  1.00 90.34    -0.077 C 
HETATM   28  C26 STQ 21621     -48.555 144.437  11.300  1.00 90.34     0.044 C 
HETATM   29  C27 STQ 21621     -47.678 143.909  10.184  1.00 90.34    -0.016 C 
HETATM   30  C28 STQ 21621     -47.047 142.756  10.368  1.00 90.34     0.003 C 
HETATM   31  C29 STQ 21621     -46.196 142.136   9.342  1.00 90.34    -0.062 C 
HETATM   32  C30 STQ 21621     -45.730 140.924   9.633  1.00 90.34     0.007 C 
HETATM   33  C31 STQ 21621     -44.892 140.113   8.762  1.00 90.34     0.001 C 
HETATM   34  C32 STQ 21621     -43.967 139.375   9.363  1.00 90.34     0.007 C 
HETATM   35  C33 STQ 21621     -43.067 138.481   8.626  1.00 90.34    -0.062 C 
HETATM   36  C34 STQ 21621     -42.079 137.866   9.293  1.00 90.34     0.007 C 
HETATM   37  C35 STQ 21621     -41.170 136.931   8.641  1.00 90.34     0.001 C 
HETATM   38  C36 STQ 21621     -50.201 144.880   9.420  1.00 90.34     0.016 C 
HETATM   39  C37 STQ 21621     -50.571 143.008  10.964  1.00 90.34     0.016 C 
HETATM   40  C38 STQ 21621     -46.632 146.112  11.706  1.00 90.34     0.044 C 
HETATM   41  C39 STQ 21621     -45.891 142.813   8.041  1.00 90.34     0.048 C 
HETATM   42  C40 STQ 21621     -43.288 138.257   7.165  1.00 90.34     0.048 C 
HETATM   43  O23 STQ 21621     -51.127 147.292  12.964  1.00 90.34    -0.392 OA
ATOM     44  H23 STQ 21621     -52.059 147.272  12.777  1.00  0.00     0.210 HD
ENDROOT
TORSDOF 12
