REMARK VINA RESULT:   -10.964      0.000      0.000
REMARK INTER + INTRA:         -13.510
REMARK INTER:                 -10.964
REMARK INTRA:                  -2.546
REMARK UNBOUND:                -2.546
REMARK  0 active torsions:
REMARK  status: ('A' for Active; 'I' for Inactive)
REMARK       I    between atoms: C3_3  and  O3_21 
REMARK       I    between atoms: C6_6  and  C7_7 
REMARK       I    between atoms: C8_8  and  C9_9 
REMARK       I    between atoms: C10_10  and  C11_11 
REMARK       I    between atoms: C12_12  and  C13_13 
REMARK       I    between atoms: C14_14  and  C15_15 
REMARK       I    between atoms: C23_25  and  O23_43 
REMARK       I    between atoms: C26_28  and  C27_29 
REMARK       I    between atoms: C28_30  and  C29_31 
REMARK       I    between atoms: C30_32  and  C31_33 
REMARK       I    between atoms: C32_34  and  C33_35 
REMARK       I    between atoms: C34_36  and  C35_37 
ROOT
HETATM    1  C1  STQ Y1620     -34.271 127.159   6.573  1.00 32.28    -0.018 C 
HETATM    2  C2  STQ Y1620     -33.768 126.658   5.230  1.00 32.10     0.045 C 
HETATM    3  C3  STQ Y1620     -32.663 127.452   4.573  1.00 30.03     0.123 C 
HETATM    4  C4  STQ Y1620     -31.596 127.862   5.551  1.00 27.01     0.066 C 
HETATM    5  C5  STQ Y1620     -32.182 128.545   6.746  1.00 26.85    -0.074 C 
HETATM    6  C6  STQ Y1620     -33.415 128.259   7.194  1.00 32.38    -0.048 C 
HETATM    7  C7  STQ Y1620     -33.973 129.024   8.337  1.00 31.45     0.009 C 
HETATM    8  C8  STQ Y1620     -34.720 130.108   8.134  1.00 30.07     0.007 C 
HETATM    9  C9  STQ Y1620     -35.301 130.912   9.206  1.00 31.62    -0.062 C 
HETATM   10  C10 STQ Y1620     -35.880 132.048   8.817  1.00 26.80     0.007 C 
HETATM   11  C11 STQ Y1620     -36.529 132.994   9.698  1.00 22.84     0.001 C 
HETATM   12  C12 STQ Y1620     -37.321 133.814   9.042  1.00 24.53     0.007 C 
HETATM   13  C13 STQ Y1620     -38.138 134.837   9.687  1.00 24.57    -0.062 C 
HETATM   14  C14 STQ Y1620     -38.923 135.554   8.887  1.00 24.07     0.007 C 
HETATM   15  C15 STQ Y1620     -39.826 136.568   9.385  1.00 24.13     0.001 C 
HETATM   16  C16 STQ Y1620     -34.358 125.907   7.440  1.00 30.09     0.020 C 
HETATM   17  C17 STQ Y1620     -35.670 127.724   6.376  1.00 35.00     0.020 C 
HETATM   18  C18 STQ Y1620     -31.357 129.683   7.264  1.00 25.72     0.044 C 
HETATM   19  C19 STQ Y1620     -35.212 130.479  10.636  1.00 32.28     0.048 C 
HETATM   20  C20 STQ Y1620     -38.112 135.025  11.167  1.00 25.14     0.048 C 
HETATM   21  O3  STQ Y1620     -32.035 126.623   3.594  1.00 33.60    -0.395 OA
ATOM     22  H3  STQ Y1620     -31.339 127.122   3.182  1.00  0.00     0.210 HD
HETATM   23  C21 STQ Y1620     -49.701 144.258   9.951  1.00 39.66    -0.035 C 
HETATM   24  C22 STQ Y1620     -50.528 145.133  10.878  1.00 40.65     0.045 C 
HETATM   25  C23 STQ Y1620     -50.290 146.624  10.727  1.00 41.69     0.142 C 
HETATM   26  C24 STQ Y1620     -48.837 146.967  10.540  1.00 40.83     0.007 C 
HETATM   27  C25 STQ Y1620     -47.915 146.052  10.232  1.00 41.15    -0.077 C 
HETATM   28  C26 STQ Y1620     -48.215 144.579  10.125  1.00 40.33     0.044 C 
HETATM   29  C27 STQ Y1620     -47.404 143.947   9.018  1.00 37.75    -0.016 C 
HETATM   30  C28 STQ Y1620     -46.510 143.037   9.375  1.00 35.39     0.003 C 
HETATM   31  C29 STQ Y1620     -45.674 142.343   8.401  1.00 31.74    -0.062 C 
HETATM   32  C30 STQ Y1620     -44.989 141.318   8.877  1.00 30.48     0.007 C 
HETATM   33  C31 STQ Y1620     -44.121 140.487   8.075  1.00 30.78     0.001 C 
HETATM   34  C32 STQ Y1620     -43.374 139.669   8.789  1.00 30.06     0.007 C 
HETATM   35  C33 STQ Y1620     -42.445 138.729   8.175  1.00 27.63    -0.062 C 
HETATM   36  C34 STQ Y1620     -41.673 138.023   8.998  1.00 25.49     0.007 C 
HETATM   37  C35 STQ Y1620     -40.726 137.032   8.535  1.00 24.60     0.001 C 
HETATM   38  C36 STQ Y1620     -50.157 144.392   8.501  1.00 39.31     0.016 C 
HETATM   39  C37 STQ Y1620     -49.957 142.824  10.388  1.00 39.96     0.016 C 
HETATM   40  C38 STQ Y1620     -46.517 146.525  10.020  1.00 43.25     0.044 C 
HETATM   41  C39 STQ Y1620     -45.592 142.754   6.969  1.00 33.51     0.048 C 
HETATM   42  C40 STQ Y1620     -42.398 138.581   6.690  1.00 28.91     0.048 C 
HETATM   43  O23 STQ Y1620     -50.750 147.258  11.919  1.00 42.07    -0.392 OA
ATOM     44  H23 STQ Y1620     -50.601 148.191  11.825  1.00  0.00     0.210 HD
ENDROOT
TORSDOF 12
