REMARK VINA RESULT:    -9.392      1.584     16.600
REMARK INTER + INTRA:         -12.124
REMARK INTER:                 -11.774
REMARK INTRA:                  -0.350
REMARK UNBOUND:                -2.733
REMARK  0 active torsions:
REMARK  status: ('A' for Active; 'I' for Inactive)
REMARK       I    between atoms: C3_3  and  O3_21 
REMARK       I    between atoms: C6_6  and  C7_7 
REMARK       I    between atoms: C8_8  and  C9_9 
REMARK       I    between atoms: C10_10  and  C11_11 
REMARK       I    between atoms: C12_12  and  C13_13 
REMARK       I    between atoms: C14_14  and  C15_15 
REMARK       I    between atoms: C23_25  and  O23_43 
REMARK       I    between atoms: C26_28  and  C27_29 
REMARK       I    between atoms: C28_30  and  C29_31 
REMARK       I    between atoms: C30_32  and  C31_33 
REMARK       I    between atoms: C32_34  and  C33_35 
REMARK       I    between atoms: C34_36  and  C35_37 
ROOT
HETATM    1  C1  STQ 1 617     -49.719 144.922  12.118  1.00 21.49    -0.018 C 
HETATM    2  C2  STQ 1 617     -50.305 144.999  13.524  1.00 21.49     0.045 C 
HETATM    3  C3  STQ 1 617     -49.625 145.922  14.523  1.00 21.49     0.123 C 
HETATM    4  C4  STQ 1 617     -49.079 147.168  13.864  1.00 21.49     0.066 C 
HETATM    5  C5  STQ 1 617     -48.181 146.795  12.719  1.00 21.49    -0.074 C 
HETATM    6  C6  STQ 1 617     -48.474 145.768  11.908  1.00 21.49    -0.048 C 
HETATM    7  C7  STQ 1 617     -47.575 145.450  10.765  1.00 21.49     0.009 C 
HETATM    8  C8  STQ 1 617     -46.609 144.537  10.870  1.00 21.49     0.007 C 
HETATM    9  C9  STQ 1 617     -45.695 144.187   9.773  1.00 21.49    -0.062 C 
HETATM   10  C10 STQ 1 617     -44.856 143.174  10.009  1.00 21.49     0.007 C 
HETATM   11  C11 STQ 1 617     -43.865 142.632   9.089  1.00 21.49     0.001 C 
HETATM   12  C12 STQ 1 617     -43.192 141.619   9.613  1.00 21.49     0.007 C 
HETATM   13  C13 STQ 1 617     -42.151 140.835   8.938  1.00 21.49    -0.062 C 
HETATM   14  C14 STQ 1 617     -41.750 139.725   9.563  1.00 21.49     0.007 C 
HETATM   15  C15 STQ 1 617     -40.758 138.820   9.007  1.00 21.49     0.001 C 
HETATM   16  C16 STQ 1 617     -50.840 145.313  11.156  1.00 21.49     0.020 C 
HETATM   17  C17 STQ 1 617     -49.339 143.472  11.860  1.00 21.49     0.020 C 
HETATM   18  C18 STQ 1 617     -46.969 147.656  12.511  1.00 21.49     0.044 C 
HETATM   19  C19 STQ 1 617     -45.699 144.946   8.482  1.00 21.49     0.048 C 
HETATM   20  C20 STQ 1 617     -41.581 141.240   7.614  1.00 21.49     0.048 C 
HETATM   21  O3  STQ 1 617     -50.600 146.326  15.489  1.00 21.49    -0.395 OA
ATOM     22  H3  STQ 1 617     -50.175 146.902  16.112  1.00  0.00     0.210 HD
HETATM   23  C21 STQ 1 617     -34.114 128.193   7.044  1.00 21.49    -0.035 C 
HETATM   24  C22 STQ 1 617     -33.289 127.534   5.943  1.00 21.49     0.045 C 
HETATM   25  C23 STQ 1 617     -31.792 127.823   5.960  1.00 21.49     0.142 C 
HETATM   26  C24 STQ 1 617     -31.443 129.184   6.519  1.00 21.49     0.007 C 
HETATM   27  C25 STQ 1 617     -32.277 129.859   7.318  1.00 21.49    -0.077 C 
HETATM   28  C26 STQ 1 617     -33.761 129.675   7.175  1.00 21.49     0.044 C 
HETATM   29  C27 STQ 1 617     -34.530 130.267   8.331  1.00 21.49    -0.016 C 
HETATM   30  C28 STQ 1 617     -35.262 131.348   8.101  1.00 21.49     0.003 C 
HETATM   31  C29 STQ 1 617     -36.063 131.971   9.160  1.00 21.49    -0.062 C 
HETATM   32  C30 STQ 1 617     -36.961 132.866   8.758  1.00 21.49     0.007 C 
HETATM   33  C31 STQ 1 617     -37.866 133.575   9.644  1.00 21.49     0.001 C 
HETATM   34  C32 STQ 1 617     -38.350 134.686   9.114  1.00 21.49     0.007 C 
HETATM   35  C33 STQ 1 617     -39.292 135.591   9.775  1.00 21.49    -0.062 C 
HETATM   36  C34 STQ 1 617     -39.627 136.702   9.109  1.00 21.49     0.007 C 
HETATM   37  C35 STQ 1 617     -40.575 137.665   9.636  1.00 21.49     0.001 C 
HETATM   38  C36 STQ 1 617     -33.940 127.456   8.369  1.00 21.49     0.016 C 
HETATM   39  C37 STQ 1 617     -35.579 128.073   6.643  1.00 21.49     0.016 C 
HETATM   40  C38 STQ 1 617     -31.704 130.790   8.343  1.00 21.49     0.044 C 
HETATM   41  C39 STQ 1 617     -35.891 131.611  10.604  1.00 21.49     0.048 C 
HETATM   42  C40 STQ 1 617     -39.852 135.267  11.123  1.00 21.49     0.048 C 
HETATM   43  O23 STQ 1 617     -31.304 127.738   4.620  1.00 21.49    -0.392 OA
ATOM     44  H23 STQ 1 617     -30.372 127.918   4.631  1.00  0.00     0.210 HD
ENDROOT
TORSDOF 12
