REMARK VINA RESULT:    -9.478      1.982     16.681
REMARK INTER + INTRA:         -12.047
REMARK INTER:                 -10.204
REMARK INTRA:                  -1.843
REMARK UNBOUND:                -2.569
REMARK  0 active torsions:
REMARK  status: ('A' for Active; 'I' for Inactive)
REMARK       I    between atoms: C3_3  and  O3_21 
REMARK       I    between atoms: C6_6  and  C7_7 
REMARK       I    between atoms: C8_8  and  C9_9 
REMARK       I    between atoms: C10_10  and  C11_11 
REMARK       I    between atoms: C12_12  and  C13_13 
REMARK       I    between atoms: C14_14  and  C15_15 
REMARK       I    between atoms: C23_25  and  O23_43 
REMARK       I    between atoms: C26_28  and  C27_29 
REMARK       I    between atoms: C28_30  and  C29_31 
REMARK       I    between atoms: C30_32  and  C31_33 
REMARK       I    between atoms: C32_34  and  C33_35 
REMARK       I    between atoms: C34_36  and  C35_37 
ROOT
HETATM    1  C1  STQ 9 617     -47.357 146.112  13.203  1.00 40.88    -0.018 C 
HETATM    2  C2  STQ 9 617     -47.785 146.241  14.665  1.00 40.88     0.045 C 
HETATM    3  C3  STQ 9 617     -46.793 146.850  15.651  1.00 40.88     0.123 C 
HETATM    4  C4  STQ 9 617     -45.891 147.869  14.980  1.00 40.88     0.066 C 
HETATM    5  C5  STQ 9 617     -45.210 147.186  13.827  1.00 40.88    -0.074 C 
HETATM    6  C6  STQ 9 617     -45.898 146.440  12.956  1.00 40.88    -0.048 C 
HETATM    7  C7  STQ 9 617     -45.243 145.946  11.712  1.00 40.88     0.009 C 
HETATM    8  C8  STQ 9 617     -44.672 144.745  11.632  1.00 40.88     0.007 C 
HETATM    9  C9  STQ 9 617     -44.021 144.233  10.407  1.00 40.88    -0.062 C 
HETATM   10  C10 STQ 9 617     -43.395 143.057  10.505  1.00 40.88     0.007 C 
HETATM   11  C11 STQ 9 617     -42.685 142.353   9.447  1.00 40.88     0.001 C 
HETATM   12  C12 STQ 9 617     -41.899 141.381   9.891  1.00 40.88     0.007 C 
HETATM   13  C13 STQ 9 617     -41.101 140.483   9.045  1.00 40.88    -0.062 C 
HETATM   14  C14 STQ 9 617     -40.603 139.391   9.647  1.00 40.88     0.007 C 
HETATM   15  C15 STQ 9 617     -39.836 138.367   8.952  1.00 40.88     0.001 C 
HETATM   16  C16 STQ 9 617     -48.286 146.988  12.365  1.00 40.88     0.020 C 
HETATM   17  C17 STQ 9 617     -47.554 144.666  12.780  1.00 40.88     0.020 C 
HETATM   18  C18 STQ 9 617     -43.843 147.701  13.501  1.00 40.88     0.044 C 
HETATM   19  C19 STQ 9 617     -44.058 144.993   9.118  1.00 40.88     0.048 C 
HETATM   20  C20 STQ 9 617     -40.886 140.761   7.587  1.00 40.88     0.048 C 
HETATM   21  O3  STQ 9 617     -47.530 147.501  16.692  1.00 40.88    -0.395 OA
ATOM     22  H3  STQ 9 617     -48.095 146.864  17.112  1.00  0.00     0.210 HD
HETATM   23  C21 STQ 9 617     -34.614 126.874   6.478  1.00 40.88    -0.035 C 
HETATM   24  C22 STQ 9 617     -34.163 126.022   5.299  1.00 40.88     0.045 C 
HETATM   25  C23 STQ 9 617     -32.798 126.372   4.716  1.00 40.88     0.142 C 
HETATM   26  C24 STQ 9 617     -32.575 127.863   4.676  1.00 40.88     0.007 C 
HETATM   27  C25 STQ 9 617     -33.084 128.641   5.634  1.00 40.88    -0.077 C 
HETATM   28  C26 STQ 9 617     -34.454 128.364   6.177  1.00 40.88     0.044 C 
HETATM   29  C27 STQ 9 617     -34.748 129.163   7.429  1.00 40.88    -0.016 C 
HETATM   30  C28 STQ 9 617     -35.655 130.126   7.353  1.00 40.88     0.003 C 
HETATM   31  C29 STQ 9 617     -36.037 130.945   8.513  1.00 40.88    -0.062 C 
HETATM   32  C30 STQ 9 617     -36.919 131.923   8.299  1.00 40.88     0.007 C 
HETATM   33  C31 STQ 9 617     -37.441 132.818   9.324  1.00 40.88     0.001 C 
HETATM   34  C32 STQ 9 617     -37.976 133.930   8.846  1.00 40.88     0.007 C 
HETATM   35  C33 STQ 9 617     -38.607 134.990   9.636  1.00 40.88    -0.062 C 
HETATM   36  C34 STQ 9 617     -38.985 136.089   8.968  1.00 40.88     0.007 C 
HETATM   37  C35 STQ 9 617     -39.676 137.209   9.592  1.00 40.88     0.001 C 
HETATM   38  C36 STQ 9 617     -33.846 126.478   7.733  1.00 40.88     0.016 C 
HETATM   39  C37 STQ 9 617     -36.085 126.572   6.729  1.00 40.88     0.016 C 
HETATM   40  C38 STQ 9 617     -32.261 129.773   6.162  1.00 40.88     0.044 C 
HETATM   41  C39 STQ 9 617     -35.475 130.674   9.876  1.00 40.88     0.048 C 
HETATM   42  C40 STQ 9 617     -38.834 134.821  11.108  1.00 40.88     0.048 C 
HETATM   43  O23 STQ 9 617     -32.721 125.850   3.386  1.00 40.88    -0.392 OA
ATOM     44  H23 STQ 9 617     -31.870 126.069   3.023  1.00  0.00     0.210 HD
ENDROOT
TORSDOF 12
