REMARK VINA RESULT:   -10.545      1.296     16.764
REMARK INTER + INTRA:         -10.982
REMARK INTER:                  -7.948
REMARK INTRA:                  -3.034
REMARK UNBOUND:                -0.437
REMARK  0 active torsions:
REMARK  status: ('A' for Active; 'I' for Inactive)
REMARK       I    between atoms: C3_3  and  O3_21 
REMARK       I    between atoms: C6_6  and  C7_7 
REMARK       I    between atoms: C8_8  and  C9_9 
REMARK       I    between atoms: C10_10  and  C11_11 
REMARK       I    between atoms: C12_12  and  C13_13 
REMARK       I    between atoms: C14_14  and  C15_15 
REMARK       I    between atoms: C23_25  and  O23_43 
REMARK       I    between atoms: C26_28  and  C27_29 
REMARK       I    between atoms: C28_30  and  C29_31 
REMARK       I    between atoms: C30_32  and  C31_33 
REMARK       I    between atoms: C32_34  and  C33_35 
REMARK       I    between atoms: C34_36  and  C35_37 
ROOT
HETATM    1  C1  STQ G1620     -34.429 126.866   6.249  1.00 59.27    -0.018 C 
HETATM    2  C2  STQ G1620     -33.869 126.064   5.084  1.00 64.60     0.045 C 
HETATM    3  C3  STQ G1620     -32.914 126.823   4.189  1.00 63.28     0.123 C 
HETATM    4  C4  STQ G1620     -31.799 127.414   5.011  1.00 61.00     0.066 C 
HETATM    5  C5  STQ G1620     -32.363 128.286   6.097  1.00 64.87    -0.074 C 
HETATM    6  C6  STQ G1620     -33.544 128.023   6.691  1.00 63.96    -0.048 C 
HETATM    7  C7  STQ G1620     -34.012 128.836   7.846  1.00 64.82     0.009 C 
HETATM    8  C8  STQ G1620     -34.670 129.990   7.698  1.00 58.91     0.007 C 
HETATM    9  C9  STQ G1620     -35.140 130.783   8.835  1.00 59.76    -0.062 C 
HETATM   10  C10 STQ G1620     -35.856 131.868   8.525  1.00 59.44     0.007 C 
HETATM   11  C11 STQ G1620     -36.439 132.801   9.469  1.00 53.66     0.001 C 
HETATM   12  C12 STQ G1620     -37.251 133.675   8.897  1.00 59.47     0.007 C 
HETATM   13  C13 STQ G1620     -37.985 134.704   9.639  1.00 64.69    -0.062 C 
HETATM   14  C14 STQ G1620     -38.897 135.410   8.964  1.00 66.67     0.007 C 
HETATM   15  C15 STQ G1620     -39.713 136.432   9.601  1.00 73.65     0.001 C 
HETATM   16  C16 STQ G1620     -34.678 125.850   7.359  1.00 56.55     0.020 C 
HETATM   17  C17 STQ G1620     -35.759 127.470   5.825  1.00 59.14     0.020 C 
HETATM   18  C18 STQ G1620     -31.428 129.367   6.562  1.00 61.00     0.044 C 
HETATM   19  C19 STQ G1620     -34.805 130.387  10.241  1.00 55.95     0.048 C 
HETATM   20  C20 STQ G1620     -37.723 134.932  11.095  1.00 67.83     0.048 C 
HETATM   21  O3  STQ G1620     -32.357 125.921   3.230  1.00 73.40    -0.395 OA
ATOM     22  H3  STQ G1620     -31.757 126.397   2.667  1.00  0.00     0.210 HD
HETATM   23  C21 STQ G1620     -49.624 144.286  11.031  1.00 98.57    -0.035 C 
HETATM   24  C22 STQ G1620     -50.375 145.088  12.081  1.00 99.41     0.045 C 
HETATM   25  C23 STQ G1620     -49.992 146.554  12.156  1.00 97.16     0.142 C 
HETATM   26  C24 STQ G1620     -48.504 146.762  12.063  1.00 98.31     0.007 C 
HETATM   27  C25 STQ G1620     -47.687 145.870  11.494  1.00 99.68    -0.077 C 
HETATM   28  C26 STQ G1620     -48.109 144.452  11.207  1.00 95.76     0.044 C 
HETATM   29  C27 STQ G1620     -47.381 143.892  10.004  1.00 93.26    -0.016 C 
HETATM   30  C28 STQ G1620     -46.534 142.901  10.237  1.00 94.82     0.003 C 
HETATM   31  C29 STQ G1620     -45.757 142.221   9.199  1.00 93.82    -0.062 C 
HETATM   32  C30 STQ G1620     -44.985 141.226   9.631  1.00 83.29     0.007 C 
HETATM   33  C31 STQ G1620     -44.157 140.395   8.781  1.00 75.18     0.001 C 
HETATM   34  C32 STQ G1620     -43.350 139.581   9.438  1.00 71.38     0.007 C 
HETATM   35  C33 STQ G1620     -42.467 138.634   8.749  1.00 70.67    -0.062 C 
HETATM   36  C34 STQ G1620     -41.611 137.923   9.491  1.00 74.09     0.007 C 
HETATM   37  C35 STQ G1620     -40.727 136.929   8.902  1.00 74.87     0.001 C 
HETATM   38  C36 STQ G1620     -50.089 144.681   9.632  1.00 91.33     0.016 C 
HETATM   39  C37 STQ G1620     -49.999 142.827  11.258  1.00 94.51     0.016 C 
HETATM   40  C38 STQ G1620     -46.300 146.320  11.164  1.00 94.89     0.044 C 
HETATM   41  C39 STQ G1620     -45.838 142.611   7.755  1.00 99.93     0.048 C 
HETATM   42  C40 STQ G1620     -42.561 138.465   7.267  1.00 65.73     0.048 C 
HETATM   43  O23 STQ G1620     -50.434 147.046  13.422  1.00 98.59    -0.392 OA
ATOM     44  H23 STQ G1620     -50.194 147.964  13.469  1.00  0.00     0.210 HD
ENDROOT
TORSDOF 12
