REMARK VINA RESULT:   -11.655      0.000      0.000
REMARK INTER + INTRA:         -12.044
REMARK INTER:                 -11.655
REMARK INTRA:                  -0.388
REMARK UNBOUND:                -0.388
REMARK  0 active torsions:
REMARK  status: ('A' for Active; 'I' for Inactive)
REMARK       I    between atoms: C3_3  and  O3_21 
REMARK       I    between atoms: C6_6  and  C7_7 
REMARK       I    between atoms: C8_8  and  C9_9 
REMARK       I    between atoms: C10_10  and  C11_11 
REMARK       I    between atoms: C12_12  and  C13_13 
REMARK       I    between atoms: C14_14  and  C15_15 
REMARK       I    between atoms: C23_25  and  O23_43 
REMARK       I    between atoms: C26_28  and  C27_29 
REMARK       I    between atoms: C28_30  and  C29_31 
REMARK       I    between atoms: C30_32  and  C31_33 
REMARK       I    between atoms: C32_34  and  C33_35 
REMARK       I    between atoms: C34_36  and  C35_37 
ROOT
HETATM    1  C1  STQ G1620     -34.137 128.177   6.943  1.00 66.29    -0.018 C 
HETATM    2  C2  STQ G1620     -33.395 127.761   5.679  1.00 66.29     0.045 C 
HETATM    3  C3  STQ G1620     -32.087 128.463   5.348  1.00 66.29     0.123 C 
HETATM    4  C4  STQ G1620     -31.341 128.867   6.601  1.00 66.29     0.066 C 
HETATM    5  C5  STQ G1620     -32.239 129.702   7.464  1.00 66.29    -0.074 C 
HETATM    6  C6  STQ G1620     -33.508 129.342   7.686  1.00 66.29    -0.048 C 
HETATM    7  C7  STQ G1620     -34.333 130.067   8.686  1.00 66.29     0.009 C 
HETATM    8  C8  STQ G1620     -35.024 131.162   8.359  1.00 66.29     0.007 C 
HETATM    9  C9  STQ G1620     -35.857 131.889   9.325  1.00 66.29    -0.062 C 
HETATM   10  C10 STQ G1620     -36.434 133.019   8.908  1.00 66.29     0.007 C 
HETATM   11  C11 STQ G1620     -37.295 133.832   9.750  1.00 66.29     0.001 C 
HETATM   12  C12 STQ G1620     -37.954 134.795   9.123  1.00 66.29     0.007 C 
HETATM   13  C13 STQ G1620     -38.885 135.708   9.800  1.00 66.29    -0.062 C 
HETATM   14  C14 STQ G1620     -39.584 136.553   9.036  1.00 66.29     0.007 C 
HETATM   15  C15 STQ G1620     -40.552 137.484   9.592  1.00 66.29     0.001 C 
HETATM   16  C16 STQ G1620     -34.239 126.949   7.840  1.00 66.29     0.020 C 
HETATM   17  C17 STQ G1620     -35.542 128.589   6.532  1.00 66.29     0.020 C 
HETATM   18  C18 STQ G1620     -31.531 130.725   8.304  1.00 66.29     0.044 C 
HETATM   19  C19 STQ G1620     -36.055 131.370  10.717  1.00 66.29     0.048 C 
HETATM   20  C20 STQ G1620     -39.049 135.684  11.289  1.00 66.29     0.048 C 
HETATM   21  O3  STQ G1620     -31.267 127.564   4.597  1.00 66.29    -0.395 OA
ATOM     22  H3  STQ G1620     -31.734 127.310   3.810  1.00  0.00     0.210 HD
HETATM   23  C21 STQ G1620     -50.553 145.316   9.241  1.00 66.29    -0.035 C 
HETATM   24  C22 STQ G1620     -51.584 146.025  10.114  1.00 66.29     0.045 C 
HETATM   25  C23 STQ G1620     -51.365 147.526  10.265  1.00 66.29     0.142 C 
HETATM   26  C24 STQ G1620     -49.902 147.875  10.416  1.00 66.29     0.007 C 
HETATM   27  C25 STQ G1620     -48.953 147.144   9.819  1.00 66.29    -0.077 C 
HETATM   28  C26 STQ G1620     -49.131 145.658   9.691  1.00 66.29     0.044 C 
HETATM   29  C27 STQ G1620     -48.129 145.059   8.732  1.00 66.29    -0.016 C 
HETATM   30  C28 STQ G1620     -47.192 144.264   9.236  1.00 66.29     0.003 C 
HETATM   31  C29 STQ G1620     -46.181 143.620   8.385  1.00 66.29    -0.062 C 
HETATM   32  C30 STQ G1620     -45.544 142.569   8.906  1.00 66.29     0.007 C 
HETATM   33  C31 STQ G1620     -44.528 141.793   8.209  1.00 66.29     0.001 C 
HETATM   34  C32 STQ G1620     -43.925 140.858   8.932  1.00 66.29     0.007 C 
HETATM   35  C33 STQ G1620     -42.893 139.969   8.387  1.00 66.29    -0.062 C 
HETATM   36  C34 STQ G1620     -42.313 139.098   9.218  1.00 66.29     0.007 C 
HETATM   37  C35 STQ G1620     -41.301 138.169   8.737  1.00 66.29     0.001 C 
HETATM   38  C36 STQ G1620     -50.770 145.650   7.767  1.00 66.29     0.016 C 
HETATM   39  C37 STQ G1620     -50.777 143.822   9.409  1.00 66.29     0.016 C 
HETATM   40  C38 STQ G1620     -47.733 147.832   9.283  1.00 66.29     0.044 C 
HETATM   41  C39 STQ G1620     -45.886 144.123   7.002  1.00 66.29     0.048 C 
HETATM   42  C40 STQ G1620     -42.530 140.036   6.933  1.00 66.29     0.048 C 
HETATM   43  O23 STQ G1620     -52.063 147.995  11.422  1.00 66.29    -0.392 OA
ATOM     44  H23 STQ G1620     -52.982 147.777  11.327  1.00  0.00     0.210 HD
ENDROOT
TORSDOF 12
