REMARK VINA RESULT:    -9.023      0.000      0.000
REMARK INTER + INTRA:         -11.413
REMARK INTER:                  -9.023
REMARK INTRA:                  -2.390
REMARK UNBOUND:                -2.390
REMARK  0 active torsions:
REMARK  status: ('A' for Active; 'I' for Inactive)
REMARK       I    between atoms: C3_3  and  O3_21 
REMARK       I    between atoms: C6_6  and  C7_7 
REMARK       I    between atoms: C8_8  and  C9_9 
REMARK       I    between atoms: C10_10  and  C11_11 
REMARK       I    between atoms: C12_12  and  C13_13 
REMARK       I    between atoms: C14_14  and  C15_15 
REMARK       I    between atoms: C23_25  and  O23_43 
REMARK       I    between atoms: C26_28  and  C27_29 
REMARK       I    between atoms: C28_30  and  C29_31 
REMARK       I    between atoms: C30_32  and  C31_33 
REMARK       I    between atoms: C32_34  and  C33_35 
REMARK       I    between atoms: C34_36  and  C35_37 
ROOT
HETATM    1  C1  STQ 2 619     -34.155 127.208   6.694  1.00 46.63    -0.018 C 
HETATM    2  C2  STQ 2 619     -34.285 127.537   5.208  1.00 46.63     0.045 C 
HETATM    3  C3  STQ 2 619     -33.293 128.572   4.694  1.00 46.63     0.123 C 
HETATM    4  C4  STQ 2 619     -31.969 128.420   5.420  1.00 46.63     0.066 C 
HETATM    5  C5  STQ 2 619     -32.219 128.717   6.874  1.00 46.63    -0.074 C 
HETATM    6  C6  STQ 2 619     -33.308 128.199   7.449  1.00 46.63    -0.048 C 
HETATM    7  C7  STQ 2 619     -33.889 128.829   8.631  1.00 46.63     0.009 C 
HETATM    8  C8  STQ 2 619     -34.385 130.009   8.243  1.00 46.63     0.007 C 
HETATM    9  C9  STQ 2 619     -35.186 130.870   9.145  1.00 46.63    -0.062 C 
HETATM   10  C10 STQ 2 619     -35.853 131.902   8.595  1.00 46.63     0.007 C 
HETATM   11  C11 STQ 2 619     -36.736 132.797   9.345  1.00 46.63     0.001 C 
HETATM   12  C12 STQ 2 619     -37.420 133.741   8.707  1.00 46.63     0.007 C 
HETATM   13  C13 STQ 2 619     -38.348 134.641   9.422  1.00 46.63    -0.062 C 
HETATM   14  C14 STQ 2 619     -39.058 135.492   8.663  1.00 46.63     0.007 C 
HETATM   15  C15 STQ 2 619     -40.037 136.455   9.160  1.00 46.63     0.001 C 
HETATM   16  C16 STQ 2 619     -33.486 125.850   6.855  1.00 46.63     0.020 C 
HETATM   17  C17 STQ 2 619     -35.535 127.175   7.335  1.00 46.63     0.020 C 
HETATM   18  C18 STQ 2 619     -31.348 129.763   7.520  1.00 46.63     0.044 C 
HETATM   19  C19 STQ 2 619     -35.262 130.556  10.615  1.00 46.63     0.048 C 
HETATM   20  C20 STQ 2 619     -38.459 134.565  10.919  1.00 46.63     0.048 C 
HETATM   21  O3  STQ 2 619     -33.082 128.382   3.292  1.00 46.63    -0.395 OA
ATOM     22  H3  STQ 2 619     -32.464 129.028   2.971  1.00  0.00     0.210 HD
HETATM   23  C21 STQ 2 619     -49.454 144.800   9.083  1.00 46.63    -0.035 C 
HETATM   24  C22 STQ 2 619     -50.360 145.475  10.089  1.00 46.63     0.045 C 
HETATM   25  C23 STQ 2 619     -50.187 146.980  10.072  1.00 46.63     0.142 C 
HETATM   26  C24 STQ 2 619     -48.742 147.404   9.912  1.00 46.63     0.007 C 
HETATM   27  C25 STQ 2 619     -47.749 146.548   9.635  1.00 46.63    -0.077 C 
HETATM   28  C26 STQ 2 619     -48.002 145.083   9.445  1.00 46.63     0.044 C 
HETATM   29  C27 STQ 2 619     -47.143 144.461   8.372  1.00 46.63    -0.016 C 
HETATM   30  C28 STQ 2 619     -46.311 143.501   8.743  1.00 46.63     0.003 C 
HETATM   31  C29 STQ 2 619     -45.459 142.780   7.791  1.00 46.63    -0.062 C 
HETATM   32  C30 STQ 2 619     -44.736 141.795   8.335  1.00 46.63     0.007 C 
HETATM   33  C31 STQ 2 619     -43.832 140.912   7.617  1.00 46.63     0.001 C 
HETATM   34  C32 STQ 2 619     -43.211 139.998   8.354  1.00 46.63     0.007 C 
HETATM   35  C33 STQ 2 619     -42.254 139.034   7.791  1.00 46.63    -0.062 C 
HETATM   36  C34 STQ 2 619     -41.637 138.211   8.657  1.00 46.63     0.007 C 
HETATM   37  C35 STQ 2 619     -40.648 137.213   8.259  1.00 46.63     0.001 C 
HETATM   38  C36 STQ 2 619     -49.795 145.286   7.682  1.00 46.63     0.016 C 
HETATM   39  C37 STQ 2 619     -49.708 143.301   9.141  1.00 46.63     0.016 C 
HETATM   40  C38 STQ 2 619     -46.349 147.077   9.569  1.00 46.63     0.044 C 
HETATM   41  C39 STQ 2 619     -45.478 143.125   6.332  1.00 46.63     0.048 C 
HETATM   42  C40 STQ 2 619     -42.032 139.038   6.307  1.00 46.63     0.048 C 
HETATM   43  O23 STQ 2 619     -50.668 147.469  11.323  1.00 46.63    -0.392 OA
ATOM     44  H23 STQ 2 619     -51.574 147.204  11.423  1.00  0.00     0.210 HD
ENDROOT
TORSDOF 12
