REMARK VINA RESULT:    -7.720      0.995      1.159
REMARK INTER + INTRA:         -11.258
REMARK INTER:                  -8.439
REMARK INTRA:                  -2.819
REMARK UNBOUND:                -3.538
REMARK  0 active torsions:
REMARK  status: ('A' for Active; 'I' for Inactive)
REMARK       I    between atoms: C3_3  and  O3_21 
REMARK       I    between atoms: C6_6  and  C7_7 
REMARK       I    between atoms: C8_8  and  C9_9 
REMARK       I    between atoms: C10_10  and  C11_11 
REMARK       I    between atoms: C12_12  and  C13_13 
REMARK       I    between atoms: C14_14  and  C15_15 
REMARK       I    between atoms: C23_25  and  O23_43 
REMARK       I    between atoms: C26_28  and  C27_29 
REMARK       I    between atoms: C28_30  and  C29_31 
REMARK       I    between atoms: C30_32  and  C31_33 
REMARK       I    between atoms: C32_34  and  C33_35 
REMARK       I    between atoms: C34_36  and  C35_37 
ROOT
HETATM    1  C1  STQ Z 618     -34.466 127.830   6.314  1.00 27.67    -0.018 C 
HETATM    2  C2  STQ Z 618     -33.719 127.292   5.095  1.00 27.67     0.045 C 
HETATM    3  C3  STQ Z 618     -32.335 127.861   4.825  1.00 27.67     0.123 C 
HETATM    4  C4  STQ Z 618     -31.591 128.107   6.119  1.00 27.67     0.066 C 
HETATM    5  C5  STQ Z 618     -32.405 129.088   6.910  1.00 27.67    -0.074 C 
HETATM    6  C6  STQ Z 618     -33.698 128.848   7.138  1.00 27.67    -0.048 C 
HETATM    7  C7  STQ Z 618     -34.422 129.551   8.226  1.00 27.67     0.009 C 
HETATM    8  C8  STQ Z 618     -34.891 130.792   8.079  1.00 27.67     0.007 C 
HETATM    9  C9  STQ Z 618     -35.624 131.471   9.156  1.00 27.67    -0.062 C 
HETATM   10  C10 STQ Z 618     -36.411 132.488   8.796  1.00 27.67     0.007 C 
HETATM   11  C11 STQ Z 618     -37.244 133.273   9.699  1.00 27.67     0.001 C 
HETATM   12  C12 STQ Z 618     -38.042 134.115   9.053  1.00 27.67     0.007 C 
HETATM   13  C13 STQ Z 618     -39.033 135.019   9.650  1.00 27.67    -0.062 C 
HETATM   14  C14 STQ Z 618     -39.705 135.817   8.810  1.00 27.67     0.007 C 
HETATM   15  C15 STQ Z 618     -40.755 136.721   9.253  1.00 27.67     0.001 C 
HETATM   16  C16 STQ Z 618     -34.869 126.629   7.166  1.00 27.67     0.020 C 
HETATM   17  C17 STQ Z 618     -35.732 128.519   5.824  1.00 27.67     0.020 C 
HETATM   18  C18 STQ Z 618     -31.518 129.755   7.918  1.00 27.67     0.044 C 
HETATM   19  C19 STQ Z 618     -35.487 131.037  10.581  1.00 27.67     0.048 C 
HETATM   20  C20 STQ Z 618     -39.300 135.024  11.124  1.00 27.67     0.048 C 
HETATM   21  O3  STQ Z 618     -31.600 126.930   4.030  1.00 27.67    -0.395 OA
ATOM     22  H3  STQ Z 618     -32.067 126.776   3.217  1.00  0.00     0.210 HD
HETATM   23  C21 STQ Z 618     -50.261 145.396   9.291  1.00 27.67    -0.035 C 
HETATM   24  C22 STQ Z 618     -51.323 146.068  10.156  1.00 27.67     0.045 C 
HETATM   25  C23 STQ Z 618     -50.792 147.160  11.071  1.00 27.67     0.142 C 
HETATM   26  C24 STQ Z 618     -49.559 146.697  11.791  1.00 27.67     0.007 C 
HETATM   27  C25 STQ Z 618     -48.662 145.921  11.181  1.00 27.67    -0.077 C 
HETATM   28  C26 STQ Z 618     -49.065 144.923  10.128  1.00 27.67     0.044 C 
HETATM   29  C27 STQ Z 618     -47.885 144.574   9.247  1.00 27.67    -0.016 C 
HETATM   30  C28 STQ Z 618     -47.410 143.336   9.296  1.00 27.67     0.003 C 
HETATM   31  C29 STQ Z 618     -46.270 142.883   8.484  1.00 27.67    -0.062 C 
HETATM   32  C30 STQ Z 618     -45.903 141.604   8.607  1.00 27.67     0.007 C 
HETATM   33  C31 STQ Z 618     -44.802 140.987   7.880  1.00 27.67     0.001 C 
HETATM   34  C32 STQ Z 618     -44.101 140.091   8.565  1.00 27.67     0.007 C 
HETATM   35  C33 STQ Z 618     -42.962 139.338   8.022  1.00 27.67    -0.062 C 
HETATM   36  C34 STQ Z 618     -42.445 138.369   8.786  1.00 27.67     0.007 C 
HETATM   37  C35 STQ Z 618     -41.348 137.509   8.360  1.00 27.67     0.001 C 
HETATM   38  C36 STQ Z 618     -49.844 146.351   8.182  1.00 27.67     0.016 C 
HETATM   39  C37 STQ Z 618     -50.904 144.183   8.636  1.00 27.67     0.016 C 
HETATM   40  C38 STQ Z 618     -47.231 146.075  11.580  1.00 27.67     0.044 C 
HETATM   41  C39 STQ Z 618     -45.558 143.826   7.562  1.00 27.67     0.048 C 
HETATM   42  C40 STQ Z 618     -42.396 139.646   6.672  1.00 27.67     0.048 C 
HETATM   43  O23 STQ Z 618     -51.784 147.492  12.046  1.00 27.67    -0.392 OA
ATOM     44  H23 STQ Z 618     -51.452 148.174  12.617  1.00  0.00     0.210 HD
ENDROOT
TORSDOF 12
