REMARK VINA RESULT:    -7.670      2.287     16.688
REMARK INTER + INTRA:         -11.513
REMARK INTER:                 -10.176
REMARK INTRA:                  -1.337
REMARK UNBOUND:                -3.843
REMARK  0 active torsions:
REMARK  status: ('A' for Active; 'I' for Inactive)
REMARK       I    between atoms: C3_3  and  O3_21 
REMARK       I    between atoms: C6_6  and  C7_7 
REMARK       I    between atoms: C8_8  and  C9_9 
REMARK       I    between atoms: C10_10  and  C11_11 
REMARK       I    between atoms: C12_12  and  C13_13 
REMARK       I    between atoms: C14_14  and  C15_15 
REMARK       I    between atoms: C23_25  and  O23_43 
REMARK       I    between atoms: C26_28  and  C27_29 
REMARK       I    between atoms: C28_30  and  C29_31 
REMARK       I    between atoms: C30_32  and  C31_33 
REMARK       I    between atoms: C32_34  and  C33_35 
REMARK       I    between atoms: C34_36  and  C35_37 
ROOT
HETATM    1  C1  STQ 31620     -34.273 128.812   6.688  1.00 70.34    -0.018 C 
HETATM    2  C2  STQ 31620     -33.358 128.632   5.493  1.00 70.34     0.045 C 
HETATM    3  C3  STQ 31620     -31.889 128.388   5.797  1.00 70.34     0.123 C 
HETATM    4  C4  STQ 31620     -31.351 129.306   6.879  1.00 70.34     0.066 C 
HETATM    5  C5  STQ 31620     -32.330 129.786   7.910  1.00 70.34    -0.074 C 
HETATM    6  C6  STQ 31620     -33.653 129.637   7.793  1.00 70.34    -0.048 C 
HETATM    7  C7  STQ 31620     -34.573 130.250   8.781  1.00 70.34     0.009 C 
HETATM    8  C8  STQ 31620     -35.133 131.441   8.598  1.00 70.34     0.007 C 
HETATM    9  C9  STQ 31620     -36.057 132.020   9.571  1.00 70.34    -0.062 C 
HETATM   10  C10 STQ 31620     -36.521 133.230   9.276  1.00 70.34     0.007 C 
HETATM   11  C11 STQ 31620     -37.465 133.981  10.077  1.00 70.34     0.001 C 
HETATM   12  C12 STQ 31620     -38.068 134.925   9.376  1.00 70.34     0.007 C 
HETATM   13  C13 STQ 31620     -39.085 135.828   9.916  1.00 70.34    -0.062 C 
HETATM   14  C14 STQ 31620     -39.626 136.689   9.062  1.00 70.34     0.007 C 
HETATM   15  C15 STQ 31620     -40.656 137.625   9.462  1.00 70.34     0.001 C 
HETATM   16  C16 STQ 31620     -34.695 127.439   7.191  1.00 70.34     0.020 C 
HETATM   17  C17 STQ 31620     -35.499 129.561   6.182  1.00 70.34     0.020 C 
HETATM   18  C18 STQ 31620     -31.719 130.726   8.908  1.00 70.34     0.044 C 
HETATM   19  C19 STQ 31620     -36.453 131.266  10.799  1.00 70.34     0.048 C 
HETATM   20  C20 STQ 31620     -39.496 135.781  11.354  1.00 70.34     0.048 C 
HETATM   21  O3  STQ 31620     -31.647 127.024   6.144  1.00 70.34    -0.395 OA
ATOM     22  H3  STQ 31620     -30.729 126.870   6.334  1.00  0.00     0.210 HD
HETATM   23  C21 STQ 31620     -50.397 145.514   9.317  1.00 70.34    -0.035 C 
HETATM   24  C22 STQ 31620     -51.337 146.137  10.337  1.00 70.34     0.045 C 
HETATM   25  C23 STQ 31620     -51.032 147.586  10.710  1.00 70.34     0.142 C 
HETATM   26  C24 STQ 31620     -49.552 147.857  10.784  1.00 70.34     0.007 C 
HETATM   27  C25 STQ 31620     -48.723 147.201   9.973  1.00 70.34    -0.077 C 
HETATM   28  C26 STQ 31620     -48.949 145.739   9.735  1.00 70.34     0.044 C 
HETATM   29  C27 STQ 31620     -48.016 145.207   8.680  1.00 70.34    -0.016 C 
HETATM   30  C28 STQ 31620     -47.074 144.374   9.089  1.00 70.34     0.003 C 
HETATM   31  C29 STQ 31620     -46.108 143.779   8.163  1.00 70.34    -0.062 C 
HETATM   32  C30 STQ 31620     -45.359 142.800   8.658  1.00 70.34     0.007 C 
HETATM   33  C31 STQ 31620     -44.350 142.077   7.906  1.00 70.34     0.001 C 
HETATM   34  C32 STQ 31620     -43.748 141.142   8.622  1.00 70.34     0.007 C 
HETATM   35  C33 STQ 31620     -42.695 140.270   8.105  1.00 70.34    -0.062 C 
HETATM   36  C34 STQ 31620     -42.232 139.332   8.929  1.00 70.34     0.007 C 
HETATM   37  C35 STQ 31620     -41.191 138.404   8.531  1.00 70.34     0.001 C 
HETATM   38  C36 STQ 31620     -50.666 146.064   7.921  1.00 70.34     0.016 C 
HETATM   39  C37 STQ 31620     -50.676 144.022   9.286  1.00 70.34     0.016 C 
HETATM   40  C38 STQ 31620     -47.607 147.947   9.302  1.00 70.34     0.044 C 
HETATM   41  C39 STQ 31620     -45.981 144.245   6.746  1.00 70.34     0.048 C 
HETATM   42  C40 STQ 31620     -42.165 140.439   6.719  1.00 70.34     0.048 C 
HETATM   43  O23 STQ 31620     -51.610 147.861  11.983  1.00 70.34    -0.392 OA
ATOM     44  H23 STQ 31620     -51.420 148.762  12.214  1.00  0.00     0.210 HD
ENDROOT
TORSDOF 12
