REMARK VINA RESULT:    -7.931      0.000      0.000
REMARK INTER + INTRA:         -11.872
REMARK INTER:                  -7.931
REMARK INTRA:                  -3.941
REMARK UNBOUND:                -3.941
REMARK  0 active torsions:
REMARK  status: ('A' for Active; 'I' for Inactive)
REMARK       I    between atoms: C3_3  and  O3_21 
REMARK       I    between atoms: C6_6  and  C7_7 
REMARK       I    between atoms: C8_8  and  C9_9 
REMARK       I    between atoms: C10_10  and  C11_11 
REMARK       I    between atoms: C12_12  and  C13_13 
REMARK       I    between atoms: C14_14  and  C15_15 
REMARK       I    between atoms: C23_25  and  O23_43 
REMARK       I    between atoms: C26_28  and  C27_29 
REMARK       I    between atoms: C28_30  and  C29_31 
REMARK       I    between atoms: C30_32  and  C31_33 
REMARK       I    between atoms: C32_34  and  C33_35 
REMARK       I    between atoms: C34_36  and  C35_37 
ROOT
HETATM    1  C1  STQ S1621     -34.387 126.883   5.827  1.00 98.50    -0.018 C 
HETATM    2  C2  STQ S1621     -33.647 125.976   4.865  1.00 95.05     0.045 C 
HETATM    3  C3  STQ S1621     -32.782 126.763   3.905  1.00 91.19     0.123 C 
HETATM    4  C4  STQ S1621     -31.754 127.581   4.656  1.00 95.39     0.066 C 
HETATM    5  C5  STQ S1621     -32.228 128.126   5.977  1.00 94.24    -0.074 C 
HETATM    6  C6  STQ S1621     -33.472 127.921   6.466  1.00 98.17    -0.048 C 
HETATM    7  C7  STQ S1621     -33.984 128.651   7.663  1.00 96.30     0.009 C 
HETATM    8  C8  STQ S1621     -34.546 129.864   7.597  1.00 99.74     0.007 C 
HETATM    9  C9  STQ S1621     -35.087 130.604   8.737  1.00 91.17    -0.062 C 
HETATM   10  C10 STQ S1621     -35.823 131.665   8.408  1.00 97.68     0.007 C 
HETATM   11  C11 STQ S1621     -36.482 132.524   9.372  1.00 98.02     0.001 C 
HETATM   12  C12 STQ S1621     -37.406 133.296   8.833  1.00 91.18     0.007 C 
HETATM   13  C13 STQ S1621     -38.229 134.222   9.609  1.00 90.92    -0.062 C 
HETATM   14  C14 STQ S1621     -39.119 134.933   8.922  1.00 96.50     0.007 C 
HETATM   15  C15 STQ S1621     -40.031 135.883   9.522  1.00 99.38     0.001 C 
HETATM   16  C16 STQ S1621     -35.084 125.946   6.801  1.00 90.00     0.020 C 
HETATM   17  C17 STQ S1621     -35.467 127.653   5.093  1.00 93.85     0.020 C 
HETATM   18  C18 STQ S1621     -31.381 129.305   6.339  1.00 91.76     0.044 C 
HETATM   19  C19 STQ S1621     -34.846 130.196  10.158  1.00 90.99     0.048 C 
HETATM   20  C20 STQ S1621     -38.082 134.339  11.096  1.00 93.33     0.048 C 
HETATM   21  O3  STQ S1621     -32.083 125.850   3.059  1.00 92.07    -0.395 OA
ATOM     22  H3  STQ S1621     -31.540 126.344   2.456  1.00  0.00     0.210 HD
HETATM   23  C21 STQ S1621     -49.269 144.592  10.073  1.00 92.26    -0.035 C 
HETATM   24  C22 STQ S1621     -50.105 145.402  11.052  1.00 91.15     0.045 C 
HETATM   25  C23 STQ S1621     -49.512 146.769  11.353  1.00 99.83     0.142 C 
HETATM   26  C24 STQ S1621     -48.056 146.646  11.719  1.00 88.73     0.007 C 
HETATM   27  C25 STQ S1621     -47.277 145.745  11.117  1.00 81.45    -0.077 C 
HETATM   28  C26 STQ S1621     -47.836 144.453  10.590  1.00 87.98     0.044 C 
HETATM   29  C27 STQ S1621     -46.950 143.878   9.513  1.00 94.75    -0.016 C 
HETATM   30  C28 STQ S1621     -46.367 142.717   9.764  1.00 92.41     0.003 C 
HETATM   31  C29 STQ S1621     -45.497 142.075   8.783  1.00 98.43    -0.062 C 
HETATM   32  C30 STQ S1621     -44.922 140.948   9.176  1.00 92.06     0.007 C 
HETATM   33  C31 STQ S1621     -44.035 140.155   8.351  1.00 98.99     0.001 C 
HETATM   34  C32 STQ S1621     -43.277 139.335   9.054  1.00 98.35     0.007 C 
HETATM   35  C33 STQ S1621     -42.327 138.416   8.436  1.00 93.74    -0.062 C 
HETATM   36  C34 STQ S1621     -41.540 137.711   9.245  1.00 95.45     0.007 C 
HETATM   37  C35 STQ S1621     -40.596 136.754   8.703  1.00 96.56     0.001 C 
HETATM   38  C36 STQ S1621     -49.305 145.216   8.681  1.00 91.16     0.016 C 
HETATM   39  C37 STQ S1621     -49.902 143.212   9.976  1.00 92.72     0.016 C 
HETATM   40  C38 STQ S1621     -45.821 146.041  10.981  1.00 94.63     0.044 C 
HETATM   41  C39 STQ S1621     -45.272 142.657   7.421  1.00 93.10     0.048 C 
HETATM   42  C40 STQ S1621     -42.282 138.267   6.949  1.00 95.49     0.048 C 
HETATM   43  O23 STQ S1621     -50.219 147.350  12.448  1.00 99.14    -0.392 OA
ATOM     44  H23 STQ S1621     -49.850 148.205  12.636  1.00  0.00     0.210 HD
ENDROOT
TORSDOF 12
