REMARK VINA RESULT:    -9.664      0.000      0.000
REMARK INTER + INTRA:         -10.039
REMARK INTER:                  -9.664
REMARK INTRA:                  -0.375
REMARK UNBOUND:                -0.375
REMARK  0 active torsions:
REMARK  status: ('A' for Active; 'I' for Inactive)
REMARK       I    between atoms: C3_3  and  O3_21 
REMARK       I    between atoms: C6_6  and  C7_7 
REMARK       I    between atoms: C8_8  and  C9_9 
REMARK       I    between atoms: C10_10  and  C11_11 
REMARK       I    between atoms: C12_12  and  C13_13 
REMARK       I    between atoms: C14_14  and  C15_15 
REMARK       I    between atoms: C23_25  and  O23_43 
REMARK       I    between atoms: C26_28  and  C27_29 
REMARK       I    between atoms: C28_30  and  C29_31 
REMARK       I    between atoms: C30_32  and  C31_33 
REMARK       I    between atoms: C32_34  and  C33_35 
REMARK       I    between atoms: C34_36  and  C35_37 
ROOT
HETATM    1  C1  STQ H7621     -34.120 128.228   7.019  1.00 22.61    -0.018 C 
HETATM    2  C2  STQ H7621     -33.356 127.589   5.846  1.00 23.33     0.045 C 
HETATM    3  C3  STQ H7621     -31.968 128.096   5.445  1.00 24.77     0.123 C 
HETATM    4  C4  STQ H7621     -31.342 129.154   6.370  1.00 22.10     0.066 C 
HETATM    5  C5  STQ H7621     -32.183 129.850   7.386  1.00 21.89    -0.074 C 
HETATM    6  C6  STQ H7621     -33.460 129.459   7.721  1.00 21.83    -0.048 C 
HETATM    7  C7  STQ H7621     -34.297 130.140   8.735  1.00 21.27     0.009 C 
HETATM    8  C8  STQ H7621     -34.997 131.277   8.516  1.00 20.16     0.007 C 
HETATM    9  C9  STQ H7621     -35.835 132.010   9.454  1.00 19.98    -0.062 C 
HETATM   10  C10 STQ H7621     -36.552 133.051   8.971  1.00 19.41     0.007 C 
HETATM   11  C11 STQ H7621     -37.509 133.843   9.703  1.00 19.37     0.001 C 
HETATM   12  C12 STQ H7621     -38.253 134.813   9.132  1.00 19.06     0.007 C 
HETATM   13  C13 STQ H7621     -39.311 135.608   9.776  1.00 20.91    -0.062 C 
HETATM   14  C14 STQ H7621     -39.970 136.514   9.021  1.00 20.64     0.007 C 
HETATM   15  C15 STQ H7621     -41.067 137.346   9.430  1.00 20.44     0.001 C 
HETATM   16  C16 STQ H7621     -34.284 127.067   8.011  1.00 21.21     0.020 C 
HETATM   17  C17 STQ H7621     -35.532 128.584   6.505  1.00 21.56     0.020 C 
HETATM   18  C18 STQ H7621     -31.387 130.961   7.952  1.00 21.82     0.044 C 
HETATM   19  C19 STQ H7621     -35.912 131.509  10.867  1.00 18.20     0.048 C 
HETATM   20  C20 STQ H7621     -39.620 135.334  11.228  1.00 20.18     0.048 C 
HETATM   21  O3  STQ H7621     -31.073 127.002   5.270  1.00 25.40    -0.395 OA
ATOM     22  H3  STQ H7621     -30.212 127.317   5.021  1.00  0.00     0.210 HD
HETATM   23  C21 STQ H7621     -50.858 145.728   9.927  1.00 19.11    -0.035 C 
HETATM   24  C22 STQ H7621     -51.981 146.523  10.618  1.00 18.10     0.045 C 
HETATM   25  C23 STQ H7621     -51.637 147.994  10.853  1.00 19.16     0.142 C 
HETATM   26  C24 STQ H7621     -50.209 148.202  11.385  1.00 17.14     0.007 C 
HETATM   27  C25 STQ H7621     -49.254 147.247  11.270  1.00 18.43    -0.077 C 
HETATM   28  C26 STQ H7621     -49.464 145.871  10.624  1.00 19.04     0.044 C 
HETATM   29  C27 STQ H7621     -48.303 145.474   9.725  1.00 19.23    -0.016 C 
HETATM   30  C28 STQ H7621     -47.644 144.305   9.829  1.00 22.69     0.003 C 
HETATM   31  C29 STQ H7621     -46.676 143.735   8.884  1.00 24.75    -0.062 C 
HETATM   32  C30 STQ H7621     -46.085 142.562   9.204  1.00 23.92     0.007 C 
HETATM   33  C31 STQ H7621     -45.081 141.872   8.441  1.00 24.21     0.001 C 
HETATM   34  C32 STQ H7621     -44.420 140.795   8.928  1.00 22.58     0.007 C 
HETATM   35  C33 STQ H7621     -43.324 140.041   8.292  1.00 22.21    -0.062 C 
HETATM   36  C34 STQ H7621     -42.737 139.059   9.009  1.00 21.24     0.007 C 
HETATM   37  C35 STQ H7621     -41.621 138.236   8.605  1.00 22.03     0.001 C 
HETATM   38  C36 STQ H7621     -50.782 146.201   8.445  1.00 19.21     0.016 C 
HETATM   39  C37 STQ H7621     -51.288 144.255   9.921  1.00 17.14     0.016 C 
HETATM   40  C38 STQ H7621     -47.940 147.624  11.858  1.00 13.06     0.044 C 
HETATM   41  C39 STQ H7621     -46.350 144.538   7.656  1.00 25.35     0.048 C 
HETATM   42  C40 STQ H7621     -42.878 140.463   6.917  1.00 19.46     0.048 C 
HETATM   43  O23 STQ H7621     -52.600 148.589  11.716  1.00 20.37    -0.392 OA
ATOM     44  H23 STQ H7621     -52.386 149.503  11.862  1.00  0.00     0.210 HD
ENDROOT
TORSDOF 12
