REMARK VINA RESULT:    -9.257      0.000      0.000
REMARK INTER + INTRA:         -10.260
REMARK INTER:                  -9.257
REMARK INTRA:                  -1.002
REMARK UNBOUND:                -1.002
REMARK  0 active torsions:
REMARK  status: ('A' for Active; 'I' for Inactive)
REMARK       I    between atoms: C3_3  and  O3_21 
REMARK       I    between atoms: C6_6  and  C7_7 
REMARK       I    between atoms: C8_8  and  C9_9 
REMARK       I    between atoms: C10_10  and  C11_11 
REMARK       I    between atoms: C12_12  and  C13_13 
REMARK       I    between atoms: C14_14  and  C15_15 
REMARK       I    between atoms: C23_25  and  O23_43 
REMARK       I    between atoms: C26_28  and  C27_29 
REMARK       I    between atoms: C28_30  and  C29_31 
REMARK       I    between atoms: C30_32  and  C31_33 
REMARK       I    between atoms: C32_34  and  C33_35 
REMARK       I    between atoms: C34_36  and  C35_37 
ROOT
HETATM    1  C1  STQ 3 618     -50.577 144.857  11.719  1.00 32.96    -0.018 C 
HETATM    2  C2  STQ 3 618     -50.792 144.478  13.184  1.00 32.96     0.045 C 
HETATM    3  C3  STQ 3 618     -49.950 145.244  14.197  1.00 32.96     0.123 C 
HETATM    4  C4  STQ 3 618     -49.552 146.595  13.641  1.00 32.96     0.066 C 
HETATM    5  C5  STQ 3 618     -48.751 146.357  12.393  1.00 32.96    -0.074 C 
HETATM    6  C6  STQ 3 618     -49.270 145.559  11.455  1.00 32.96    -0.048 C 
HETATM    7  C7  STQ 3 618     -48.496 145.133  10.281  1.00 32.96     0.009 C 
HETATM    8  C8  STQ 3 618     -47.282 144.681  10.601  1.00 32.96     0.007 C 
HETATM    9  C9  STQ 3 618     -46.430 144.013   9.604  1.00 32.96    -0.062 C 
HETATM   10  C10 STQ 3 618     -45.438 143.249  10.088  1.00 32.96     0.007 C 
HETATM   11  C11 STQ 3 618     -44.581 142.417   9.252  1.00 32.96     0.001 C 
HETATM   12  C12 STQ 3 618     -43.763 141.534   9.818  1.00 32.96     0.007 C 
HETATM   13  C13 STQ 3 618     -42.949 140.618   8.996  1.00 32.96    -0.062 C 
HETATM   14  C14 STQ 3 618     -42.309 139.618   9.624  1.00 32.96     0.007 C 
HETATM   15  C15 STQ 3 618     -41.484 138.614   8.954  1.00 32.96     0.001 C 
HETATM   16  C16 STQ 3 618     -51.658 145.846  11.299  1.00 32.96     0.020 C 
HETATM   17  C17 STQ 3 618     -50.655 143.616  10.842  1.00 32.96     0.020 C 
HETATM   18  C18 STQ 3 618     -47.569 147.265  12.169  1.00 32.96     0.044 C 
HETATM   19  C19 STQ 3 618     -46.733 144.163   8.140  1.00 32.96     0.048 C 
HETATM   20  C20 STQ 3 618     -42.909 140.825   7.514  1.00 32.96     0.048 C 
HETATM   21  O3  STQ 3 618     -50.708 145.455  15.391  1.00 32.96    -0.395 OA
ATOM     22  H3  STQ 3 618     -50.183 145.933  16.023  1.00  0.00     0.210 HD
HETATM   23  C21 STQ 3 618     -34.183 128.520   6.960  1.00 32.96    -0.035 C 
HETATM   24  C22 STQ 3 618     -33.429 127.821   5.854  1.00 32.96     0.045 C 
HETATM   25  C23 STQ 3 618     -31.946 127.747   6.147  1.00 32.96     0.142 C 
HETATM   26  C24 STQ 3 618     -31.423 129.069   6.650  1.00 32.96     0.007 C 
HETATM   27  C25 STQ 3 618     -32.220 130.069   7.046  1.00 32.96    -0.077 C 
HETATM   28  C26 STQ 3 618     -33.716 129.962   7.037  1.00 32.96     0.044 C 
HETATM   29  C27 STQ 3 618     -34.337 130.616   8.246  1.00 32.96    -0.016 C 
HETATM   30  C28 STQ 3 618     -35.220 131.579   8.029  1.00 32.96     0.003 C 
HETATM   31  C29 STQ 3 618     -35.916 132.280   9.112  1.00 32.96    -0.062 C 
HETATM   32  C30 STQ 3 618     -36.824 133.180   8.712  1.00 32.96     0.007 C 
HETATM   33  C31 STQ 3 618     -37.646 134.000   9.587  1.00 32.96     0.001 C 
HETATM   34  C32 STQ 3 618     -38.466 134.865   9.002  1.00 32.96     0.007 C 
HETATM   35  C33 STQ 3 618     -39.326 135.779   9.770  1.00 32.96    -0.062 C 
HETATM   36  C34 STQ 3 618     -40.031 136.689   9.077  1.00 32.96     0.007 C 
HETATM   37  C35 STQ 3 618     -40.891 137.691   9.696  1.00 32.96     0.001 C 
HETATM   38  C36 STQ 3 618     -33.986 127.790   8.279  1.00 32.96     0.016 C 
HETATM   39  C37 STQ 3 618     -35.658 128.503   6.603  1.00 32.96     0.016 C 
HETATM   40  C38 STQ 3 618     -31.580 131.352   7.466  1.00 32.96     0.044 C 
HETATM   41  C39 STQ 3 618     -35.612 131.940  10.540  1.00 32.96     0.048 C 
HETATM   42  C40 STQ 3 618     -39.345 135.645  11.260  1.00 32.96     0.048 C 
HETATM   43  O23 STQ 3 618     -31.269 127.403   4.938  1.00 32.96    -0.392 OA
ATOM     44  H23 STQ 3 618     -30.338 127.357   5.122  1.00  0.00     0.210 HD
ENDROOT
TORSDOF 12
