REMARK VINA RESULT:    -8.504      1.961     17.104
REMARK INTER + INTRA:          -9.180
REMARK INTER:                  -9.409
REMARK INTRA:                   0.229
REMARK UNBOUND:                -0.676
REMARK  0 active torsions:
REMARK  status: ('A' for Active; 'I' for Inactive)
REMARK       I    between atoms: C3_3  and  O3_21 
REMARK       I    between atoms: C6_6  and  C7_7 
REMARK       I    between atoms: C8_8  and  C9_9 
REMARK       I    between atoms: C10_10  and  C11_11 
REMARK       I    between atoms: C12_12  and  C13_13 
REMARK       I    between atoms: C14_14  and  C15_15 
REMARK       I    between atoms: C23_25  and  O23_43 
REMARK       I    between atoms: C26_28  and  C27_29 
REMARK       I    between atoms: C28_30  and  C29_31 
REMARK       I    between atoms: C30_32  and  C31_33 
REMARK       I    between atoms: C32_34  and  C33_35 
REMARK       I    between atoms: C34_36  and  C35_37 
ROOT
HETATM    1  C1  STQ 6 321     -34.096 128.013   7.294  1.00 93.31    -0.018 C 
HETATM    2  C2  STQ 6 321     -33.245 127.284   6.254  1.00 93.93     0.045 C 
HETATM    3  C3  STQ 6 321     -32.232 128.141   5.507  1.00 93.98     0.123 C 
HETATM    4  C4  STQ 6 321     -31.436 128.974   6.496  1.00 93.16     0.066 C 
HETATM    5  C5  STQ 6 321     -32.376 129.834   7.297  1.00 92.19    -0.074 C 
HETATM    6  C6  STQ 6 321     -33.561 129.371   7.710  1.00 91.50    -0.048 C 
HETATM    7  C7  STQ 6 321     -34.388 130.200   8.619  1.00 98.60     0.009 C 
HETATM    8  C8  STQ 6 321     -35.181 131.172   8.165  1.00 95.09     0.007 C 
HETATM    9  C9  STQ 6 321     -35.996 131.985   9.092  1.00 91.76    -0.062 C 
HETATM   10  C10 STQ 6 321     -36.629 133.071   8.627  1.00 98.95     0.007 C 
HETATM   11  C11 STQ 6 321     -37.451 133.912   9.497  1.00 96.41     0.001 C 
HETATM   12  C12 STQ 6 321     -38.048 134.981   8.977  1.00 94.60     0.007 C 
HETATM   13  C13 STQ 6 321     -38.890 135.863   9.806  1.00 93.62    -0.062 C 
HETATM   14  C14 STQ 6 321     -39.511 136.913   9.248  1.00 93.18     0.007 C 
HETATM   15  C15 STQ 6 321     -40.351 137.787  10.063  1.00 93.10     0.001 C 
HETATM   16  C16 STQ 6 321     -34.213 127.127   8.528  1.00 93.81     0.020 C 
HETATM   17  C17 STQ 6 321     -35.486 128.232   6.706  1.00 92.50     0.020 C 
HETATM   18  C18 STQ 6 321     -31.816 131.113   7.849  1.00 91.81     0.044 C 
HETATM   19  C19 STQ 6 321     -36.115 131.599  10.537  1.00 91.57     0.048 C 
HETATM   20  C20 STQ 6 321     -39.054 135.579  11.270  1.00 93.41     0.048 C 
HETATM   21  O3  STQ 6 321     -31.336 127.293   4.779  1.00 94.06    -0.395 OA
ATOM     22  H3  STQ 6 321     -30.704 127.828   4.313  1.00  0.00     0.210 HD
HETATM   23  C21 STQ 6 321     -49.353 145.993  13.920  1.00 98.56    -0.035 C 
HETATM   24  C22 STQ 6 321     -49.987 146.578  15.177  1.00 98.19     0.045 C 
HETATM   25  C23 STQ 6 321     -49.596 148.029  15.453  1.00 98.22     0.142 C 
HETATM   26  C24 STQ 6 321     -48.136 148.287  15.162  1.00 99.27     0.007 C 
HETATM   27  C25 STQ 6 321     -47.441 147.560  14.276  1.00 99.66    -0.077 C 
HETATM   28  C26 STQ 6 321     -47.834 146.143  13.964  1.00 99.84     0.044 C 
HETATM   29  C27 STQ 6 321     -47.217 145.707  12.651  1.00 90.68    -0.016 C 
HETATM   30  C28 STQ 6 321     -46.307 144.738  12.686  1.00 92.00     0.003 C 
HETATM   31  C29 STQ 6 321     -45.626 144.214  11.486  1.00 92.38    -0.062 C 
HETATM   32  C30 STQ 6 321     -44.750 143.212  11.660  1.00 92.82     0.007 C 
HETATM   33  C31 STQ 6 321     -44.000 142.583  10.575  1.00 93.26     0.001 C 
HETATM   34  C32 STQ 6 321     -43.237 141.547  10.914  1.00 94.43     0.007 C 
HETATM   35  C33 STQ 6 321     -42.416 140.784   9.953  1.00 94.12    -0.062 C 
HETATM   36  C34 STQ 6 321     -41.779 139.689  10.398  1.00 93.68     0.007 C 
HETATM   37  C35 STQ 6 321     -40.946 138.857   9.536  1.00 93.36     0.001 C 
HETATM   38  C36 STQ 6 321     -49.923 146.662  12.674  1.00 97.63     0.016 C 
HETATM   39  C37 STQ 6 321     -49.692 144.508  13.865  1.00 98.72     0.016 C 
HETATM   40  C38 STQ 6 321     -46.258 148.174  13.589  1.00 99.28     0.044 C 
HETATM   41  C39 STQ 6 321     -45.902 144.782  10.125  1.00 91.58     0.048 C 
HETATM   42  C40 STQ 6 321     -42.301 141.222   8.522  1.00 93.59     0.048 C 
HETATM   43  O23 STQ 6 321     -49.848 148.326  16.832  1.00 97.53    -0.392 OA
ATOM     44  H23 STQ 6 321     -49.604 149.228  17.004  1.00  0.00     0.210 HD
ENDROOT
TORSDOF 12
