REMARK VINA RESULT:    -4.363      1.681     16.851
REMARK INTER + INTRA:          -8.419
REMARK INTER:                  -3.475
REMARK INTRA:                  -4.944
REMARK UNBOUND:                -4.057
REMARK  0 active torsions:
REMARK  status: ('A' for Active; 'I' for Inactive)
REMARK       I    between atoms: C3_3  and  O3_21 
REMARK       I    between atoms: C6_6  and  C7_7 
REMARK       I    between atoms: C8_8  and  C9_9 
REMARK       I    between atoms: C10_10  and  C11_11 
REMARK       I    between atoms: C12_12  and  C13_13 
REMARK       I    between atoms: C14_14  and  C15_15 
REMARK       I    between atoms: C23_25  and  O23_43 
REMARK       I    between atoms: C26_28  and  C27_29 
REMARK       I    between atoms: C28_30  and  C29_31 
REMARK       I    between atoms: C30_32  and  C31_33 
REMARK       I    between atoms: C32_34  and  C33_35 
REMARK       I    between atoms: C34_36  and  C35_37 
ROOT
HETATM    1  C1  STQ 1 618     -48.725 147.120  10.139  1.00 19.63    -0.018 C 
HETATM    2  C2  STQ 1 618     -50.235 147.328  10.229  1.00 19.63     0.045 C 
HETATM    3  C3  STQ 1 618     -50.892 147.084  11.578  1.00 19.63     0.123 C 
HETATM    4  C4  STQ 1 618     -49.992 147.563  12.696  1.00 19.63     0.066 C 
HETATM    5  C5  STQ 1 618     -48.730 146.765  12.593  1.00 19.63    -0.074 C 
HETATM    6  C6  STQ 1 618     -48.046 146.746  11.446  1.00 19.63    -0.048 C 
HETATM    7  C7  STQ 1 618     -46.603 146.401  11.401  1.00 19.63     0.009 C 
HETATM    8  C8  STQ 1 618     -46.166 145.141  11.442  1.00 19.63     0.007 C 
HETATM    9  C9  STQ 1 618     -44.733 144.801  11.372  1.00 19.63    -0.062 C 
HETATM   10  C10 STQ 1 618     -44.401 143.543  11.069  1.00 19.63     0.007 C 
HETATM   11  C11 STQ 1 618     -43.029 143.061  10.939  1.00 19.63     0.001 C 
HETATM   12  C12 STQ 1 618     -42.924 141.814  10.499  1.00 19.63     0.007 C 
HETATM   13  C13 STQ 1 618     -41.683 141.067  10.241  1.00 19.63    -0.062 C 
HETATM   14  C14 STQ 1 618     -41.827 139.788   9.869  1.00 19.63     0.007 C 
HETATM   15  C15 STQ 1 618     -40.711 138.916   9.533  1.00 19.63     0.001 C 
HETATM   16  C16 STQ 1 618     -48.125 148.395   9.557  1.00 19.63     0.020 C 
HETATM   17  C17 STQ 1 618     -48.473 145.981   9.168  1.00 19.63     0.020 C 
HETATM   18  C18 STQ 1 618     -48.066 146.899  13.928  1.00 19.63     0.044 C 
HETATM   19  C19 STQ 1 618     -43.679 145.833  11.630  1.00 19.63     0.048 C 
HETATM   20  C20 STQ 1 618     -40.335 141.706  10.366  1.00 19.63     0.048 C 
HETATM   21  O3  STQ 1 618     -52.125 147.806  11.625  1.00 19.63    -0.395 OA
ATOM     22  H3  STQ 1 618     -52.690 147.505  10.924  1.00  0.00     0.210 HD
HETATM   23  C21 STQ 1 618     -34.464 128.286   5.684  1.00 19.63    -0.035 C 
HETATM   24  C22 STQ 1 618     -33.074 127.802   5.291  1.00 19.63     0.045 C 
HETATM   25  C23 STQ 1 618     -32.171 127.494   6.477  1.00 19.63     0.142 C 
HETATM   26  C24 STQ 1 618     -32.216 128.606   7.486  1.00 19.63     0.007 C 
HETATM   27  C25 STQ 1 618     -33.333 129.293   7.720  1.00 19.63    -0.077 C 
HETATM   28  C26 STQ 1 618     -34.387 129.472   6.656  1.00 19.63     0.044 C 
HETATM   29  C27 STQ 1 618     -35.733 129.770   7.286  1.00 19.63    -0.016 C 
HETATM   30  C28 STQ 1 618     -36.239 130.981   7.082  1.00 19.63     0.003 C 
HETATM   31  C29 STQ 1 618     -37.526 131.440   7.624  1.00 19.63    -0.062 C 
HETATM   32  C30 STQ 1 618     -37.869 132.707   7.373  1.00 19.63     0.007 C 
HETATM   33  C31 STQ 1 618     -39.103 133.335   7.826  1.00 19.63     0.001 C 
HETATM   34  C32 STQ 1 618     -39.014 134.626   8.121  1.00 19.63     0.007 C 
HETATM   35  C33 STQ 1 618     -40.139 135.454   8.579  1.00 19.63    -0.062 C 
HETATM   36  C34 STQ 1 618     -39.931 136.768   8.714  1.00 19.63     0.007 C 
HETATM   37  C35 STQ 1 618     -40.988 137.683   9.122  1.00 19.63     0.001 C 
HETATM   38  C36 STQ 1 618     -35.266 127.130   6.263  1.00 19.63     0.016 C 
HETATM   39  C37 STQ 1 618     -35.172 128.731   4.413  1.00 19.63     0.016 C 
HETATM   40  C38 STQ 1 618     -33.499 129.905   9.077  1.00 19.63     0.044 C 
HETATM   41  C39 STQ 1 618     -38.405 130.533   8.430  1.00 19.63     0.048 C 
HETATM   42  C40 STQ 1 618     -41.466 134.843   8.892  1.00 19.63     0.048 C 
HETATM   43  O23 STQ 1 618     -30.819 127.336   6.039  1.00 19.63    -0.392 OA
ATOM     44  H23 STQ 1 618     -30.255 127.145   6.779  1.00  0.00     0.210 HD
ENDROOT
TORSDOF 12
