REMARK VINA RESULT:   -11.324      0.000      0.000
REMARK INTER + INTRA:         -13.930
REMARK INTER:                 -11.324
REMARK INTRA:                  -2.606
REMARK UNBOUND:                -2.606
REMARK  0 active torsions:
REMARK  status: ('A' for Active; 'I' for Inactive)
REMARK       I    between atoms: C3_3  and  O3_21 
REMARK       I    between atoms: C6_6  and  C7_7 
REMARK       I    between atoms: C8_8  and  C9_9 
REMARK       I    between atoms: C10_10  and  C11_11 
REMARK       I    between atoms: C12_12  and  C13_13 
REMARK       I    between atoms: C14_14  and  C15_15 
REMARK       I    between atoms: C23_25  and  O23_43 
REMARK       I    between atoms: C26_28  and  C27_29 
REMARK       I    between atoms: C28_30  and  C29_31 
REMARK       I    between atoms: C30_32  and  C31_33 
REMARK       I    between atoms: C32_34  and  C33_35 
REMARK       I    between atoms: C34_36  and  C35_37 
ROOT
HETATM    1  C1  STQ 31621     -34.437 127.029   6.396  1.00 71.39    -0.018 C 
HETATM    2  C2  STQ 31621     -34.117 126.533   4.991  1.00 71.39     0.045 C 
HETATM    3  C3  STQ 31621     -32.936 127.161   4.262  1.00 71.39     0.123 C 
HETATM    4  C4  STQ 31621     -31.874 127.635   5.229  1.00 71.39     0.066 C 
HETATM    5  C5  STQ 31621     -32.540 128.585   6.177  1.00 71.39    -0.074 C 
HETATM    6  C6  STQ 31621     -33.659 128.254   6.820  1.00 71.39    -0.048 C 
HETATM    7  C7  STQ 31621     -34.184 129.054   7.960  1.00 71.39     0.009 C 
HETATM    8  C8  STQ 31621     -34.919 130.149   7.764  1.00 71.39     0.007 C 
HETATM    9  C9  STQ 31621     -35.499 130.978   8.837  1.00 71.39    -0.062 C 
HETATM   10  C10 STQ 31621     -36.369 131.916   8.454  1.00 71.39     0.007 C 
HETATM   11  C11 STQ 31621     -37.099 132.841   9.313  1.00 71.39     0.001 C 
HETATM   12  C12 STQ 31621     -37.941 133.642   8.660  1.00 71.39     0.007 C 
HETATM   13  C13 STQ 31621     -38.818 134.642   9.288  1.00 71.39    -0.062 C 
HETATM   14  C14 STQ 31621     -39.633 135.348   8.495  1.00 71.39     0.007 C 
HETATM   15  C15 STQ 31621     -40.568 136.326   9.032  1.00 71.39     0.001 C 
HETATM   16  C16 STQ 31621     -34.219 125.876   7.370  1.00 71.39     0.020 C 
HETATM   17  C17 STQ 31621     -35.905 127.398   6.436  1.00 71.39     0.020 C 
HETATM   18  C18 STQ 31621     -31.573 129.581   6.718  1.00 71.39     0.044 C 
HETATM   19  C19 STQ 31621     -35.154 130.777  10.279  1.00 71.39     0.048 C 
HETATM   20  C20 STQ 31621     -38.819 134.847  10.769  1.00 71.39     0.048 C 
HETATM   21  O3  STQ 31621     -32.341 126.180   3.406  1.00 71.39    -0.395 OA
ATOM     22  H3  STQ 31621     -31.604 126.571   2.951  1.00  0.00     0.210 HD
HETATM   23  C21 STQ 31621     -50.081 144.690  10.198  1.00 71.39    -0.035 C 
HETATM   24  C22 STQ 31621     -50.975 145.556  11.065  1.00 71.39     0.045 C 
HETATM   25  C23 STQ 31621     -50.597 147.018  10.979  1.00 71.39     0.142 C 
HETATM   26  C24 STQ 31621     -49.141 147.157  11.336  1.00 71.39     0.007 C 
HETATM   27  C25 STQ 31621     -48.239 146.249  10.944  1.00 71.39    -0.077 C 
HETATM   28  C26 STQ 31621     -48.615 144.831  10.617  1.00 71.39     0.044 C 
HETATM   29  C27 STQ 31621     -47.700 144.267   9.553  1.00 71.39    -0.016 C 
HETATM   30  C28 STQ 31621     -47.030 143.162   9.842  1.00 71.39     0.003 C 
HETATM   31  C29 STQ 31621     -46.130 142.512   8.888  1.00 71.39    -0.062 C 
HETATM   32  C30 STQ 31621     -45.726 141.270   9.171  1.00 71.39     0.007 C 
HETATM   33  C31 STQ 31621     -44.838 140.491   8.319  1.00 71.39     0.001 C 
HETATM   34  C32 STQ 31621     -44.013 139.650   8.926  1.00 71.39     0.007 C 
HETATM   35  C33 STQ 31621     -43.071 138.800   8.190  1.00 71.39    -0.062 C 
HETATM   36  C34 STQ 31621     -42.248 138.003   8.874  1.00 71.39     0.007 C 
HETATM   37  C35 STQ 31621     -41.302 137.098   8.234  1.00 71.39     0.001 C 
HETATM   38  C36 STQ 31621     -50.288 145.039   8.731  1.00 71.39     0.016 C 
HETATM   39  C37 STQ 31621     -50.541 143.254  10.399  1.00 71.39     0.016 C 
HETATM   40  C38 STQ 31621     -46.807 146.673  10.853  1.00 71.39     0.044 C 
HETATM   41  C39 STQ 31621     -45.690 143.223   7.649  1.00 71.39     0.048 C 
HETATM   42  C40 STQ 31621     -43.062 138.856   6.705  1.00 71.39     0.048 C 
HETATM   43  O23 STQ 31621     -51.403 147.743  11.909  1.00 71.39    -0.392 OA
ATOM     44  H23 STQ 31621     -52.321 147.655  11.683  1.00  0.00     0.210 HD
ENDROOT
TORSDOF 12
