REMARK VINA RESULT:    -7.761      1.180     16.944
REMARK INTER + INTRA:         -10.916
REMARK INTER:                 -10.441
REMARK INTRA:                  -0.474
REMARK UNBOUND:                -3.155
REMARK  0 active torsions:
REMARK  status: ('A' for Active; 'I' for Inactive)
REMARK       I    between atoms: C3_3  and  O3_21 
REMARK       I    between atoms: C6_6  and  C7_7 
REMARK       I    between atoms: C8_8  and  C9_9 
REMARK       I    between atoms: C10_10  and  C11_11 
REMARK       I    between atoms: C12_12  and  C13_13 
REMARK       I    between atoms: C14_14  and  C15_15 
REMARK       I    between atoms: C23_25  and  O23_43 
REMARK       I    between atoms: C26_28  and  C27_29 
REMARK       I    between atoms: C28_30  and  C29_31 
REMARK       I    between atoms: C30_32  and  C31_33 
REMARK       I    between atoms: C32_34  and  C33_35 
REMARK       I    between atoms: C34_36  and  C35_37 
ROOT
HETATM    1  C1  STQ 5 624     -49.545 146.215  11.711  1.00 23.68    -0.018 C 
HETATM    2  C2  STQ 5 624     -50.537 146.362  12.862  1.00 23.68     0.045 C 
HETATM    3  C3  STQ 5 624     -50.066 147.027  14.149  1.00 23.68     0.123 C 
HETATM    4  C4  STQ 5 624     -48.936 148.008  13.899  1.00 23.68     0.066 C 
HETATM    5  C5  STQ 5 624     -47.843 147.296  13.154  1.00 23.68    -0.074 C 
HETATM    6  C6  STQ 5 624     -48.116 146.614  12.039  1.00 23.68    -0.048 C 
HETATM    7  C7  STQ 5 624     -47.035 146.265  11.077  1.00 23.68     0.009 C 
HETATM    8  C8  STQ 5 624     -46.258 145.186  11.211  1.00 23.68     0.007 C 
HETATM    9  C9  STQ 5 624     -45.188 144.837  10.246  1.00 23.68    -0.062 C 
HETATM   10  C10 STQ 5 624     -44.549 143.669  10.415  1.00 23.68     0.007 C 
HETATM   11  C11 STQ 5 624     -43.484 143.115   9.579  1.00 23.68     0.001 C 
HETATM   12  C12 STQ 5 624     -43.165 141.856   9.889  1.00 23.68     0.007 C 
HETATM   13  C13 STQ 5 624     -42.171 140.966   9.254  1.00 23.68    -0.062 C 
HETATM   14  C14 STQ 5 624     -41.915 139.796   9.865  1.00 23.68     0.007 C 
HETATM   15  C15 STQ 5 624     -40.991 138.802   9.326  1.00 23.68     0.001 C 
HETATM   16  C16 STQ 5 624     -50.098 147.041  10.563  1.00 23.68     0.020 C 
HETATM   17  C17 STQ 5 624     -49.520 144.752  11.292  1.00 23.68     0.020 C 
HETATM   18  C18 STQ 5 624     -46.562 148.058  13.311  1.00 23.68     0.044 C 
HETATM   19  C19 STQ 5 624     -44.828 145.753   9.118  1.00 23.68     0.048 C 
HETATM   20  C20 STQ 5 624     -41.492 141.331   7.971  1.00 23.68     0.048 C 
HETATM   21  O3  STQ 5 624     -51.171 147.726  14.725  1.00 23.68    -0.395 OA
ATOM     22  H3  STQ 5 624     -50.877 148.140  15.528  1.00  0.00     0.210 HD
HETATM   23  C21 STQ 5 624     -34.183 128.183   6.951  1.00 23.68    -0.035 C 
HETATM   24  C22 STQ 5 624     -33.338 127.491   5.896  1.00 23.68     0.045 C 
HETATM   25  C23 STQ 5 624     -31.863 127.837   5.960  1.00 23.68     0.142 C 
HETATM   26  C24 STQ 5 624     -31.677 129.324   6.041  1.00 23.68     0.007 C 
HETATM   27  C25 STQ 5 624     -32.572 130.113   6.642  1.00 23.68    -0.077 C 
HETATM   28  C26 STQ 5 624     -34.002 129.702   6.882  1.00 23.68     0.044 C 
HETATM   29  C27 STQ 5 624     -34.562 130.361   8.126  1.00 23.68    -0.016 C 
HETATM   30  C28 STQ 5 624     -35.572 131.208   7.968  1.00 23.68     0.003 C 
HETATM   31  C29 STQ 5 624     -36.240 131.911   9.075  1.00 23.68    -0.062 C 
HETATM   32  C30 STQ 5 624     -37.164 132.813   8.728  1.00 23.68     0.007 C 
HETATM   33  C31 STQ 5 624     -37.958 133.604   9.658  1.00 23.68     0.001 C 
HETATM   34  C32 STQ 5 624     -38.378 134.787   9.229  1.00 23.68     0.007 C 
HETATM   35  C33 STQ 5 624     -39.213 135.690  10.033  1.00 23.68    -0.062 C 
HETATM   36  C34 STQ 5 624     -39.712 136.778   9.424  1.00 23.68     0.007 C 
HETATM   37  C35 STQ 5 624     -40.596 137.755  10.054  1.00 23.68     0.001 C 
HETATM   38  C36 STQ 5 624     -33.846 127.631   8.332  1.00 23.68     0.016 C 
HETATM   39  C37 STQ 5 624     -35.633 127.838   6.650  1.00 23.68     0.016 C 
HETATM   40  C38 STQ 5 624     -32.109 131.462   7.068  1.00 23.68     0.044 C 
HETATM   41  C39 STQ 5 624     -35.907 131.618  10.506  1.00 23.68     0.048 C 
HETATM   42  C40 STQ 5 624     -39.487 135.376  11.472  1.00 23.68     0.048 C 
HETATM   43  O23 STQ 5 624     -31.223 127.364   4.772  1.00 23.68    -0.392 OA
ATOM     44  H23 STQ 5 624     -31.340 126.422   4.721  1.00  0.00     0.210 HD
ENDROOT
TORSDOF 12
