REMARK VINA RESULT:    -9.440      1.998      2.564
REMARK INTER + INTRA:          -9.914
REMARK INTER:                  -7.313
REMARK INTRA:                  -2.601
REMARK UNBOUND:                -0.474
REMARK  0 active torsions:
REMARK  status: ('A' for Active; 'I' for Inactive)
REMARK       I    between atoms: C3_3  and  O3_21 
REMARK       I    between atoms: C6_6  and  C7_7 
REMARK       I    between atoms: C8_8  and  C9_9 
REMARK       I    between atoms: C10_10  and  C11_11 
REMARK       I    between atoms: C12_12  and  C13_13 
REMARK       I    between atoms: C14_14  and  C15_15 
REMARK       I    between atoms: C23_25  and  O23_43 
REMARK       I    between atoms: C26_28  and  C27_29 
REMARK       I    between atoms: C28_30  and  C29_31 
REMARK       I    between atoms: C30_32  and  C31_33 
REMARK       I    between atoms: C32_34  and  C33_35 
REMARK       I    between atoms: C34_36  and  C35_37 
ROOT
HETATM    1  C1  STQ A 621     -34.617 127.267   6.053  1.00 21.58    -0.018 C 
HETATM    2  C2  STQ A 621     -34.180 126.612   4.726  1.00 21.20     0.045 C 
HETATM    3  C3  STQ A 621     -32.853 127.008   4.071  1.00 20.61     0.123 C 
HETATM    4  C4  STQ A 621     -31.938 127.904   4.922  1.00 19.82     0.066 C 
HETATM    5  C5  STQ A 621     -32.448 128.614   6.137  1.00 19.81    -0.074 C 
HETATM    6  C6  STQ A 621     -33.677 128.353   6.708  1.00 19.95    -0.048 C 
HETATM    7  C7  STQ A 621     -34.199 129.026   7.934  1.00 17.10     0.009 C 
HETATM    8  C8  STQ A 621     -34.767 130.252   7.948  1.00 17.58     0.007 C 
HETATM    9  C9  STQ A 621     -35.311 131.033   9.065  1.00 19.11    -0.062 C 
HETATM   10  C10 STQ A 621     -35.947 132.189   8.769  1.00 18.37     0.007 C 
HETATM   11  C11 STQ A 621     -36.628 133.042   9.703  1.00 18.85     0.001 C 
HETATM   12  C12 STQ A 621     -37.329 134.131   9.336  1.00 19.83     0.007 C 
HETATM   13  C13 STQ A 621     -38.141 134.987  10.226  1.00 21.26    -0.062 C 
HETATM   14  C14 STQ A 621     -38.820 136.016   9.669  1.00 20.79     0.007 C 
HETATM   15  C15 STQ A 621     -39.710 136.946  10.321  1.00 20.26     0.001 C 
HETATM   16  C16 STQ A 621     -34.768 126.042   6.984  1.00 19.38     0.020 C 
HETATM   17  C17 STQ A 621     -36.026 127.857   5.810  1.00 19.65     0.020 C 
HETATM   18  C18 STQ A 621     -31.396 129.554   6.603  1.00 20.06     0.044 C 
HETATM   19  C19 STQ A 621     -35.202 130.458  10.449  1.00 17.70     0.048 C 
HETATM   20  C20 STQ A 621     -38.191 134.630  11.684  1.00 18.78     0.048 C 
HETATM   21  O3  STQ A 621     -32.147 125.850   3.651  1.00 18.88    -0.395 OA
ATOM     22  H3  STQ A 621     -32.712 125.296   3.125  1.00  0.00     0.210 HD
HETATM   23  C21 STQ A 621     -48.024 146.348  13.293  1.00 22.85    -0.035 C 
HETATM   24  C22 STQ A 621     -48.839 147.190  14.290  1.00 23.17     0.045 C 
HETATM   25  C23 STQ A 621     -48.278 148.593  14.525  1.00 24.17     0.142 C 
HETATM   26  C24 STQ A 621     -46.750 148.588  14.717  1.00 23.54     0.007 C 
HETATM   27  C25 STQ A 621     -45.988 147.532  14.327  1.00 24.17    -0.077 C 
HETATM   28  C26 STQ A 621     -46.519 146.250  13.679  1.00 23.23     0.044 C 
HETATM   29  C27 STQ A 621     -45.630 145.772  12.530  1.00 24.75    -0.016 C 
HETATM   30  C28 STQ A 621     -45.102 144.525  12.392  1.00 25.59     0.003 C 
HETATM   31  C29 STQ A 621     -44.417 143.981  11.197  1.00 26.46    -0.062 C 
HETATM   32  C30 STQ A 621     -43.914 142.727  11.257  1.00 24.31     0.007 C 
HETATM   33  C31 STQ A 621     -43.210 142.016  10.214  1.00 21.85     0.001 C 
HETATM   34  C32 STQ A 621     -42.597 140.843  10.500  1.00 20.83     0.007 C 
HETATM   35  C33 STQ A 621     -41.771 139.963   9.656  1.00 21.05    -0.062 C 
HETATM   36  C34 STQ A 621     -41.192 138.894  10.244  1.00 19.63     0.007 C 
HETATM   37  C35 STQ A 621     -40.301 137.939   9.633  1.00 20.78     0.001 C 
HETATM   38  C36 STQ A 621     -48.195 146.977  11.872  1.00 21.00     0.016 C 
HETATM   39  C37 STQ A 621     -48.651 144.948  13.278  1.00 22.25     0.016 C 
HETATM   40  C38 STQ A 621     -44.534 147.688  14.595  1.00 21.23     0.044 C 
HETATM   41  C39 STQ A 621     -44.259 144.892  10.012  1.00 25.84     0.048 C 
HETATM   42  C40 STQ A 621     -41.566 140.353   8.218  1.00 18.97     0.048 C 
HETATM   43  O23 STQ A 621     -48.938 149.200  15.627  1.00 25.06    -0.392 OA
ATOM     44  H23 STQ A 621     -49.880 149.203  15.509  1.00  0.00     0.210 HD
ENDROOT
TORSDOF 12
