REMARK VINA RESULT:    -6.475      1.522      1.861
REMARK INTER + INTRA:          -9.542
REMARK INTER:                  -9.228
REMARK INTRA:                  -0.314
REMARK UNBOUND:                -3.067
REMARK  0 active torsions:
REMARK  status: ('A' for Active; 'I' for Inactive)
REMARK       I    between atoms: C3_3  and  O3_21 
REMARK       I    between atoms: C6_6  and  C7_7 
REMARK       I    between atoms: C8_8  and  C9_9 
REMARK       I    between atoms: C10_10  and  C11_11 
REMARK       I    between atoms: C12_12  and  C13_13 
REMARK       I    between atoms: C14_14  and  C15_15 
REMARK       I    between atoms: C23_25  and  O23_43 
REMARK       I    between atoms: C26_28  and  C27_29 
REMARK       I    between atoms: C28_30  and  C29_31 
REMARK       I    between atoms: C30_32  and  C31_33 
REMARK       I    between atoms: C32_34  and  C33_35 
REMARK       I    between atoms: C34_36  and  C35_37 
ROOT
HETATM    1  C1  STQ E4620     -34.204 128.178   6.728  1.00 19.12    -0.018 C 
HETATM    2  C2  STQ E4620     -33.249 127.482   5.738  1.00 18.29     0.045 C 
HETATM    3  C3  STQ E4620     -31.982 128.236   5.330  1.00 18.54     0.123 C 
HETATM    4  C4  STQ E4620     -31.344 129.011   6.482  1.00 18.55     0.066 C 
HETATM    5  C5  STQ E4620     -32.250 129.689   7.458  1.00 18.97    -0.074 C 
HETATM    6  C6  STQ E4620     -33.581 129.322   7.594  1.00 18.68    -0.048 C 
HETATM    7  C7  STQ E4620     -34.477 129.970   8.565  1.00 18.46     0.009 C 
HETATM    8  C8  STQ E4620     -35.068 131.166   8.472  1.00 18.89     0.007 C 
HETATM    9  C9  STQ E4620     -35.851 131.859   9.497  1.00 19.10    -0.062 C 
HETATM   10  C10 STQ E4620     -36.449 133.018   9.148  1.00 18.99     0.007 C 
HETATM   11  C11 STQ E4620     -37.273 133.851   9.971  1.00 18.78     0.001 C 
HETATM   12  C12 STQ E4620     -37.937 134.858   9.400  1.00 19.28     0.007 C 
HETATM   13  C13 STQ E4620     -38.878 135.790  10.020  1.00 21.25    -0.062 C 
HETATM   14  C14 STQ E4620     -39.513 136.660   9.202  1.00 20.64     0.007 C 
HETATM   15  C15 STQ E4620     -40.533 137.603   9.554  1.00 21.49     0.001 C 
HETATM   16  C16 STQ E4620     -34.710 127.036   7.623  1.00 19.29     0.020 C 
HETATM   17  C17 STQ E4620     -35.411 128.711   5.934  1.00 16.00     0.020 C 
HETATM   18  C18 STQ E4620     -31.433 130.714   8.171  1.00 17.87     0.044 C 
HETATM   19  C19 STQ E4620     -35.981 131.207  10.848  1.00 17.60     0.048 C 
HETATM   20  C20 STQ E4620     -39.127 135.666  11.497  1.00 16.75     0.048 C 
HETATM   21  O3  STQ E4620     -31.036 127.342   4.759  1.00 19.42    -0.395 OA
ATOM     22  H3  STQ E4620     -30.249 127.811   4.506  1.00  0.00     0.210 HD
HETATM   23  C21 STQ E4620     -50.775 145.406   9.484  1.00 27.80    -0.035 C 
HETATM   24  C22 STQ E4620     -51.899 146.189  10.207  1.00 28.12     0.045 C 
HETATM   25  C23 STQ E4620     -51.672 147.702  10.295  1.00 29.31     0.142 C 
HETATM   26  C24 STQ E4620     -50.199 148.074  10.548  1.00 30.79     0.007 C 
HETATM   27  C25 STQ E4620     -49.166 147.204  10.399  1.00 30.18    -0.077 C 
HETATM   28  C26 STQ E4620     -49.325 145.747   9.974  1.00 27.90     0.044 C 
HETATM   29  C27 STQ E4620     -48.175 145.331   9.061  1.00 27.26    -0.016 C 
HETATM   30  C28 STQ E4620     -47.311 144.306   9.315  1.00 26.15     0.003 C 
HETATM   31  C29 STQ E4620     -46.322 143.704   8.389  1.00 25.99    -0.062 C 
HETATM   32  C30 STQ E4620     -45.555 142.691   8.842  1.00 24.86     0.007 C 
HETATM   33  C31 STQ E4620     -44.569 141.957   8.096  1.00 24.61     0.001 C 
HETATM   34  C32 STQ E4620     -43.827 140.997   8.687  1.00 23.19     0.007 C 
HETATM   35  C33 STQ E4620     -42.762 140.162   8.117  1.00 22.76    -0.062 C 
HETATM   36  C34 STQ E4620     -42.143 139.290   8.942  1.00 21.16     0.007 C 
HETATM   37  C35 STQ E4620     -41.082 138.381   8.621  1.00 21.72     0.001 C 
HETATM   38  C36 STQ E4620     -50.912 145.659   7.955  1.00 25.17     0.016 C 
HETATM   39  C37 STQ E4620     -51.057 143.923   9.725  1.00 27.28     0.016 C 
HETATM   40  C38 STQ E4620     -47.821 147.780  10.710  1.00 30.64     0.044 C 
HETATM   41  C39 STQ E4620     -46.219 144.263   6.998  1.00 26.11     0.048 C 
HETATM   42  C40 STQ E4620     -42.416 140.353   6.662  1.00 21.07     0.048 C 
HETATM   43  O23 STQ E4620     -52.513 148.269  11.290  1.00 27.58    -0.392 OA
ATOM     44  H23 STQ E4620     -52.372 149.207  11.344  1.00  0.00     0.210 HD
ENDROOT
TORSDOF 12
