REMARK VINA RESULT:    -8.842      0.000      0.000
REMARK INTER + INTRA:         -11.389
REMARK INTER:                  -8.842
REMARK INTRA:                  -2.547
REMARK UNBOUND:                -2.547
REMARK  0 active torsions:
REMARK  status: ('A' for Active; 'I' for Inactive)
REMARK       I    between atoms: C3_3  and  O3_21 
REMARK       I    between atoms: C6_6  and  C7_7 
REMARK       I    between atoms: C8_8  and  C9_9 
REMARK       I    between atoms: C10_10  and  C11_11 
REMARK       I    between atoms: C12_12  and  C13_13 
REMARK       I    between atoms: C14_14  and  C15_15 
REMARK       I    between atoms: C23_25  and  O23_43 
REMARK       I    between atoms: C26_28  and  C27_29 
REMARK       I    between atoms: C28_30  and  C29_31 
REMARK       I    between atoms: C30_32  and  C31_33 
REMARK       I    between atoms: C32_34  and  C33_35 
REMARK       I    between atoms: C34_36  and  C35_37 
ROOT
HETATM    1  C1  STQ 7 621     -34.288 127.452   6.570  1.00 16.14    -0.018 C 
HETATM    2  C2  STQ 7 621     -33.575 126.821   5.374  1.00 16.14     0.045 C 
HETATM    3  C3  STQ 7 621     -32.370 127.567   4.829  1.00 16.14     0.123 C 
HETATM    4  C4  STQ 7 621     -31.516 128.090   5.959  1.00 16.14     0.066 C 
HETATM    5  C5  STQ 7 621     -32.357 129.019   6.782  1.00 16.14    -0.074 C 
HETATM    6  C6  STQ 7 621     -33.587 128.660   7.166  1.00 16.14    -0.048 C 
HETATM    7  C7  STQ 7 621     -34.274 129.439   8.222  1.00 16.14     0.009 C 
HETATM    8  C8  STQ 7 621     -34.977 130.549   7.980  1.00 16.14     0.007 C 
HETATM    9  C9  STQ 7 621     -35.626 131.279   9.077  1.00 16.14    -0.062 C 
HETATM   10  C10 STQ 7 621     -36.364 132.357   8.765  1.00 16.14     0.007 C 
HETATM   11  C11 STQ 7 621     -37.103 133.225   9.685  1.00 16.14     0.001 C 
HETATM   12  C12 STQ 7 621     -37.630 134.321   9.144  1.00 16.14     0.007 C 
HETATM   13  C13 STQ 7 621     -38.458 135.306   9.864  1.00 16.14    -0.062 C 
HETATM   14  C14 STQ 7 621     -39.268 136.058   9.109  1.00 16.14     0.007 C 
HETATM   15  C15 STQ 7 621     -40.213 137.036   9.632  1.00 16.14     0.001 C 
HETATM   16  C16 STQ 7 621     -34.480 126.352   7.608  1.00 16.14     0.020 C 
HETATM   17  C17 STQ 7 621     -35.657 127.927   6.110  1.00 16.14     0.020 C 
HETATM   18  C18 STQ 7 621     -31.520 130.001   7.549  1.00 16.14     0.044 C 
HETATM   19  C19 STQ 7 621     -35.399 130.812  10.478  1.00 16.14     0.048 C 
HETATM   20  C20 STQ 7 621     -38.427 135.446  11.354  1.00 16.14     0.048 C 
HETATM   21  O3  STQ 7 621     -31.582 126.677   4.036  1.00 16.14    -0.395 OA
ATOM     22  H3  STQ 7 621     -30.828 127.144   3.695  1.00  0.00     0.210 HD
HETATM   23  C21 STQ 7 621     -50.166 144.829  10.277  1.00 16.14    -0.035 C 
HETATM   24  C22 STQ 7 621     -51.064 145.684  11.159  1.00 16.14     0.045 C 
HETATM   25  C23 STQ 7 621     -50.753 147.172  11.107  1.00 16.14     0.142 C 
HETATM   26  C24 STQ 7 621     -49.272 147.421  11.217  1.00 16.14     0.007 C 
HETATM   27  C25 STQ 7 621     -48.369 146.559  10.738  1.00 16.14    -0.077 C 
HETATM   28  C26 STQ 7 621     -48.684 145.093  10.566  1.00 16.14     0.044 C 
HETATM   29  C27 STQ 7 621     -47.809 144.491   9.484  1.00 16.14    -0.016 C 
HETATM   30  C28 STQ 7 621     -46.984 143.506   9.818  1.00 16.14     0.003 C 
HETATM   31  C29 STQ 7 621     -46.098 142.864   8.835  1.00 16.14    -0.062 C 
HETATM   32  C30 STQ 7 621     -45.551 141.697   9.183  1.00 16.14     0.007 C 
HETATM   33  C31 STQ 7 621     -44.647 140.935   8.335  1.00 16.14     0.001 C 
HETATM   34  C32 STQ 7 621     -43.872 140.087   8.995  1.00 16.14     0.007 C 
HETATM   35  C33 STQ 7 621     -42.864 139.209   8.386  1.00 16.14    -0.062 C 
HETATM   36  C34 STQ 7 621     -42.116 138.476   9.220  1.00 16.14     0.007 C 
HETATM   37  C35 STQ 7 621     -41.097 137.535   8.774  1.00 16.14     0.001 C 
HETATM   38  C36 STQ 7 621     -50.506 145.068   8.809  1.00 16.14     0.016 C 
HETATM   39  C37 STQ 7 621     -50.488 143.377  10.607  1.00 16.14     0.016 C 
HETATM   40  C38 STQ 7 621     -47.017 147.090  10.373  1.00 16.14     0.044 C 
HETATM   41  C39 STQ 7 621     -45.825 143.495   7.505  1.00 16.14     0.048 C 
HETATM   42  C40 STQ 7 621     -42.671 139.172   6.902  1.00 16.14     0.048 C 
HETATM   43  O23 STQ 7 621     -51.397 147.809  12.212  1.00 16.14    -0.392 OA
ATOM     44  H23 STQ 7 621     -51.203 148.738  12.180  1.00  0.00     0.210 HD
ENDROOT
TORSDOF 12
