REMARK VINA RESULT:    -6.436      1.471      2.132
REMARK INTER + INTRA:          -9.418
REMARK INTER:                  -6.665
REMARK INTRA:                  -2.753
REMARK UNBOUND:                -2.982
REMARK  0 active torsions:
REMARK  status: ('A' for Active; 'I' for Inactive)
REMARK       I    between atoms: C3_3  and  O3_21 
REMARK       I    between atoms: C6_6  and  C7_7 
REMARK       I    between atoms: C8_8  and  C9_9 
REMARK       I    between atoms: C10_10  and  C11_11 
REMARK       I    between atoms: C12_12  and  C13_13 
REMARK       I    between atoms: C14_14  and  C15_15 
REMARK       I    between atoms: C23_25  and  O23_43 
REMARK       I    between atoms: C26_28  and  C27_29 
REMARK       I    between atoms: C28_30  and  C29_31 
REMARK       I    between atoms: C30_32  and  C31_33 
REMARK       I    between atoms: C32_34  and  C33_35 
REMARK       I    between atoms: C34_36  and  C35_37 
ROOT
HETATM    1  C1  STQ 1 619     -34.584 127.719   5.196  1.00 34.54    -0.018 C 
HETATM    2  C2  STQ 1 619     -33.331 127.747   4.321  1.00 34.54     0.045 C 
HETATM    3  C3  STQ 1 619     -31.996 128.130   4.960  1.00 34.54     0.123 C 
HETATM    4  C4  STQ 1 619     -31.976 127.963   6.471  1.00 34.54     0.066 C 
HETATM    5  C5  STQ 1 619     -33.185 128.649   7.038  1.00 34.54    -0.074 C 
HETATM    6  C6  STQ 1 619     -34.402 128.397   6.544  1.00 34.54    -0.048 C 
HETATM    7  C7  STQ 1 619     -35.592 128.771   7.345  1.00 34.54     0.009 C 
HETATM    8  C8  STQ 1 619     -36.121 129.985   7.222  1.00 34.54     0.007 C 
HETATM    9  C9  STQ 1 619     -37.289 130.457   7.981  1.00 34.54    -0.062 C 
HETATM   10  C10 STQ 1 619     -37.531 131.762   7.884  1.00 34.54     0.007 C 
HETATM   11  C11 STQ 1 619     -38.607 132.483   8.543  1.00 34.54     0.001 C 
HETATM   12  C12 STQ 1 619     -38.613 133.777   8.257  1.00 34.54     0.007 C 
HETATM   13  C13 STQ 1 619     -39.587 134.725   8.805  1.00 34.54    -0.062 C 
HETATM   14  C14 STQ 1 619     -39.678 135.930   8.230  1.00 34.54     0.007 C 
HETATM   15  C15 STQ 1 619     -40.611 136.925   8.730  1.00 34.54     0.001 C 
HETATM   16  C16 STQ 1 619     -35.010 126.261   5.345  1.00 34.54     0.020 C 
HETATM   17  C17 STQ 1 619     -35.703 128.447   4.463  1.00 34.54     0.020 C 
HETATM   18  C18 STQ 1 619     -32.970 128.944   8.495  1.00 34.54     0.044 C 
HETATM   19  C19 STQ 1 619     -38.143 129.546   8.810  1.00 34.54     0.048 C 
HETATM   20  C20 STQ 1 619     -40.436 134.351   9.982  1.00 34.54     0.048 C 
HETATM   21  O3  STQ 1 619     -30.967 127.313   4.392  1.00 34.54    -0.395 OA
ATOM     22  H3  STQ 1 619     -30.979 127.417   3.448  1.00  0.00     0.210 HD
HETATM   23  C21 STQ 1 619     -49.408 146.307   8.784  1.00 34.54    -0.035 C 
HETATM   24  C22 STQ 1 619     -50.145 147.559   9.241  1.00 34.54     0.045 C 
HETATM   25  C23 STQ 1 619     -49.479 148.827   8.732  1.00 34.54     0.142 C 
HETATM   26  C24 STQ 1 619     -48.035 148.833   9.165  1.00 34.54     0.007 C 
HETATM   27  C25 STQ 1 619     -47.319 147.706   9.279  1.00 34.54    -0.077 C 
HETATM   28  C26 STQ 1 619     -47.933 146.327   9.212  1.00 34.54     0.044 C 
HETATM   29  C27 STQ 1 619     -47.075 145.454   8.317  1.00 34.54    -0.016 C 
HETATM   30  C28 STQ 1 619     -46.560 144.325   8.789  1.00 34.54     0.003 C 
HETATM   31  C29 STQ 1 619     -45.717 143.470   7.934  1.00 34.54    -0.062 C 
HETATM   32  C30 STQ 1 619     -44.940 142.556   8.525  1.00 34.54     0.007 C 
HETATM   33  C31 STQ 1 619     -44.064 141.669   7.770  1.00 34.54     0.001 C 
HETATM   34  C32 STQ 1 619     -43.266 140.875   8.473  1.00 34.54     0.007 C 
HETATM   35  C33 STQ 1 619     -42.338 139.935   7.829  1.00 34.54    -0.062 C 
HETATM   36  C34 STQ 1 619     -41.753 139.012   8.596  1.00 34.54     0.007 C 
HETATM   37  C35 STQ 1 619     -40.816 138.045   8.049  1.00 34.54     0.001 C 
HETATM   38  C36 STQ 1 619     -49.569 146.170   7.270  1.00 34.54     0.016 C 
HETATM   39  C37 STQ 1 619     -50.071 145.109   9.451  1.00 34.54     0.016 C 
HETATM   40  C38 STQ 1 619     -45.839 147.826   9.498  1.00 34.54     0.044 C 
HETATM   41  C39 STQ 1 619     -45.728 143.628   6.442  1.00 34.54     0.048 C 
HETATM   42  C40 STQ 1 619     -42.058 140.014   6.356  1.00 34.54     0.048 C 
HETATM   43  O23 STQ 1 619     -50.142 149.971   9.284  1.00 34.54    -0.392 OA
ATOM     44  H23 STQ 1 619     -49.726 150.764   8.965  1.00  0.00     0.210 HD
ENDROOT
TORSDOF 12
