REMARK VINA RESULT:   -11.278      0.000      0.000
REMARK INTER + INTRA:         -11.630
REMARK INTER:                 -11.278
REMARK INTRA:                  -0.352
REMARK UNBOUND:                -0.352
REMARK  0 active torsions:
REMARK  status: ('A' for Active; 'I' for Inactive)
REMARK       I    between atoms: C3_3  and  O3_21 
REMARK       I    between atoms: C6_6  and  C7_7 
REMARK       I    between atoms: C8_8  and  C9_9 
REMARK       I    between atoms: C10_10  and  C11_11 
REMARK       I    between atoms: C12_12  and  C13_13 
REMARK       I    between atoms: C14_14  and  C15_15 
REMARK       I    between atoms: C23_25  and  O23_43 
REMARK       I    between atoms: C26_28  and  C27_29 
REMARK       I    between atoms: C28_30  and  C29_31 
REMARK       I    between atoms: C30_32  and  C31_33 
REMARK       I    between atoms: C32_34  and  C33_35 
REMARK       I    between atoms: C34_36  and  C35_37 
ROOT
HETATM    1  C1  STQ 4 616     -34.208 128.082   6.914  1.00 72.69    -0.018 C 
HETATM    2  C2  STQ 4 616     -33.558 127.654   5.599  1.00 72.50     0.045 C 
HETATM    3  C3  STQ 4 616     -32.230 128.300   5.214  1.00 72.53     0.123 C 
HETATM    4  C4  STQ 4 616     -31.424 128.729   6.426  1.00 73.67     0.066 C 
HETATM    5  C5  STQ 4 616     -32.272 129.594   7.317  1.00 74.71    -0.074 C 
HETATM    6  C6  STQ 4 616     -33.520 129.236   7.613  1.00 74.26    -0.048 C 
HETATM    7  C7  STQ 4 616     -34.292 129.983   8.631  1.00 75.37     0.009 C 
HETATM    8  C8  STQ 4 616     -34.915 131.110   8.288  1.00 77.10     0.007 C 
HETATM    9  C9  STQ 4 616     -35.713 131.894   9.251  1.00 78.39    -0.062 C 
HETATM   10  C10 STQ 4 616     -36.349 132.991   8.812  1.00 81.08     0.007 C 
HETATM   11  C11 STQ 4 616     -37.181 133.829   9.674  1.00 84.31     0.001 C 
HETATM   12  C12 STQ 4 616     -37.930 134.751   9.073  1.00 87.06     0.007 C 
HETATM   13  C13 STQ 4 616     -38.844 135.662   9.789  1.00 89.04    -0.062 C 
HETATM   14  C14 STQ 4 616     -39.623 136.469   9.049  1.00 90.91     0.007 C 
HETATM   15  C15 STQ 4 616     -40.594 137.396   9.623  1.00 91.21     0.001 C 
HETATM   16  C16 STQ 4 616     -34.225 126.881   7.850  1.00 72.40     0.020 C 
HETATM   17  C17 STQ 4 616     -35.640 128.515   6.632  1.00 73.92     0.020 C 
HETATM   18  C18 STQ 4 616     -31.536 130.594   8.160  1.00 74.98     0.044 C 
HETATM   19  C19 STQ 4 616     -35.816 131.460  10.683  1.00 77.08     0.048 C 
HETATM   20  C20 STQ 4 616     -38.910 135.678  11.288  1.00 88.60     0.048 C 
HETATM   21  O3  STQ 4 616     -31.464 127.345   4.472  1.00 71.08    -0.395 OA
ATOM     22  H3  STQ 4 616     -31.968 127.077   3.713  1.00  0.00     0.210 HD
HETATM   23  C21 STQ 4 616     -50.708 145.015  10.038  1.00 93.06    -0.035 C 
HETATM   24  C22 STQ 4 616     -51.789 145.872  10.679  1.00 92.50     0.045 C 
HETATM   25  C23 STQ 4 616     -51.690 147.319  10.222  1.00 91.66     0.142 C 
HETATM   26  C24 STQ 4 616     -50.286 147.828  10.435  1.00 93.88     0.007 C 
HETATM   27  C25 STQ 4 616     -49.209 147.030  10.360  1.00 94.96    -0.077 C 
HETATM   28  C26 STQ 4 616     -49.310 145.528  10.385  1.00 94.46     0.044 C 
HETATM   29  C27 STQ 4 616     -48.310 144.929   9.418  1.00 94.80    -0.016 C 
HETATM   30  C28 STQ 4 616     -47.337 144.143   9.870  1.00 94.45     0.003 C 
HETATM   31  C29 STQ 4 616     -46.358 143.537   8.947  1.00 94.55    -0.062 C 
HETATM   32  C30 STQ 4 616     -45.648 142.487   9.380  1.00 95.44     0.007 C 
HETATM   33  C31 STQ 4 616     -44.659 141.781   8.567  1.00 95.37     0.001 C 
HETATM   34  C32 STQ 4 616     -43.993 140.806   9.179  1.00 94.20     0.007 C 
HETATM   35  C33 STQ 4 616     -42.971 139.952   8.546  1.00 92.43    -0.062 C 
HETATM   36  C34 STQ 4 616     -42.298 139.094   9.329  1.00 91.40     0.007 C 
HETATM   37  C35 STQ 4 616     -41.291 138.180   8.800  1.00 91.41     0.001 C 
HETATM   38  C36 STQ 4 616     -50.902 144.993   8.527  1.00 92.31     0.016 C 
HETATM   39  C37 STQ 4 616     -50.854 143.593  10.567  1.00 93.35     0.016 C 
HETATM   40  C38 STQ 4 616     -47.852 147.663  10.257  1.00 95.20     0.044 C 
HETATM   41  C39 STQ 4 616     -46.163 144.086   7.563  1.00 93.92     0.048 C 
HETATM   42  C40 STQ 4 616     -42.709 140.031   7.072  1.00 91.99     0.048 C 
HETATM   43  O23 STQ 4 616     -52.599 148.117  10.985  1.00 89.28    -0.392 OA
ATOM     44  H23 STQ 4 616     -53.483 147.796  10.851  1.00  0.00     0.210 HD
ENDROOT
TORSDOF 12
