REMARK VINA RESULT:   -10.153      0.000      0.000
REMARK INTER + INTRA:         -10.862
REMARK INTER:                 -10.153
REMARK INTRA:                  -0.709
REMARK UNBOUND:                -0.709
REMARK  0 active torsions:
REMARK  status: ('A' for Active; 'I' for Inactive)
REMARK       I    between atoms: C3_3  and  O3_21 
REMARK       I    between atoms: C6_6  and  C7_7 
REMARK       I    between atoms: C8_8  and  C9_9 
REMARK       I    between atoms: C10_10  and  C11_11 
REMARK       I    between atoms: C12_12  and  C13_13 
REMARK       I    between atoms: C14_14  and  C15_15 
REMARK       I    between atoms: C23_25  and  O23_43 
REMARK       I    between atoms: C26_28  and  C27_29 
REMARK       I    between atoms: C28_30  and  C29_31 
REMARK       I    between atoms: C30_32  and  C31_33 
REMARK       I    between atoms: C32_34  and  C33_35 
REMARK       I    between atoms: C34_36  and  C35_37 
ROOT
HETATM    1  C1  STQ 9 619     -49.830 145.440  12.725  1.00 47.88    -0.018 C 
HETATM    2  C2  STQ 9 619     -50.785 146.393  13.416  1.00 47.88     0.045 C 
HETATM    3  C3  STQ 9 619     -50.169 146.912  14.700  1.00 47.88     0.123 C 
HETATM    4  C4  STQ 9 619     -48.957 147.758  14.355  1.00 47.88     0.066 C 
HETATM    5  C5  STQ 9 619     -48.003 146.969  13.500  1.00 47.88    -0.074 C 
HETATM    6  C6  STQ 9 619     -48.428 146.015  12.662  1.00 47.88    -0.048 C 
HETATM    7  C7  STQ 9 619     -47.520 145.506  11.615  1.00 47.88     0.009 C 
HETATM    8  C8  STQ 9 619     -46.563 144.628  11.902  1.00 47.88     0.007 C 
HETATM    9  C9  STQ 9 619     -45.694 144.141  10.826  1.00 47.88    -0.062 C 
HETATM   10  C10 STQ 9 619     -44.918 143.084  11.074  1.00 47.88     0.007 C 
HETATM   11  C11 STQ 9 619     -44.027 142.504  10.081  1.00 47.88     0.001 C 
HETATM   12  C12 STQ 9 619     -43.234 141.548  10.536  1.00 47.88     0.007 C 
HETATM   13  C13 STQ 9 619     -42.284 140.810   9.694  1.00 47.88    -0.062 C 
HETATM   14  C14 STQ 9 619     -41.770 139.700  10.226  1.00 47.88     0.007 C 
HETATM   15  C15 STQ 9 619     -40.849 138.824   9.525  1.00 47.88     0.001 C 
HETATM   16  C16 STQ 9 619     -50.368 145.161  11.327  1.00 47.88     0.020 C 
HETATM   17  C17 STQ 9 619     -49.778 144.127  13.494  1.00 47.88     0.020 C 
HETATM   18  C18 STQ 9 619     -46.745 147.741  13.229  1.00 47.88     0.044 C 
HETATM   19  C19 STQ 9 619     -45.693 144.830   9.498  1.00 47.88     0.048 C 
HETATM   20  C20 STQ 9 619     -41.927 141.267   8.314  1.00 47.88     0.048 C 
HETATM   21  O3  STQ 9 619     -51.127 147.695  15.412  1.00 47.88    -0.395 OA
ATOM     22  H3  STQ 9 619     -51.885 147.166  15.628  1.00  0.00     0.210 HD
HETATM   23  C21 STQ 9 619     -34.194 128.443   6.883  1.00 47.88    -0.035 C 
HETATM   24  C22 STQ 9 619     -33.429 127.789   5.744  1.00 47.88     0.045 C 
HETATM   25  C23 STQ 9 619     -31.923 127.749   5.966  1.00 47.88     0.142 C 
HETATM   26  C24 STQ 9 619     -31.397 129.037   6.556  1.00 47.88     0.007 C 
HETATM   27  C25 STQ 9 619     -32.166 129.844   7.300  1.00 47.88    -0.077 C 
HETATM   28  C26 STQ 9 619     -33.660 129.854   7.128  1.00 47.88     0.044 C 
HETATM   29  C27 STQ 9 619     -34.345 130.435   8.343  1.00 47.88    -0.016 C 
HETATM   30  C28 STQ 9 619     -35.065 131.539   8.178  1.00 47.88     0.003 C 
HETATM   31  C29 STQ 9 619     -35.789 132.186   9.283  1.00 47.88    -0.062 C 
HETATM   32  C30 STQ 9 619     -36.770 133.023   8.943  1.00 47.88     0.007 C 
HETATM   33  C31 STQ 9 619     -37.601 133.764   9.880  1.00 47.88     0.001 C 
HETATM   34  C32 STQ 9 619     -38.233 134.804   9.351  1.00 47.88     0.007 C 
HETATM   35  C33 STQ 9 619     -39.123 135.696  10.107  1.00 47.88    -0.062 C 
HETATM   36  C34 STQ 9 619     -39.651 136.735   9.455  1.00 47.88     0.007 C 
HETATM   37  C35 STQ 9 619     -40.550 137.671  10.114  1.00 47.88     0.001 C 
HETATM   38  C36 STQ 9 619     -34.109 127.599   8.150  1.00 47.88     0.016 C 
HETATM   39  C37 STQ 9 619     -35.660 128.508   6.467  1.00 47.88     0.016 C 
HETATM   40  C38 STQ 9 619     -31.516 130.748   8.306  1.00 47.88     0.044 C 
HETATM   41  C39 STQ 9 619     -35.450 131.908  10.715  1.00 47.88     0.048 C 
HETATM   42  C40 STQ 9 619     -39.426 135.454  11.554  1.00 47.88     0.048 C 
HETATM   43  O23 STQ 9 619     -31.303 127.545   4.694  1.00 47.88    -0.392 OA
ATOM     44  H23 STQ 9 619     -30.364 127.519   4.833  1.00  0.00     0.210 HD
ENDROOT
TORSDOF 12
