REMARK VINA RESULT:    -9.811      1.603      1.994
REMARK INTER + INTRA:         -10.555
REMARK INTER:                  -7.331
REMARK INTRA:                  -3.224
REMARK UNBOUND:                -0.744
REMARK  0 active torsions:
REMARK  status: ('A' for Active; 'I' for Inactive)
REMARK       I    between atoms: C3_3  and  O3_21 
REMARK       I    between atoms: C6_6  and  C7_7 
REMARK       I    between atoms: C8_8  and  C9_9 
REMARK       I    between atoms: C10_10  and  C11_11 
REMARK       I    between atoms: C12_12  and  C13_13 
REMARK       I    between atoms: C14_14  and  C15_15 
REMARK       I    between atoms: C23_25  and  O23_43 
REMARK       I    between atoms: C26_28  and  C27_29 
REMARK       I    between atoms: C28_30  and  C29_31 
REMARK       I    between atoms: C30_32  and  C31_33 
REMARK       I    between atoms: C32_34  and  C33_35 
REMARK       I    between atoms: C34_36  and  C35_37 
ROOT
HETATM    1  C1  STQ R 620     -34.653 127.502   6.029  1.00 48.79    -0.018 C 
HETATM    2  C2  STQ R 620     -34.268 127.329   4.566  1.00 49.38     0.045 C 
HETATM    3  C3  STQ R 620     -32.780 127.189   4.249  1.00 51.85     0.123 C 
HETATM    4  C4  STQ R 620     -31.907 128.174   5.007  1.00 54.16     0.066 C 
HETATM    5  C5  STQ R 620     -32.438 128.620   6.342  1.00 52.93    -0.074 C 
HETATM    6  C6  STQ R 620     -33.706 128.446   6.751  1.00 53.44    -0.048 C 
HETATM    7  C7  STQ R 620     -34.206 129.169   7.952  1.00 56.18     0.009 C 
HETATM    8  C8  STQ R 620     -34.925 130.289   7.859  1.00 54.04     0.007 C 
HETATM    9  C9  STQ R 620     -35.449 131.012   9.024  1.00 57.87    -0.062 C 
HETATM   10  C10 STQ R 620     -36.046 132.174   8.774  1.00 59.37     0.007 C 
HETATM   11  C11 STQ R 620     -36.650 133.025   9.785  1.00 54.77     0.001 C 
HETATM   12  C12 STQ R 620     -37.346 134.025   9.277  1.00 53.15     0.007 C 
HETATM   13  C13 STQ R 620     -38.079 134.998  10.084  1.00 52.91    -0.062 C 
HETATM   14  C14 STQ R 620     -38.855 135.837   9.406  1.00 56.79     0.007 C 
HETATM   15  C15 STQ R 620     -39.681 136.835  10.053  1.00 60.51     0.001 C 
HETATM   16  C16 STQ R 620     -34.676 126.143   6.714  1.00 50.92     0.020 C 
HETATM   17  C17 STQ R 620     -36.072 128.060   6.078  1.00 48.05     0.020 C 
HETATM   18  C18 STQ R 620     -31.582 129.731   6.858  1.00 55.82     0.044 C 
HETATM   19  C19 STQ R 620     -35.333 130.473  10.415  1.00 58.46     0.048 C 
HETATM   20  C20 STQ R 620     -37.984 135.029  11.578  1.00 55.54     0.048 C 
HETATM   21  O3  STQ R 620     -32.312 125.850   4.456  1.00 50.70    -0.395 OA
ATOM     22  H3  STQ R 620     -31.387 125.763   4.259  1.00  0.00     0.210 HD
HETATM   23  C21 STQ R 620     -48.673 144.920  12.161  1.00 52.92    -0.035 C 
HETATM   24  C22 STQ R 620     -49.412 145.591  13.304  1.00 50.14     0.045 C 
HETATM   25  C23 STQ R 620     -49.195 147.090  13.344  1.00 49.44     0.142 C 
HETATM   26  C24 STQ R 620     -47.739 147.452  13.205  1.00 54.43     0.007 C 
HETATM   27  C25 STQ R 620     -46.880 146.689  12.524  1.00 52.82    -0.077 C 
HETATM   28  C26 STQ R 620     -47.174 145.237  12.240  1.00 50.58     0.044 C 
HETATM   29  C27 STQ R 620     -46.479 144.786  10.978  1.00 46.60    -0.016 C 
HETATM   30  C28 STQ R 620     -45.572 143.838  11.121  1.00 44.92     0.003 C 
HETATM   31  C29 STQ R 620     -44.824 143.279   9.997  1.00 46.41    -0.062 C 
HETATM   32  C30 STQ R 620     -44.318 142.075  10.222  1.00 51.67     0.007 C 
HETATM   33  C31 STQ R 620     -43.540 141.311   9.277  1.00 48.57     0.001 C 
HETATM   34  C32 STQ R 620     -42.864 140.352   9.874  1.00 50.80     0.007 C 
HETATM   35  C33 STQ R 620     -42.000 139.433   9.145  1.00 54.69    -0.062 C 
HETATM   36  C34 STQ R 620     -41.368 138.509   9.866  1.00 55.71     0.007 C 
HETATM   37  C35 STQ R 620     -40.496 137.522   9.266  1.00 57.66     0.001 C 
HETATM   38  C36 STQ R 620     -49.277 145.319  10.815  1.00 53.57     0.016 C 
HETATM   39  C37 STQ R 620     -48.903 143.427  12.344  1.00 55.87     0.016 C 
HETATM   40  C38 STQ R 620     -45.598 147.313  12.060  1.00 57.19     0.044 C 
HETATM   41  C39 STQ R 620     -44.645 144.000   8.700  1.00 47.78     0.048 C 
HETATM   42  C40 STQ R 620     -41.840 139.561   7.664  1.00 56.30     0.048 C 
HETATM   43  O23 STQ R 620     -49.673 147.598  14.591  1.00 52.15    -0.392 OA
ATOM     44  H23 STQ R 620     -49.537 148.538  14.616  1.00  0.00     0.210 HD
ENDROOT
TORSDOF 12
