REMARK VINA RESULT:    -6.474      0.000      0.000
REMARK INTER + INTRA:         -10.003
REMARK INTER:                  -6.474
REMARK INTRA:                  -3.529
REMARK UNBOUND:                -3.529
REMARK  0 active torsions:
REMARK  status: ('A' for Active; 'I' for Inactive)
REMARK       I    between atoms: C3_3  and  O3_21 
REMARK       I    between atoms: C6_6  and  C7_7 
REMARK       I    between atoms: C8_8  and  C9_9 
REMARK       I    between atoms: C10_10  and  C11_11 
REMARK       I    between atoms: C12_12  and  C13_13 
REMARK       I    between atoms: C14_14  and  C15_15 
REMARK       I    between atoms: C23_25  and  O23_43 
REMARK       I    between atoms: C26_28  and  C27_29 
REMARK       I    between atoms: C28_30  and  C29_31 
REMARK       I    between atoms: C30_32  and  C31_33 
REMARK       I    between atoms: C32_34  and  C33_35 
REMARK       I    between atoms: C34_36  and  C35_37 
ROOT
HETATM    1  C1  STQ B1621     -34.485 127.199   5.972  1.00 16.49    -0.018 C 
HETATM    2  C2  STQ B1621     -33.991 126.446   4.722  1.00 14.93     0.045 C 
HETATM    3  C3  STQ B1621     -32.759 126.946   3.973  1.00 15.86     0.123 C 
HETATM    4  C4  STQ B1621     -31.817 127.843   4.800  1.00 14.41     0.066 C 
HETATM    5  C5  STQ B1621     -32.328 128.569   6.014  1.00 15.44    -0.074 C 
HETATM    6  C6  STQ B1621     -33.552 128.289   6.592  1.00 14.73    -0.048 C 
HETATM    7  C7  STQ B1621     -34.069 128.951   7.814  1.00 14.04     0.009 C 
HETATM    8  C8  STQ B1621     -34.679 130.159   7.845  1.00 12.72     0.007 C 
HETATM    9  C9  STQ B1621     -35.170 130.916   9.000  1.00 12.70    -0.062 C 
HETATM   10  C10 STQ B1621     -35.868 132.048   8.750  1.00 13.26     0.007 C 
HETATM   11  C11 STQ B1621     -36.530 132.898   9.713  1.00 13.12     0.001 C 
HETATM   12  C12 STQ B1621     -37.257 133.973   9.323  1.00 12.34     0.007 C 
HETATM   13  C13 STQ B1621     -38.081 134.845  10.182  1.00 12.89    -0.062 C 
HETATM   14  C14 STQ B1621     -38.757 135.862   9.598  1.00 12.03     0.007 C 
HETATM   15  C15 STQ B1621     -39.656 136.797  10.243  1.00 13.59     0.001 C 
HETATM   16  C16 STQ B1621     -34.708 126.033   6.969  1.00 14.27     0.020 C 
HETATM   17  C17 STQ B1621     -35.858 127.825   5.615  1.00 12.26     0.020 C 
HETATM   18  C18 STQ B1621     -31.317 129.540   6.530  1.00 13.78     0.044 C 
HETATM   19  C19 STQ B1621     -34.929 130.347  10.368  1.00  8.79     0.048 C 
HETATM   20  C20 STQ B1621     -38.140 134.516  11.655  1.00  8.63     0.048 C 
HETATM   21  O3  STQ B1621     -32.045 125.850   3.419  1.00 14.46    -0.395 OA
ATOM     22  H3  STQ B1621     -31.278 126.161   2.953  1.00  0.00     0.210 HD
HETATM   23  C21 STQ B1621     -48.163 146.162  13.146  1.00 23.83    -0.035 C 
HETATM   24  C22 STQ B1621     -49.035 147.048  14.051  1.00 23.69     0.045 C 
HETATM   25  C23 STQ B1621     -48.466 148.422  14.402  1.00 23.55     0.142 C 
HETATM   26  C24 STQ B1621     -46.940 148.435  14.568  1.00 24.29     0.007 C 
HETATM   27  C25 STQ B1621     -46.155 147.396  14.190  1.00 24.98    -0.077 C 
HETATM   28  C26 STQ B1621     -46.660 146.092  13.569  1.00 23.38     0.044 C 
HETATM   29  C27 STQ B1621     -45.730 145.597  12.461  1.00 22.25    -0.016 C 
HETATM   30  C28 STQ B1621     -45.217 144.342  12.365  1.00 21.46     0.003 C 
HETATM   31  C29 STQ B1621     -44.486 143.777  11.215  1.00 21.33    -0.062 C 
HETATM   32  C30 STQ B1621     -43.996 142.521  11.310  1.00 19.38     0.007 C 
HETATM   33  C31 STQ B1621     -43.245 141.820  10.295  1.00 19.44     0.001 C 
HETATM   34  C32 STQ B1621     -42.622 140.643  10.572  1.00 17.56     0.007 C 
HETATM   35  C33 STQ B1621     -41.765 139.821   9.704  1.00 14.52    -0.062 C 
HETATM   36  C34 STQ B1621     -41.168 138.736  10.248  1.00 13.82     0.007 C 
HETATM   37  C35 STQ B1621     -40.256 137.813   9.594  1.00 15.60     0.001 C 
HETATM   38  C36 STQ B1621     -48.304 146.720  11.704  1.00 23.39     0.016 C 
HETATM   39  C37 STQ B1621     -48.779 144.753  13.161  1.00 21.57     0.016 C 
HETATM   40  C38 STQ B1621     -44.706 147.628  14.454  1.00 23.84     0.044 C 
HETATM   41  C39 STQ B1621     -44.260 144.667  10.034  1.00 21.43     0.048 C 
HETATM   42  C40 STQ B1621     -41.558 140.280   8.297  1.00 13.28     0.048 C 
HETATM   43  O23 STQ B1621     -49.104 148.917  15.570  1.00 25.61    -0.392 OA
ATOM     44  H23 STQ B1621     -50.049 148.909  15.467  1.00  0.00     0.210 HD
ENDROOT
TORSDOF 12
