REMARK VINA RESULT:   -11.557      1.454      1.862
REMARK INTER + INTRA:         -11.742
REMARK INTER:                  -9.136
REMARK INTRA:                  -2.606
REMARK UNBOUND:                -0.185
REMARK  0 active torsions:
REMARK  status: ('A' for Active; 'I' for Inactive)
REMARK       I    between atoms: C3_3  and  O3_21 
REMARK       I    between atoms: C6_6  and  C7_7 
REMARK       I    between atoms: C8_8  and  C9_9 
REMARK       I    between atoms: C10_10  and  C11_11 
REMARK       I    between atoms: C12_12  and  C13_13 
REMARK       I    between atoms: C14_14  and  C15_15 
REMARK       I    between atoms: C23_25  and  O23_43 
REMARK       I    between atoms: C26_28  and  C27_29 
REMARK       I    between atoms: C28_30  and  C29_31 
REMARK       I    between atoms: C30_32  and  C31_33 
REMARK       I    between atoms: C32_34  and  C33_35 
REMARK       I    between atoms: C34_36  and  C35_37 
ROOT
HETATM    1  C1  STQ X1621     -34.422 127.002   6.430  1.00 31.86    -0.018 C 
HETATM    2  C2  STQ X1621     -34.227 126.700   4.940  1.00 31.86     0.045 C 
HETATM    3  C3  STQ X1621     -33.031 127.350   4.254  1.00 31.86     0.123 C 
HETATM    4  C4  STQ X1621     -31.988 127.817   5.260  1.00 31.86     0.066 C 
HETATM    5  C5  STQ X1621     -32.694 128.725   6.221  1.00 31.86    -0.074 C 
HETATM    6  C6  STQ X1621     -33.712 128.241   6.930  1.00 31.86    -0.048 C 
HETATM    7  C7  STQ X1621     -34.301 128.968   8.075  1.00 31.86     0.009 C 
HETATM    8  C8  STQ X1621     -34.310 130.304   8.064  1.00 31.86     0.007 C 
HETATM    9  C9  STQ X1621     -35.108 131.012   9.091  1.00 31.86    -0.062 C 
HETATM   10  C10 STQ X1621     -35.539 132.251   8.778  1.00 31.86     0.007 C 
HETATM   11  C11 STQ X1621     -36.471 133.010   9.610  1.00 31.86     0.001 C 
HETATM   12  C12 STQ X1621     -37.056 134.095   9.106  1.00 31.86     0.007 C 
HETATM   13  C13 STQ X1621     -38.074 134.849   9.871  1.00 31.86    -0.062 C 
HETATM   14  C14 STQ X1621     -38.718 135.845   9.227  1.00 31.86     0.007 C 
HETATM   15  C15 STQ X1621     -39.767 136.669   9.831  1.00 31.86     0.001 C 
HETATM   16  C16 STQ X1621     -33.842 125.853   7.251  1.00 31.86     0.020 C 
HETATM   17  C17 STQ X1621     -35.916 127.073   6.703  1.00 31.86     0.020 C 
HETATM   18  C18 STQ X1621     -31.588 129.523   6.852  1.00 31.86     0.044 C 
HETATM   19  C19 STQ X1621     -35.483 130.306  10.374  1.00 31.86     0.048 C 
HETATM   20  C20 STQ X1621     -38.358 134.449  11.298  1.00 31.86     0.048 C 
HETATM   21  O3  STQ X1621     -32.472 126.356   3.399  1.00 31.86    -0.395 OA
ATOM     22  H3  STQ X1621     -33.123 126.065   2.771  1.00  0.00     0.210 HD
HETATM   23  C21 STQ X1621     -48.626 145.845  11.616  1.00 31.86    -0.035 C 
HETATM   24  C22 STQ X1621     -49.426 146.758  12.525  1.00 31.86     0.045 C 
HETATM   25  C23 STQ X1621     -48.838 148.153  12.604  1.00 31.86     0.142 C 
HETATM   26  C24 STQ X1621     -47.339 148.113  12.803  1.00 31.86     0.007 C 
HETATM   27  C25 STQ X1621     -46.591 147.020  12.571  1.00 31.86    -0.077 C 
HETATM   28  C26 STQ X1621     -47.181 145.718  12.097  1.00 31.86     0.044 C 
HETATM   29  C27 STQ X1621     -46.336 145.139  10.984  1.00 31.86    -0.016 C 
HETATM   30  C28 STQ X1621     -45.821 143.919  11.130  1.00 31.86     0.003 C 
HETATM   31  C29 STQ X1621     -44.979 143.297  10.087  1.00 31.86    -0.062 C 
HETATM   32  C30 STQ X1621     -44.457 142.087  10.377  1.00 31.86     0.007 C 
HETATM   33  C31 STQ X1621     -43.560 141.346   9.490  1.00 31.86     0.001 C 
HETATM   34  C32 STQ X1621     -42.993 140.227   9.935  1.00 31.86     0.007 C 
HETATM   35  C33 STQ X1621     -42.016 139.472   9.122  1.00 31.86    -0.062 C 
HETATM   36  C34 STQ X1621     -41.388 138.444   9.729  1.00 31.86     0.007 C 
HETATM   37  C35 STQ X1621     -40.352 137.617   9.106  1.00 31.86     0.001 C 
HETATM   38  C36 STQ X1621     -48.715 146.369  10.187  1.00 31.86     0.016 C 
HETATM   39  C37 STQ X1621     -49.247 144.454  11.683  1.00 31.86     0.016 C 
HETATM   40  C38 STQ X1621     -45.111 147.099  12.813  1.00 31.86     0.044 C 
HETATM   41  C39 STQ X1621     -44.760 144.031   8.788  1.00 31.86     0.048 C 
HETATM   42  C40 STQ X1621     -41.737 139.911   7.708  1.00 31.86     0.048 C 
HETATM   43  O23 STQ X1621     -49.446 148.780  13.732  1.00 31.86    -0.392 OA
ATOM     44  H23 STQ X1621     -50.387 148.805  13.608  1.00  0.00     0.210 HD
ENDROOT
TORSDOF 12
