REMARK VINA RESULT:    -6.221      1.900     17.136
REMARK INTER + INTRA:          -6.655
REMARK INTER:                  -2.710
REMARK INTRA:                  -3.945
REMARK UNBOUND:                -0.434
REMARK  0 active torsions:
REMARK  status: ('A' for Active; 'I' for Inactive)
REMARK       I    between atoms: C3_3  and  O3_21 
REMARK       I    between atoms: C6_6  and  C7_7 
REMARK       I    between atoms: C8_8  and  C9_9 
REMARK       I    between atoms: C10_10  and  C11_11 
REMARK       I    between atoms: C12_12  and  C13_13 
REMARK       I    between atoms: C14_14  and  C15_15 
REMARK       I    between atoms: C23_25  and  O23_43 
REMARK       I    between atoms: C26_28  and  C27_29 
REMARK       I    between atoms: C28_30  and  C29_31 
REMARK       I    between atoms: C30_32  and  C31_33 
REMARK       I    between atoms: C32_34  and  C33_35 
REMARK       I    between atoms: C34_36  and  C35_37 
ROOT
HETATM    1  C1  STQ 2 616     -34.709 128.412   5.750  1.00 78.53    -0.022 C 
HETATM    2  C2  STQ 2 616     -33.631 127.869   4.806  1.00 78.53     0.045 C 
HETATM    3  C3  STQ 2 616     -32.168 128.174   5.129  1.00 78.53     0.119 C 
HETATM    4  C4  STQ 2 616     -31.941 128.325   6.625  1.00 78.53     0.040 C 
HETATM    5  C5  STQ 2 616     -32.874 129.404   7.091  1.00 78.53     0.013 C 
HETATM    6  C6  STQ 2 616     -34.181 129.242   6.906  1.00 78.53    -0.068 C 
HETATM    7  C7  STQ 2 616     -35.147 129.842   7.853  1.00 78.53     0.004 C 
HETATM    8  C8  STQ 2 616     -35.438 131.145   7.850  1.00 78.53     0.007 C 
HETATM    9  C9  STQ 2 616     -36.417 131.678   8.813  1.00 78.53    -0.062 C 
HETATM   10  C10 STQ 2 616     -36.833 132.947   8.682  1.00 78.53     0.007 C 
HETATM   11  C11 STQ 2 616     -37.806 133.593   9.563  1.00 78.53     0.001 C 
HETATM   12  C12 STQ 2 616     -38.070 134.878   9.322  1.00 78.53     0.007 C 
HETATM   13  C13 STQ 2 616     -39.040 135.684  10.091  1.00 78.53    -0.062 C 
HETATM   14  C14 STQ 2 616     -39.377 136.888   9.605  1.00 78.53     0.007 C 
HETATM   15  C15 STQ 2 616     -40.353 137.759  10.255  1.00 78.53     0.001 C 
HETATM   16  C16 STQ 2 616     -35.498 127.220   6.281  1.00 78.53     0.019 C 
HETATM   17  C17 STQ 2 616     -35.647 129.312   4.954  1.00 78.53     0.019 C 
HETATM   18  C18 STQ 2 616     -32.286 129.597   8.459  1.00 78.53     0.015 C 
HETATM   19  C19 STQ 2 616     -36.907 130.788   9.912  1.00 78.53     0.048 C 
HETATM   20  C20 STQ 2 616     -39.640 135.184  11.371  1.00 78.53     0.048 C 
HETATM   21  O3  STQ 2 616     -31.344 127.110   4.638  1.00 78.53    -0.396 OA
ATOM     22  H3  STQ 2 616     -30.435 127.300   4.838  1.00  0.00     0.210 HD
HETATM   23  C21 STQ 2 616     -48.067 148.259  10.244  1.00 78.53    -0.035 C 
HETATM   24  C22 STQ 2 616     -49.227 149.016  10.884  1.00 78.53     0.045 C 
HETATM   25  C23 STQ 2 616     -48.810 150.000  11.973  1.00 78.53     0.142 C 
HETATM   26  C24 STQ 2 616     -47.780 149.388  12.892  1.00 78.53     0.007 C 
HETATM   27  C25 STQ 2 616     -46.868 148.511  12.443  1.00 78.53    -0.077 C 
HETATM   28  C26 STQ 2 616     -47.188 147.579  11.302  1.00 78.53     0.044 C 
HETATM   29  C27 STQ 2 616     -45.935 147.030  10.644  1.00 78.53    -0.016 C 
HETATM   30  C28 STQ 2 616     -45.650 145.735  10.761  1.00 78.53     0.003 C 
HETATM   31  C29 STQ 2 616     -44.461 145.131  10.129  1.00 78.53    -0.062 C 
HETATM   32  C30 STQ 2 616     -44.337 143.801  10.195  1.00 78.53     0.007 C 
HETATM   33  C31 STQ 2 616     -43.244 143.042   9.602  1.00 78.53     0.001 C 
HETATM   34  C32 STQ 2 616     -43.068 141.801  10.040  1.00 78.53     0.007 C 
HETATM   35  C33 STQ 2 616     -42.024 140.915   9.499  1.00 78.53    -0.062 C 
HETATM   36  C34 STQ 2 616     -41.714 139.782  10.150  1.00 78.53     0.007 C 
HETATM   37  C35 STQ 2 616     -40.714 138.865   9.610  1.00 78.53     0.001 C 
HETATM   38  C36 STQ 2 616     -47.253 149.203   9.359  1.00 78.53     0.016 C 
HETATM   39  C37 STQ 2 616     -48.663 147.183   9.347  1.00 78.53     0.016 C 
HETATM   40  C38 STQ 2 616     -45.521 148.476  13.103  1.00 78.53     0.044 C 
HETATM   41  C39 STQ 2 616     -43.434 145.976   9.433  1.00 78.53     0.048 C 
HETATM   42  C40 STQ 2 616     -41.349 141.277   8.212  1.00 78.53     0.048 C 
HETATM   43  O23 STQ 2 616     -49.964 150.360  12.742  1.00 78.53    -0.392 OA
ATOM     44  H23 STQ 2 616     -49.704 150.973  13.420  1.00  0.00     0.210 HD
ENDROOT
TORSDOF 12
