REMARK VINA RESULT:    -9.044      0.000      0.000
REMARK INTER + INTRA:          -9.720
REMARK INTER:                  -9.044
REMARK INTRA:                  -0.676
REMARK UNBOUND:                -0.676
REMARK  0 active torsions:
REMARK  status: ('A' for Active; 'I' for Inactive)
REMARK       I    between atoms: C3_3  and  O3_21 
REMARK       I    between atoms: C6_6  and  C7_7 
REMARK       I    between atoms: C8_8  and  C9_9 
REMARK       I    between atoms: C10_10  and  C11_11 
REMARK       I    between atoms: C12_12  and  C13_13 
REMARK       I    between atoms: C14_14  and  C15_15 
REMARK       I    between atoms: C23_25  and  O23_43 
REMARK       I    between atoms: C26_28  and  C27_29 
REMARK       I    between atoms: C28_30  and  C29_31 
REMARK       I    between atoms: C30_32  and  C31_33 
REMARK       I    between atoms: C32_34  and  C33_35 
REMARK       I    between atoms: C34_36  and  C35_37 
ROOT
HETATM    1  C1  STQ 6 321     -50.205 146.770   9.302  1.00 93.31    -0.018 C 
HETATM    2  C2  STQ 6 321     -51.095 147.682  10.147  1.00 93.93     0.045 C 
HETATM    3  C3  STQ 6 321     -50.400 148.413  11.288  1.00 93.98     0.123 C 
HETATM    4  C4  STQ 6 321     -49.133 149.074  10.777  1.00 93.16     0.066 C 
HETATM    5  C5  STQ 6 321     -48.227 148.029  10.184  1.00 92.19    -0.074 C 
HETATM    6  C6  STQ 6 321     -48.715 147.014   9.461  1.00 91.50    -0.048 C 
HETATM    7  C7  STQ 6 321     -47.778 146.094   8.774  1.00 98.60     0.009 C 
HETATM    8  C8  STQ 6 321     -47.203 145.068   9.407  1.00 95.09     0.007 C 
HETATM    9  C9  STQ 6 321     -46.271 144.164   8.700  1.00 91.76    -0.062 C 
HETATM   10  C10 STQ 6 321     -45.567 143.268   9.405  1.00 98.95     0.007 C 
HETATM   11  C11 STQ 6 321     -44.633 142.347   8.760  1.00 96.41     0.001 C 
HETATM   12  C12 STQ 6 321     -43.957 141.486   9.516  1.00 94.60     0.007 C 
HETATM   13  C13 STQ 6 321     -43.004 140.532   8.918  1.00 93.62    -0.062 C 
HETATM   14  C14 STQ 6 321     -42.363 139.649   9.700  1.00 93.18     0.007 C 
HETATM   15  C15 STQ 6 321     -41.422 138.698   9.114  1.00 93.10     0.001 C 
HETATM   16  C16 STQ 6 321     -50.583 146.952   7.836  1.00 93.81     0.020 C 
HETATM   17  C17 STQ 6 321     -50.476 145.325   9.709  1.00 92.50     0.020 C 
HETATM   18  C18 STQ 6 321     -46.755 148.325  10.194  1.00 91.81     0.044 C 
HETATM   19  C19 STQ 6 321     -46.116 144.248   7.210  1.00 91.57     0.048 C 
HETATM   20  C20 STQ 6 321     -42.756 140.550   7.439  1.00 93.41     0.048 C 
HETATM   21  O3  STQ 6 321     -51.276 149.420  11.810  1.00 94.06    -0.395 OA
ATOM     22  H3  STQ 6 321     -50.842 149.876  12.522  1.00  0.00     0.210 HD
HETATM   23  C21 STQ 6 321     -34.176 128.397   6.962  1.00 98.56    -0.035 C 
HETATM   24  C22 STQ 6 321     -33.298 127.746   5.899  1.00 98.19     0.045 C 
HETATM   25  C23 STQ 6 321     -31.801 127.819   6.198  1.00 98.22     0.142 C 
HETATM   26  C24 STQ 6 321     -31.404 129.156   6.780  1.00 99.27     0.007 C 
HETATM   27  C25 STQ 6 321     -32.265 129.927   7.459  1.00 99.66    -0.077 C 
HETATM   28  C26 STQ 6 321     -33.744 129.842   7.204  1.00 99.84     0.044 C 
HETATM   29  C27 STQ 6 321     -34.509 130.438   8.368  1.00 90.68    -0.016 C 
HETATM   30  C28 STQ 6 321     -35.214 131.544   8.144  1.00 92.00     0.003 C 
HETATM   31  C29 STQ 6 321     -36.006 132.232   9.182  1.00 92.38    -0.062 C 
HETATM   32  C30 STQ 6 321     -36.696 133.322   8.812  1.00 92.82     0.007 C 
HETATM   33  C31 STQ 6 321     -37.529 134.109   9.718  1.00 93.26     0.001 C 
HETATM   34  C32 STQ 6 321     -38.210 135.111   9.167  1.00 94.43     0.007 C 
HETATM   35  C33 STQ 6 321     -39.107 136.007   9.924  1.00 94.12    -0.062 C 
HETATM   36  C34 STQ 6 321     -39.826 136.907   9.234  1.00 93.68     0.007 C 
HETATM   37  C35 STQ 6 321     -40.748 137.838   9.877  1.00 93.36     0.001 C 
HETATM   38  C36 STQ 6 321     -34.126 127.597   8.259  1.00 97.63     0.016 C 
HETATM   39  C37 STQ 6 321     -35.613 128.400   6.454  1.00 98.72     0.016 C 
HETATM   40  C38 STQ 6 321     -31.739 130.884   8.487  1.00 99.28     0.044 C 
HETATM   41  C39 STQ 6 321     -36.036 131.731  10.596  1.00 91.58     0.048 C 
HETATM   42  C40 STQ 6 321     -39.210 135.909  11.417  1.00 93.59     0.048 C 
HETATM   43  O23 STQ 6 321     -31.072 127.613   4.982  1.00 97.53    -0.392 OA
ATOM     44  H23 STQ 6 321     -30.141 127.658   5.168  1.00  0.00     0.210 HD
ENDROOT
TORSDOF 12
