REMARK VINA RESULT:    -8.079      1.298      1.898
REMARK INTER + INTRA:          -8.755
REMARK INTER:                  -6.561
REMARK INTRA:                  -2.194
REMARK UNBOUND:                -0.676
REMARK  0 active torsions:
REMARK  status: ('A' for Active; 'I' for Inactive)
REMARK       I    between atoms: C3_3  and  O3_21 
REMARK       I    between atoms: C6_6  and  C7_7 
REMARK       I    between atoms: C8_8  and  C9_9 
REMARK       I    between atoms: C10_10  and  C11_11 
REMARK       I    between atoms: C12_12  and  C13_13 
REMARK       I    between atoms: C14_14  and  C15_15 
REMARK       I    between atoms: C23_25  and  O23_43 
REMARK       I    between atoms: C26_28  and  C27_29 
REMARK       I    between atoms: C28_30  and  C29_31 
REMARK       I    between atoms: C30_32  and  C31_33 
REMARK       I    between atoms: C32_34  and  C33_35 
REMARK       I    between atoms: C34_36  and  C35_37 
ROOT
HETATM    1  C1  STQ 6 321     -48.983 146.154  11.299  1.00 93.31    -0.018 C 
HETATM    2  C2  STQ 6 321     -49.561 147.182  12.273  1.00 93.93     0.045 C 
HETATM    3  C3  STQ 6 321     -48.544 147.988  13.068  1.00 93.98     0.123 C 
HETATM    4  C4  STQ 6 321     -47.483 148.541  12.133  1.00 93.16     0.066 C 
HETATM    5  C5  STQ 6 321     -46.814 147.404  11.408  1.00 92.19    -0.074 C 
HETATM    6  C6  STQ 6 321     -47.512 146.347  10.977  1.00 91.50    -0.048 C 
HETATM    7  C7  STQ 6 321     -46.840 145.325  10.139  1.00 98.60     0.009 C 
HETATM    8  C8  STQ 6 321     -46.113 144.341  10.673  1.00 95.09     0.007 C 
HETATM    9  C9  STQ 6 321     -45.452 143.333   9.817  1.00 91.76    -0.062 C 
HETATM   10  C10 STQ 6 321     -44.578 142.479  10.367  1.00 98.95     0.007 C 
HETATM   11  C11 STQ 6 321     -43.896 141.460   9.571  1.00 96.41     0.001 C 
HETATM   12  C12 STQ 6 321     -43.033 140.646  10.174  1.00 94.60     0.007 C 
HETATM   13  C13 STQ 6 321     -42.319 139.599   9.421  1.00 93.62    -0.062 C 
HETATM   14  C14 STQ 6 321     -41.482 138.767  10.061  1.00 93.18     0.007 C 
HETATM   15  C15 STQ 6 321     -40.776 137.724   9.322  1.00 93.10     0.001 C 
HETATM   16  C16 STQ 6 321     -49.786 146.211  10.006  1.00 93.81     0.020 C 
HETATM   17  C17 STQ 6 321     -49.135 144.769  11.918  1.00 92.50     0.020 C 
HETATM   18  C18 STQ 6 321     -45.405 147.635  10.943  1.00 91.81     0.044 C 
HETATM   19  C19 STQ 6 321     -45.756 143.266   8.349  1.00 91.57     0.048 C 
HETATM   20  C20 STQ 6 321     -42.533 139.464   7.943  1.00 93.41     0.048 C 
HETATM   21  O3  STQ 6 321     -49.206 149.077  13.722  1.00 94.06    -0.395 OA
ATOM     22  H3  STQ 6 321     -48.571 149.581  14.218  1.00  0.00     0.210 HD
HETATM   23  C21 STQ 6 321     -34.659 126.956   6.179  1.00 98.56    -0.035 C 
HETATM   24  C22 STQ 6 321     -34.154 126.168   4.976  1.00 98.19     0.045 C 
HETATM   25  C23 STQ 6 321     -32.637 126.203   4.800  1.00 98.22     0.142 C 
HETATM   26  C24 STQ 6 321     -32.065 127.571   5.092  1.00 99.27     0.007 C 
HETATM   27  C25 STQ 6 321     -32.669 128.441   5.914  1.00 99.66    -0.077 C 
HETATM   28  C26 STQ 6 321     -34.156 128.397   6.127  1.00 99.84     0.044 C 
HETATM   29  C27 STQ 6 321     -34.523 129.135   7.398  1.00 90.68    -0.016 C 
HETATM   30  C28 STQ 6 321     -35.248 130.245   7.282  1.00 92.00     0.003 C 
HETATM   31  C29 STQ 6 321     -35.678 131.063   8.432  1.00 92.38    -0.062 C 
HETATM   32  C30 STQ 6 321     -36.434 132.142   8.176  1.00 92.82     0.007 C 
HETATM   33  C31 STQ 6 321     -36.942 133.048   9.203  1.00 93.26     0.001 C 
HETATM   34  C32 STQ 6 321     -37.746 134.021   8.780  1.00 94.43     0.007 C 
HETATM   35  C33 STQ 6 321     -38.359 135.024   9.674  1.00 94.12    -0.062 C 
HETATM   36  C34 STQ 6 321     -39.242 135.885   9.143  1.00 93.68     0.007 C 
HETATM   37  C35 STQ 6 321     -39.913 136.912   9.932  1.00 93.36     0.001 C 
HETATM   38  C36 STQ 6 321     -34.228 126.283   7.477  1.00 97.63     0.016 C 
HETATM   39  C37 STQ 6 321     -36.182 126.973   6.130  1.00 98.72     0.016 C 
HETATM   40  C38 STQ 6 321     -31.842 129.468   6.630  1.00 99.28     0.044 C 
HETATM   41  C39 STQ 6 321     -35.284 130.702   9.834  1.00 91.58     0.048 C 
HETATM   42  C40 STQ 6 321     -38.004 135.075  11.131  1.00 93.59     0.048 C 
HETATM   43  O23 STQ 6 321     -32.315 125.850   3.450  1.00 97.53    -0.392 OA
ATOM     44  H23 STQ 6 321     -31.371 125.872   3.341  1.00  0.00     0.210 HD
ENDROOT
TORSDOF 12
