REMARK VINA RESULT:   -10.662      0.000      0.000
REMARK INTER + INTRA:         -13.817
REMARK INTER:                 -10.662
REMARK INTRA:                  -3.155
REMARK UNBOUND:                -3.155
REMARK  0 active torsions:
REMARK  status: ('A' for Active; 'I' for Inactive)
REMARK       I    between atoms: C3_3  and  O3_21 
REMARK       I    between atoms: C6_6  and  C7_7 
REMARK       I    between atoms: C8_8  and  C9_9 
REMARK       I    between atoms: C10_10  and  C11_11 
REMARK       I    between atoms: C12_12  and  C13_13 
REMARK       I    between atoms: C14_14  and  C15_15 
REMARK       I    between atoms: C23_25  and  O23_43 
REMARK       I    between atoms: C26_28  and  C27_29 
REMARK       I    between atoms: C28_30  and  C29_31 
REMARK       I    between atoms: C30_32  and  C31_33 
REMARK       I    between atoms: C32_34  and  C33_35 
REMARK       I    between atoms: C34_36  and  C35_37 
ROOT
HETATM    1  C1  STQ 5 624     -34.549 127.007   6.118  1.00 23.68    -0.018 C 
HETATM    2  C2  STQ 5 624     -34.283 126.441   4.725  1.00 23.68     0.045 C 
HETATM    3  C3  STQ 5 624     -33.094 126.976   3.936  1.00 23.68     0.123 C 
HETATM    4  C4  STQ 5 624     -31.993 127.485   4.847  1.00 23.68     0.066 C 
HETATM    5  C5  STQ 5 624     -32.585 128.488   5.796  1.00 23.68    -0.074 C 
HETATM    6  C6  STQ 5 624     -33.671 128.184   6.511  1.00 23.68    -0.048 C 
HETATM    7  C7  STQ 5 624     -34.022 128.965   7.728  1.00 23.68     0.009 C 
HETATM    8  C8  STQ 5 624     -34.713 130.109   7.689  1.00 23.68     0.007 C 
HETATM    9  C9  STQ 5 624     -35.069 130.880   8.904  1.00 23.68    -0.062 C 
HETATM   10  C10 STQ 5 624     -35.865 131.950   8.756  1.00 23.68     0.007 C 
HETATM   11  C11 STQ 5 624     -36.358 132.838   9.809  1.00 23.68     0.001 C 
HETATM   12  C12 STQ 5 624     -37.274 133.711   9.383  1.00 23.68     0.007 C 
HETATM   13  C13 STQ 5 624     -38.014 134.732  10.154  1.00 23.68    -0.062 C 
HETATM   14  C14 STQ 5 624     -38.760 135.605   9.457  1.00 23.68     0.007 C 
HETATM   15  C15 STQ 5 624     -39.577 136.638  10.090  1.00 23.68     0.001 C 
HETATM   16  C16 STQ 5 624     -34.385 125.850   7.087  1.00 23.68     0.020 C 
HETATM   17  C17 STQ 5 624     -35.992 127.485   6.167  1.00 23.68     0.020 C 
HETATM   18  C18 STQ 5 624     -31.490 129.339   6.361  1.00 23.68     0.044 C 
HETATM   19  C19 STQ 5 624     -34.561 130.482  10.255  1.00 23.68     0.048 C 
HETATM   20  C20 STQ 5 624     -37.960 134.782  11.649  1.00 23.68     0.048 C 
HETATM   21  O3  STQ 5 624     -32.577 125.916   3.128  1.00 23.68    -0.395 OA
ATOM     22  H3  STQ 5 624     -31.836 126.249   2.636  1.00  0.00     0.210 HD
HETATM   23  C21 STQ 5 624     -47.945 146.040  12.606  1.00 23.68    -0.035 C 
HETATM   24  C22 STQ 5 624     -48.701 146.725  13.730  1.00 23.68     0.045 C 
HETATM   25  C23 STQ 5 624     -47.954 147.883  14.363  1.00 23.68     0.142 C 
HETATM   26  C24 STQ 5 624     -46.550 147.476  14.705  1.00 23.68     0.007 C 
HETATM   27  C25 STQ 5 624     -45.885 146.569  13.983  1.00 23.68    -0.077 C 
HETATM   28  C26 STQ 5 624     -46.568 145.569  13.085  1.00 23.68     0.044 C 
HETATM   29  C27 STQ 5 624     -45.692 145.201  11.906  1.00 23.68    -0.016 C 
HETATM   30  C28 STQ 5 624     -45.282 143.941  11.817  1.00 23.68     0.003 C 
HETATM   31  C29 STQ 5 624     -44.447 143.420  10.724  1.00 23.68    -0.062 C 
HETATM   32  C30 STQ 5 624     -44.032 142.156  10.850  1.00 23.68     0.007 C 
HETATM   33  C31 STQ 5 624     -43.218 141.436   9.880  1.00 23.68     0.001 C 
HETATM   34  C32 STQ 5 624     -42.441 140.470  10.352  1.00 23.68     0.007 C 
HETATM   35  C33 STQ 5 624     -41.584 139.632   9.501  1.00 23.68    -0.062 C 
HETATM   36  C34 STQ 5 624     -40.978 138.582  10.077  1.00 23.68     0.007 C 
HETATM   37  C35 STQ 5 624     -40.133 137.618   9.376  1.00 23.68     0.001 C 
HETATM   38  C36 STQ 5 624     -47.842 146.973  11.404  1.00 23.68     0.016 C 
HETATM   39  C37 STQ 5 624     -48.770 144.832  12.192  1.00 23.68     0.016 C 
HETATM   40  C38 STQ 5 624     -44.402 146.562  14.104  1.00 23.68     0.044 C 
HETATM   41  C39 STQ 5 624     -44.096 144.260   9.534  1.00 23.68     0.048 C 
HETATM   42  C40 STQ 5 624     -41.421 139.959   8.048  1.00 23.68     0.048 C 
HETATM   43  O23 STQ 5 624     -48.622 148.264  15.569  1.00 23.68    -0.392 OA
ATOM     44  H23 STQ 5 624     -49.510 148.523  15.352  1.00  0.00     0.210 HD
ENDROOT
TORSDOF 12
