REMARK VINA RESULT:    -6.458      1.905      3.014
REMARK INTER + INTRA:          -6.892
REMARK INTER:                  -5.093
REMARK INTRA:                  -1.799
REMARK UNBOUND:                -0.434
REMARK  0 active torsions:
REMARK  status: ('A' for Active; 'I' for Inactive)
REMARK       I    between atoms: C3_3  and  O3_21 
REMARK       I    between atoms: C6_6  and  C7_7 
REMARK       I    between atoms: C8_8  and  C9_9 
REMARK       I    between atoms: C10_10  and  C11_11 
REMARK       I    between atoms: C12_12  and  C13_13 
REMARK       I    between atoms: C14_14  and  C15_15 
REMARK       I    between atoms: C23_25  and  O23_43 
REMARK       I    between atoms: C26_28  and  C27_29 
REMARK       I    between atoms: C28_30  and  C29_31 
REMARK       I    between atoms: C30_32  and  C31_33 
REMARK       I    between atoms: C32_34  and  C33_35 
REMARK       I    between atoms: C34_36  and  C35_37 
ROOT
HETATM    1  C1  STQ 2 616     -48.418 147.536   9.779  1.00 78.53    -0.022 C 
HETATM    2  C2  STQ 2 616     -49.861 147.986  10.029  1.00 78.53     0.045 C 
HETATM    3  C3  STQ 2 616     -50.394 147.939  11.462  1.00 78.53     0.119 C 
HETATM    4  C4  STQ 2 616     -49.286 148.148  12.482  1.00 78.53     0.040 C 
HETATM    5  C5  STQ 2 616     -48.254 147.091  12.213  1.00 78.53     0.013 C 
HETATM    6  C6  STQ 2 616     -47.682 147.049  11.013  1.00 78.53    -0.068 C 
HETATM    7  C7  STQ 2 616     -46.293 146.556  10.868  1.00 78.53     0.004 C 
HETATM    8  C8  STQ 2 616     -45.984 145.259  10.921  1.00 78.53     0.007 C 
HETATM    9  C9  STQ 2 616     -44.583 144.834  10.760  1.00 78.53    -0.062 C 
HETATM   10  C10 STQ 2 616     -44.311 143.526  10.634  1.00 78.53     0.007 C 
HETATM   11  C11 STQ 2 616     -42.967 142.974  10.458  1.00 78.53     0.001 C 
HETATM   12  C12 STQ 2 616     -42.869 141.646  10.401  1.00 78.53     0.007 C 
HETATM   13  C13 STQ 2 616     -41.600 140.914  10.203  1.00 78.53    -0.062 C 
HETATM   14  C14 STQ 2 616     -41.670 139.602   9.937  1.00 78.53     0.007 C 
HETATM   15  C15 STQ 2 616     -40.488 138.781   9.685  1.00 78.53     0.001 C 
HETATM   16  C16 STQ 2 616     -47.671 148.710   9.155  1.00 78.53     0.019 C 
HETATM   17  C17 STQ 2 616     -48.433 146.376   8.790  1.00 78.53     0.019 C 
HETATM   18  C18 STQ 2 616     -47.451 147.275  13.469  1.00 78.53     0.015 C 
HETATM   19  C19 STQ 2 616     -43.508 145.875  10.751  1.00 78.53     0.048 C 
HETATM   20  C20 STQ 2 616     -40.273 141.606  10.290  1.00 78.53     0.048 C 
HETATM   21  O3  STQ 2 616     -51.382 148.962  11.631  1.00 78.53    -0.396 OA
ATOM     22  H3  STQ 2 616     -51.713 148.933  12.522  1.00  0.00     0.210 HD
HETATM   23  C21 STQ 2 616     -34.935 127.674   5.743  1.00 78.53    -0.035 C 
HETATM   24  C22 STQ 2 616     -33.670 126.939   5.310  1.00 78.53     0.045 C 
HETATM   25  C23 STQ 2 616     -32.908 126.275   6.454  1.00 78.53     0.142 C 
HETATM   26  C24 STQ 2 616     -32.812 127.193   7.648  1.00 78.53     0.007 C 
HETATM   27  C25 STQ 2 616     -33.795 128.055   7.954  1.00 78.53    -0.077 C 
HETATM   28  C26 STQ 2 616     -34.649 128.670   6.874  1.00 78.53     0.044 C 
HETATM   29  C27 STQ 2 616     -35.958 129.210   7.419  1.00 78.53    -0.016 C 
HETATM   30  C28 STQ 2 616     -36.171 130.525   7.424  1.00 78.53     0.003 C 
HETATM   31  C29 STQ 2 616     -37.429 131.116   7.919  1.00 78.53    -0.062 C 
HETATM   32  C30 STQ 2 616     -37.595 132.434   7.758  1.00 78.53     0.007 C 
HETATM   33  C31 STQ 2 616     -38.785 133.172   8.161  1.00 78.53     0.001 C 
HETATM   34  C32 STQ 2 616     -38.667 134.491   8.262  1.00 78.53     0.007 C 
HETATM   35  C33 STQ 2 616     -39.801 135.357   8.624  1.00 78.53    -0.062 C 
HETATM   36  C34 STQ 2 616     -39.573 136.634   8.973  1.00 78.53     0.007 C 
HETATM   37  C35 STQ 2 616     -40.684 137.526   9.292  1.00 78.53     0.001 C 
HETATM   38  C36 STQ 2 616     -36.013 126.665   6.142  1.00 78.53     0.016 C 
HETATM   39  C37 STQ 2 616     -35.450 128.447   4.536  1.00 78.53     0.016 C 
HETATM   40  C38 STQ 2 616     -34.026 128.398   9.397  1.00 78.53     0.044 C 
HETATM   41  C39 STQ 2 616     -38.485 130.271   8.570  1.00 78.53     0.048 C 
HETATM   42  C40 STQ 2 616     -41.193 134.808   8.565  1.00 78.53     0.048 C 
HETATM   43  O23 STQ 2 616     -31.585 125.953   6.007  1.00 78.53    -0.392 OA
ATOM     44  H23 STQ 2 616     -31.111 125.540   6.718  1.00  0.00     0.210 HD
ENDROOT
TORSDOF 12
