REMARK VINA RESULT:   -11.249      0.000      0.000
REMARK INTER + INTRA:         -13.758
REMARK INTER:                 -11.249
REMARK INTRA:                  -2.509
REMARK UNBOUND:                -2.509
REMARK  0 active torsions:
REMARK  status: ('A' for Active; 'I' for Inactive)
REMARK       I    between atoms: C3_3  and  O3_21 
REMARK       I    between atoms: C6_6  and  C7_7 
REMARK       I    between atoms: C8_8  and  C9_9 
REMARK       I    between atoms: C10_10  and  C11_11 
REMARK       I    between atoms: C12_12  and  C13_13 
REMARK       I    between atoms: C14_14  and  C15_15 
REMARK       I    between atoms: C23_25  and  O23_43 
REMARK       I    between atoms: C26_28  and  C27_29 
REMARK       I    between atoms: C28_30  and  C29_31 
REMARK       I    between atoms: C30_32  and  C31_33 
REMARK       I    between atoms: C32_34  and  C33_35 
REMARK       I    between atoms: C34_36  and  C35_37 
ROOT
HETATM    1  C1  STQ Y1620     -34.298 127.142   6.595  1.00 33.25    -0.018 C 
HETATM    2  C2  STQ Y1620     -33.947 126.786   5.159  1.00 33.25     0.045 C 
HETATM    3  C3  STQ Y1620     -32.769 127.510   4.532  1.00 33.25     0.123 C 
HETATM    4  C4  STQ Y1620     -31.693 127.776   5.545  1.00 33.25     0.066 C 
HETATM    5  C5  STQ Y1620     -32.249 128.557   6.681  1.00 33.25    -0.074 C 
HETATM    6  C6  STQ Y1620     -33.448 128.257   7.178  1.00 33.25    -0.048 C 
HETATM    7  C7  STQ Y1620     -33.958 129.020   8.332  1.00 33.25     0.009 C 
HETATM    8  C8  STQ Y1620     -34.728 130.077   8.128  1.00 33.25     0.007 C 
HETATM    9  C9  STQ Y1620     -35.280 130.880   9.211  1.00 33.25    -0.062 C 
HETATM   10  C10 STQ Y1620     -35.849 132.012   8.817  1.00 33.25     0.007 C 
HETATM   11  C11 STQ Y1620     -36.492 132.971   9.680  1.00 33.25     0.001 C 
HETATM   12  C12 STQ Y1620     -37.264 133.790   8.997  1.00 33.25     0.007 C 
HETATM   13  C13 STQ Y1620     -38.070 134.815   9.635  1.00 33.25    -0.062 C 
HETATM   14  C14 STQ Y1620     -38.864 135.529   8.850  1.00 33.25     0.007 C 
HETATM   15  C15 STQ Y1620     -39.748 136.524   9.414  1.00 33.25     0.001 C 
HETATM   16  C16 STQ Y1620     -34.209 125.850   7.402  1.00 33.25     0.020 C 
HETATM   17  C17 STQ Y1620     -35.742 127.609   6.598  1.00 33.25     0.020 C 
HETATM   18  C18 STQ Y1620     -31.354 129.616   7.245  1.00 33.25     0.044 C 
HETATM   19  C19 STQ Y1620     -35.189 130.442  10.637  1.00 33.25     0.048 C 
HETATM   20  C20 STQ Y1620     -38.022 135.013  11.112  1.00 33.25     0.048 C 
HETATM   21  O3  STQ Y1620     -32.191 126.685   3.524  1.00 33.25    -0.395 OA
ATOM     22  H3  STQ Y1620     -31.455 127.138   3.132  1.00  0.00     0.210 HD
HETATM   23  C21 STQ Y1620     -49.744 144.194   9.877  1.00 33.25    -0.035 C 
HETATM   24  C22 STQ Y1620     -50.622 145.048  10.776  1.00 33.25     0.045 C 
HETATM   25  C23 STQ Y1620     -50.352 146.539  10.684  1.00 33.25     0.142 C 
HETATM   26  C24 STQ Y1620     -48.880 146.851  10.637  1.00 33.25     0.007 C 
HETATM   27  C25 STQ Y1620     -47.968 145.957  10.250  1.00 33.25    -0.077 C 
HETATM   28  C26 STQ Y1620     -48.273 144.483  10.169  1.00 33.25     0.044 C 
HETATM   29  C27 STQ Y1620     -47.403 143.827   9.124  1.00 33.25    -0.016 C 
HETATM   30  C28 STQ Y1620     -46.523 142.933   9.531  1.00 33.25     0.003 C 
HETATM   31  C29 STQ Y1620     -45.645 142.252   8.582  1.00 33.25    -0.062 C 
HETATM   32  C30 STQ Y1620     -45.020 141.178   9.042  1.00 33.25     0.007 C 
HETATM   33  C31 STQ Y1620     -44.122 140.374   8.246  1.00 33.25     0.001 C 
HETATM   34  C32 STQ Y1620     -43.307 139.629   8.959  1.00 33.25     0.007 C 
HETATM   35  C33 STQ Y1620     -42.352 138.728   8.328  1.00 33.25    -0.062 C 
HETATM   36  C34 STQ Y1620     -41.574 138.017   9.133  1.00 33.25     0.007 C 
HETATM   37  C35 STQ Y1620     -40.632 137.060   8.600  1.00 33.25     0.001 C 
HETATM   38  C36 STQ Y1620     -50.089 144.387   8.402  1.00 33.25     0.016 C 
HETATM   39  C37 STQ Y1620     -50.054 142.749  10.225  1.00 33.25     0.016 C 
HETATM   40  C38 STQ Y1620     -46.606 146.473   9.909  1.00 33.25     0.044 C 
HETATM   41  C39 STQ Y1620     -45.455 142.743   7.182  1.00 33.25     0.048 C 
HETATM   42  C40 STQ Y1620     -42.286 138.601   6.843  1.00 33.25     0.048 C 
HETATM   43  O23 STQ Y1620     -50.903 147.173  11.841  1.00 33.25    -0.392 OA
ATOM     44  H23 STQ Y1620     -50.734 148.106  11.783  1.00  0.00     0.210 HD
ENDROOT
TORSDOF 12
