REMARK VINA RESULT:    -5.975      2.623      3.823
REMARK INTER + INTRA:          -9.058
REMARK INTER:                  -7.601
REMARK INTRA:                  -1.458
REMARK UNBOUND:                -3.083
REMARK  0 active torsions:
REMARK  status: ('A' for Active; 'I' for Inactive)
REMARK       I    between atoms: C3_3  and  O3_21 
REMARK       I    between atoms: C6_6  and  C7_7 
REMARK       I    between atoms: C8_8  and  C9_9 
REMARK       I    between atoms: C10_10  and  C11_11 
REMARK       I    between atoms: C12_12  and  C13_13 
REMARK       I    between atoms: C14_14  and  C15_15 
REMARK       I    between atoms: C23_25  and  O23_43 
REMARK       I    between atoms: C26_28  and  C27_29 
REMARK       I    between atoms: C28_30  and  C29_31 
REMARK       I    between atoms: C30_32  and  C31_33 
REMARK       I    between atoms: C32_34  and  C33_35 
REMARK       I    between atoms: C34_36  and  C35_37 
ROOT
HETATM    1  C1  STQ 2 617     -51.282 142.446  14.305  1.00 73.56    -0.018 C 
HETATM    2  C2  STQ 2 617     -51.621 143.004  15.689  1.00 73.56     0.045 C 
HETATM    3  C3  STQ 2 617     -51.100 144.390  16.061  1.00 73.56     0.123 C 
HETATM    4  C4  STQ 2 617     -50.981 145.287  14.838  1.00 73.56     0.066 C 
HETATM    5  C5  STQ 2 617     -50.090 144.585  13.849  1.00 73.56    -0.074 C 
HETATM    6  C6  STQ 2 617     -50.359 143.329  13.477  1.00 73.56    -0.048 C 
HETATM    7  C7  STQ 2 617     -49.783 142.785  12.223  1.00 73.56     0.009 C 
HETATM    8  C8  STQ 2 617     -48.559 142.253  12.160  1.00 73.56     0.007 C 
HETATM    9  C9  STQ 2 617     -48.017 141.719  10.897  1.00 73.56    -0.062 C 
HETATM   10  C10 STQ 2 617     -46.917 140.954  10.944  1.00 73.56     0.007 C 
HETATM   11  C11 STQ 2 617     -46.290 140.376   9.758  1.00 73.56     0.001 C 
HETATM   12  C12 STQ 2 617     -45.061 139.883   9.894  1.00 73.56     0.007 C 
HETATM   13  C13 STQ 2 617     -44.315 139.260   8.785  1.00 73.56    -0.062 C 
HETATM   14  C14 STQ 2 617     -43.307 138.438   9.103  1.00 73.56     0.007 C 
HETATM   15  C15 STQ 2 617     -42.492 137.733   8.119  1.00 73.56     0.001 C 
HETATM   16  C16 STQ 2 617     -52.600 142.200  13.573  1.00 73.56     0.020 C 
HETATM   17  C17 STQ 2 617     -50.569 141.112  14.489  1.00 73.56     0.020 C 
HETATM   18  C18 STQ 2 617     -49.566 145.599  12.871  1.00 73.56     0.044 C 
HETATM   19  C19 STQ 2 617     -48.682 142.031   9.592  1.00 73.56     0.048 C 
HETATM   20  C20 STQ 2 617     -44.669 139.541   7.353  1.00 73.56     0.048 C 
HETATM   21  O3  STQ 2 617     -52.000 144.990  16.999  1.00 73.56    -0.395 OA
ATOM     22  H3  STQ 2 617     -51.676 145.853  17.230  1.00  0.00     0.210 HD
HETATM   23  C21 STQ 2 617     -34.550 127.333   6.736  1.00 73.56    -0.035 C 
HETATM   24  C22 STQ 2 617     -33.778 126.583   5.647  1.00 73.56     0.045 C 
HETATM   25  C23 STQ 2 617     -32.349 127.064   5.388  1.00 73.56     0.142 C 
HETATM   26  C24 STQ 2 617     -32.202 128.561   5.559  1.00 73.56     0.007 C 
HETATM   27  C25 STQ 2 617     -32.969 129.209   6.445  1.00 73.56    -0.077 C 
HETATM   28  C26 STQ 2 617     -34.423 128.844   6.537  1.00 73.56     0.044 C 
HETATM   29  C27 STQ 2 617     -35.140 129.613   7.628  1.00 73.56    -0.016 C 
HETATM   30  C28 STQ 2 617     -36.014 130.535   7.231  1.00 73.56     0.003 C 
HETATM   31  C29 STQ 2 617     -36.799 131.372   8.158  1.00 73.56    -0.062 C 
HETATM   32  C30 STQ 2 617     -37.630 132.276   7.622  1.00 73.56     0.007 C 
HETATM   33  C31 STQ 2 617     -38.475 133.167   8.410  1.00 73.56     0.001 C 
HETATM   34  C32 STQ 2 617     -39.230 134.052   7.762  1.00 73.56     0.007 C 
HETATM   35  C33 STQ 2 617     -40.119 134.976   8.487  1.00 73.56    -0.062 C 
HETATM   36  C34 STQ 2 617     -40.893 135.860   7.832  1.00 73.56     0.007 C 
HETATM   37  C35 STQ 2 617     -41.770 136.733   8.613  1.00 73.56     0.001 C 
HETATM   38  C36 STQ 2 617     -34.071 126.923   8.125  1.00 73.56     0.016 C 
HETATM   39  C37 STQ 2 617     -36.021 126.949   6.614  1.00 73.56     0.016 C 
HETATM   40  C38 STQ 2 617     -32.368 130.258   7.332  1.00 73.56     0.044 C 
HETATM   41  C39 STQ 2 617     -36.670 131.214   9.643  1.00 73.56     0.048 C 
HETATM   42  C40 STQ 2 617     -40.150 134.906   9.982  1.00 73.56     0.048 C 
HETATM   43  O23 STQ 2 617     -31.972 126.714   4.052  1.00 73.56    -0.392 OA
ATOM     44  H23 STQ 2 617     -31.085 127.012   3.891  1.00  0.00     0.210 HD
ENDROOT
TORSDOF 12
