REMARK VINA RESULT:   -10.707      0.000      0.000
REMARK INTER + INTRA:         -13.133
REMARK INTER:                 -10.707
REMARK INTRA:                  -2.426
REMARK UNBOUND:                -2.426
REMARK  0 active torsions:
REMARK  status: ('A' for Active; 'I' for Inactive)
REMARK       I    between atoms: C3_3  and  O3_21 
REMARK       I    between atoms: C6_6  and  C7_7 
REMARK       I    between atoms: C8_8  and  C9_9 
REMARK       I    between atoms: C10_10  and  C11_11 
REMARK       I    between atoms: C12_12  and  C13_13 
REMARK       I    between atoms: C14_14  and  C15_15 
REMARK       I    between atoms: C23_25  and  O23_43 
REMARK       I    between atoms: C26_28  and  C27_29 
REMARK       I    between atoms: C28_30  and  C29_31 
REMARK       I    between atoms: C30_32  and  C31_33 
REMARK       I    between atoms: C32_34  and  C33_35 
REMARK       I    between atoms: C34_36  and  C35_37 
ROOT
HETATM    1  C1  STQ N1620     -34.283 127.391   6.705  1.00 61.00    -0.018 C 
HETATM    2  C2  STQ N1620     -33.777 126.943   5.336  1.00 61.00     0.045 C 
HETATM    3  C3  STQ N1620     -32.562 127.653   4.757  1.00 61.00     0.123 C 
HETATM    4  C4  STQ N1620     -31.593 128.088   5.835  1.00 61.00     0.066 C 
HETATM    5  C5  STQ N1620     -32.304 128.894   6.885  1.00 61.00    -0.074 C 
HETATM    6  C6  STQ N1620     -33.529 128.561   7.308  1.00 61.00    -0.048 C 
HETATM    7  C7  STQ N1620     -34.172 129.333   8.402  1.00 61.00     0.009 C 
HETATM    8  C8  STQ N1620     -34.937 130.396   8.152  1.00 61.00     0.007 C 
HETATM    9  C9  STQ N1620     -35.599 131.188   9.195  1.00 61.00    -0.062 C 
HETATM   10  C10 STQ N1620     -36.200 132.310   8.794  1.00 61.00     0.007 C 
HETATM   11  C11 STQ N1620     -36.929 133.208   9.677  1.00 61.00     0.001 C 
HETATM   12  C12 STQ N1620     -37.626 134.156   9.064  1.00 61.00     0.007 C 
HETATM   13  C13 STQ N1620     -38.458 135.134   9.772  1.00 61.00    -0.062 C 
HETATM   14  C14 STQ N1620     -39.280 135.888   9.032  1.00 61.00     0.007 C 
HETATM   15  C15 STQ N1620     -40.189 136.875   9.597  1.00 61.00     0.001 C 
HETATM   16  C16 STQ N1620     -34.217 126.172   7.618  1.00 61.00     0.020 C 
HETATM   17  C17 STQ N1620     -35.736 127.820   6.548  1.00 61.00     0.020 C 
HETATM   18  C18 STQ N1620     -31.519 130.004   7.526  1.00 61.00     0.044 C 
HETATM   19  C19 STQ N1620     -35.596 130.754  10.628  1.00 61.00     0.048 C 
HETATM   20  C20 STQ N1620     -38.400 135.255  11.260  1.00 61.00     0.048 C 
HETATM   21  O3  STQ N1620     -31.881 126.742   3.887  1.00 61.00    -0.395 OA
ATOM     22  H3  STQ N1620     -32.489 126.469   3.210  1.00  0.00     0.210 HD
HETATM   23  C21 STQ N1620     -50.170 144.544  10.197  1.00 61.00    -0.035 C 
HETATM   24  C22 STQ N1620     -51.130 145.442  10.954  1.00 61.00     0.045 C 
HETATM   25  C23 STQ N1620     -51.040 146.887  10.504  1.00 61.00     0.142 C 
HETATM   26  C24 STQ N1620     -49.614 147.359  10.551  1.00 61.00     0.007 C 
HETATM   27  C25 STQ N1620     -48.585 146.541  10.314  1.00 61.00    -0.077 C 
HETATM   28  C26 STQ N1620     -48.721 145.039  10.326  1.00 61.00     0.044 C 
HETATM   29  C27 STQ N1620     -47.850 144.411   9.256  1.00 61.00    -0.016 C 
HETATM   30  C28 STQ N1620     -46.877 143.594   9.636  1.00 61.00     0.003 C 
HETATM   31  C29 STQ N1620     -45.990 142.920   8.678  1.00 61.00    -0.062 C 
HETATM   32  C30 STQ N1620     -45.349 141.837   9.126  1.00 61.00     0.007 C 
HETATM   33  C31 STQ N1620     -44.438 141.002   8.353  1.00 61.00     0.001 C 
HETATM   34  C32 STQ N1620     -43.659 140.195   9.064  1.00 61.00     0.007 C 
HETATM   35  C33 STQ N1620     -42.697 139.263   8.459  1.00 61.00    -0.062 C 
HETATM   36  C34 STQ N1620     -41.953 138.500   9.272  1.00 61.00     0.007 C 
HETATM   37  C35 STQ N1620     -40.999 137.521   8.762  1.00 61.00     0.001 C 
HETATM   38  C36 STQ N1620     -50.623 144.428   8.744  1.00 61.00     0.016 C 
HETATM   39  C37 STQ N1620     -50.275 143.165  10.828  1.00 61.00     0.016 C 
HETATM   40  C38 STQ N1620     -47.246 147.158  10.055  1.00 61.00     0.044 C 
HETATM   41  C39 STQ N1620     -45.820 143.419   7.277  1.00 61.00     0.048 C 
HETATM   42  C40 STQ N1620     -42.568 139.166   6.971  1.00 61.00     0.048 C 
HETATM   43  O23 STQ N1620     -51.816 147.696  11.393  1.00 61.00    -0.392 OA
ATOM     44  H23 STQ N1620     -51.760 148.601  11.112  1.00  0.00     0.210 HD
ENDROOT
TORSDOF 12
