REMARK VINA RESULT:    -9.111      1.957     16.916
REMARK INTER + INTRA:          -9.296
REMARK INTER:                  -8.596
REMARK INTRA:                  -0.700
REMARK UNBOUND:                -0.185
REMARK  0 active torsions:
REMARK  status: ('A' for Active; 'I' for Inactive)
REMARK       I    between atoms: C3_3  and  O3_21 
REMARK       I    between atoms: C6_6  and  C7_7 
REMARK       I    between atoms: C8_8  and  C9_9 
REMARK       I    between atoms: C10_10  and  C11_11 
REMARK       I    between atoms: C12_12  and  C13_13 
REMARK       I    between atoms: C14_14  and  C15_15 
REMARK       I    between atoms: C23_25  and  O23_43 
REMARK       I    between atoms: C26_28  and  C27_29 
REMARK       I    between atoms: C28_30  and  C29_31 
REMARK       I    between atoms: C30_32  and  C31_33 
REMARK       I    between atoms: C32_34  and  C33_35 
REMARK       I    between atoms: C34_36  and  C35_37 
ROOT
HETATM    1  C1  STQ X1621     -49.426 146.144  13.185  1.00 31.86    -0.018 C 
HETATM    2  C2  STQ X1621     -49.977 146.081  14.614  1.00 31.86     0.045 C 
HETATM    3  C3  STQ X1621     -49.203 146.838  15.686  1.00 31.86     0.123 C 
HETATM    4  C4  STQ X1621     -48.281 147.889  15.083  1.00 31.86     0.066 C 
HETATM    5  C5  STQ X1621     -47.402 147.175  14.101  1.00 31.86    -0.074 C 
HETATM    6  C6  STQ X1621     -47.969 146.538  13.077  1.00 31.86    -0.048 C 
HETATM    7  C7  STQ X1621     -47.192 146.029  11.927  1.00 31.86     0.009 C 
HETATM    8  C8  STQ X1621     -45.937 145.613  12.121  1.00 31.86     0.007 C 
HETATM    9  C9  STQ X1621     -45.257 144.890  11.023  1.00 31.86    -0.062 C 
HETATM   10  C10 STQ X1621     -44.266 144.045  11.374  1.00 31.86     0.007 C 
HETATM   11  C11 STQ X1621     -43.613 143.138  10.432  1.00 31.86     0.001 C 
HETATM   12  C12 STQ X1621     -42.848 142.154  10.900  1.00 31.86     0.007 C 
HETATM   13  C13 STQ X1621     -42.236 141.155   9.996  1.00 31.86    -0.062 C 
HETATM   14  C14 STQ X1621     -41.599 140.112  10.569  1.00 31.86     0.007 C 
HETATM   15  C15 STQ X1621     -40.964 139.026   9.821  1.00 31.86     0.001 C 
HETATM   16  C16 STQ X1621     -50.186 147.214  12.404  1.00 31.86     0.020 C 
HETATM   17  C17 STQ X1621     -49.685 144.800  12.523  1.00 31.86     0.020 C 
HETATM   18  C18 STQ X1621     -46.231 148.099  13.916  1.00 31.86     0.044 C 
HETATM   19  C19 STQ X1621     -45.746 145.044   9.601  1.00 31.86     0.048 C 
HETATM   20  C20 STQ X1621     -42.383 141.333   8.505  1.00 31.86     0.048 C 
HETATM   21  O3  STQ X1621     -50.177 147.466  16.516  1.00 31.86    -0.395 OA
ATOM     22  H3  STQ X1621     -50.752 146.810  16.893  1.00  0.00     0.210 HD
HETATM   23  C21 STQ X1621     -34.213 128.440   6.954  1.00 31.86    -0.035 C 
HETATM   24  C22 STQ X1621     -33.364 127.626   5.996  1.00 31.86     0.045 C 
HETATM   25  C23 STQ X1621     -31.881 127.766   6.278  1.00 31.86     0.142 C 
HETATM   26  C24 STQ X1621     -31.491 129.211   6.496  1.00 31.86     0.007 C 
HETATM   27  C25 STQ X1621     -32.379 130.182   6.771  1.00 31.86    -0.077 C 
HETATM   28  C26 STQ X1621     -33.859 129.925   6.878  1.00 31.86     0.044 C 
HETATM   29  C27 STQ X1621     -34.424 130.633   8.089  1.00 31.86    -0.016 C 
HETATM   30  C28 STQ X1621     -35.411 131.512   7.923  1.00 31.86     0.003 C 
HETATM   31  C29 STQ X1621     -36.002 132.247   9.060  1.00 31.86    -0.062 C 
HETATM   32  C30 STQ X1621     -36.947 133.163   8.760  1.00 31.86     0.007 C 
HETATM   33  C31 STQ X1621     -37.602 134.019   9.748  1.00 31.86     0.001 C 
HETATM   34  C32 STQ X1621     -38.418 134.984   9.326  1.00 31.86     0.007 C 
HETATM   35  C33 STQ X1621     -39.050 135.934  10.264  1.00 31.86    -0.062 C 
HETATM   36  C34 STQ X1621     -39.729 136.964   9.717  1.00 31.86     0.007 C 
HETATM   37  C35 STQ X1621     -40.375 138.034  10.480  1.00 31.86     0.001 C 
HETATM   38  C36 STQ X1621     -34.045 127.878   8.362  1.00 31.86     0.016 C 
HETATM   39  C37 STQ X1621     -35.669 128.302   6.526  1.00 31.86     0.016 C 
HETATM   40  C38 STQ X1621     -31.872 131.584   6.960  1.00 31.86     0.044 C 
HETATM   41  C39 STQ X1621     -35.529 131.936  10.458  1.00 31.86     0.048 C 
HETATM   42  C40 STQ X1621     -38.865 135.742  11.746  1.00 31.86     0.048 C 
HETATM   43  O23 STQ X1621     -31.207 127.266   5.124  1.00 31.86    -0.392 OA
ATOM     44  H23 STQ X1621     -31.452 126.358   4.986  1.00  0.00     0.210 HD
ENDROOT
TORSDOF 12
