REMARK VINA RESULT:    -8.097      1.979      2.560
REMARK INTER + INTRA:          -8.597
REMARK INTER:                  -5.665
REMARK INTRA:                  -2.932
REMARK UNBOUND:                -0.500
REMARK  0 active torsions:
REMARK  status: ('A' for Active; 'I' for Inactive)
REMARK       I    between atoms: C3_3  and  O3_21 
REMARK       I    between atoms: C6_6  and  C7_7 
REMARK       I    between atoms: C8_8  and  C9_9 
REMARK       I    between atoms: C10_10  and  C11_11 
REMARK       I    between atoms: C12_12  and  C13_13 
REMARK       I    between atoms: C14_14  and  C15_15 
REMARK       I    between atoms: C23_25  and  O23_43 
REMARK       I    between atoms: C26_28  and  C27_29 
REMARK       I    between atoms: C28_30  and  C29_31 
REMARK       I    between atoms: C30_32  and  C31_33 
REMARK       I    between atoms: C32_34  and  C33_35 
REMARK       I    between atoms: C34_36  and  C35_37 
ROOT
HETATM    1  C1  STQ C2621     -34.583 127.407   5.980  1.00 21.49    -0.018 C 
HETATM    2  C2  STQ C2621     -34.085 126.672   4.724  1.00 20.69     0.045 C 
HETATM    3  C3  STQ C2621     -32.741 127.030   4.090  1.00 22.34     0.123 C 
HETATM    4  C4  STQ C2621     -31.865 128.010   4.896  1.00 20.89     0.066 C 
HETATM    5  C5  STQ C2621     -32.402 128.720   6.104  1.00 22.34    -0.074 C 
HETATM    6  C6  STQ C2621     -33.644 128.474   6.646  1.00 21.76    -0.048 C 
HETATM    7  C7  STQ C2621     -34.206 129.157   7.848  1.00 21.22     0.009 C 
HETATM    8  C8  STQ C2621     -34.797 130.391   7.872  1.00 19.00     0.007 C 
HETATM    9  C9  STQ C2621     -35.341 131.109   9.030  1.00 18.63    -0.062 C 
HETATM   10  C10 STQ C2621     -36.006 132.264   8.805  1.00 17.22     0.007 C 
HETATM   11  C11 STQ C2621     -36.687 133.073   9.794  1.00 17.28     0.001 C 
HETATM   12  C12 STQ C2621     -37.405 134.169   9.454  1.00 18.91     0.007 C 
HETATM   13  C13 STQ C2621     -38.224 135.055  10.319  1.00 19.02    -0.062 C 
HETATM   14  C14 STQ C2621     -38.885 136.077   9.731  1.00 19.35     0.007 C 
HETATM   15  C15 STQ C2621     -39.773 137.040  10.353  1.00 19.45     0.001 C 
HETATM   16  C16 STQ C2621     -34.865 126.245   6.962  1.00 20.30     0.020 C 
HETATM   17  C17 STQ C2621     -35.932 128.043   5.607  1.00 19.22     0.020 C 
HETATM   18  C18 STQ C2621     -31.384 129.671   6.613  1.00 22.01     0.044 C 
HETATM   19  C19 STQ C2621     -35.188 130.468  10.382  1.00 17.51     0.048 C 
HETATM   20  C20 STQ C2621     -38.291 134.736  11.787  1.00 16.64     0.048 C 
HETATM   21  O3  STQ C2621     -32.010 125.850   3.769  1.00 21.61    -0.395 OA
ATOM     22  H3  STQ C2621     -32.549 125.246   3.272  1.00  0.00     0.210 HD
HETATM   23  C21 STQ C2621     -48.100 146.435  13.225  1.00 19.74    -0.035 C 
HETATM   24  C22 STQ C2621     -49.039 147.247  14.148  1.00 17.55     0.045 C 
HETATM   25  C23 STQ C2621     -48.499 148.600  14.618  1.00 19.51     0.142 C 
HETATM   26  C24 STQ C2621     -46.958 148.643  14.787  1.00 19.59     0.007 C 
HETATM   27  C25 STQ C2621     -46.135 147.645  14.366  1.00 19.92    -0.077 C 
HETATM   28  C26 STQ C2621     -46.606 146.362  13.687  1.00 18.67     0.044 C 
HETATM   29  C27 STQ C2621     -45.637 145.899  12.593  1.00 17.95    -0.016 C 
HETATM   30  C28 STQ C2621     -45.127 144.640  12.468  1.00 18.06     0.003 C 
HETATM   31  C29 STQ C2621     -44.472 144.065  11.280  1.00 18.23    -0.062 C 
HETATM   32  C30 STQ C2621     -43.979 142.809  11.354  1.00 17.68     0.007 C 
HETATM   33  C31 STQ C2621     -43.278 142.098  10.301  1.00 17.41     0.001 C 
HETATM   34  C32 STQ C2621     -42.654 140.925  10.569  1.00 17.19     0.007 C 
HETATM   35  C33 STQ C2621     -41.828 140.067   9.703  1.00 16.24    -0.062 C 
HETATM   36  C34 STQ C2621     -41.238 138.992  10.269  1.00 17.04     0.007 C 
HETATM   37  C35 STQ C2621     -40.350 138.034   9.650  1.00 18.96     0.001 C 
HETATM   38  C36 STQ C2621     -48.199 147.077  11.805  1.00 17.68     0.016 C 
HETATM   39  C37 STQ C2621     -48.681 145.002  13.155  1.00 17.82     0.016 C 
HETATM   40  C38 STQ C2621     -44.682 147.843  14.611  1.00 18.56     0.044 C 
HETATM   41  C39 STQ C2621     -44.318 144.943  10.077  1.00 19.51     0.048 C 
HETATM   42  C40 STQ C2621     -41.645 140.480   8.282  1.00 13.63     0.048 C 
HETATM   43  O23 STQ C2621     -49.155 148.990  15.820  1.00 19.91    -0.392 OA
ATOM     44  H23 STQ C2621     -48.821 149.830  16.112  1.00  0.00     0.210 HD
ENDROOT
TORSDOF 12
