REMARK VINA RESULT:    -4.386      1.358     17.340
REMARK INTER + INTRA:          -7.915
REMARK INTER:                  -7.445
REMARK INTRA:                  -0.469
REMARK UNBOUND:                -3.529
REMARK  0 active torsions:
REMARK  status: ('A' for Active; 'I' for Inactive)
REMARK       I    between atoms: C3_3  and  O3_21 
REMARK       I    between atoms: C6_6  and  C7_7 
REMARK       I    between atoms: C8_8  and  C9_9 
REMARK       I    between atoms: C10_10  and  C11_11 
REMARK       I    between atoms: C12_12  and  C13_13 
REMARK       I    between atoms: C14_14  and  C15_15 
REMARK       I    between atoms: C23_25  and  O23_43 
REMARK       I    between atoms: C26_28  and  C27_29 
REMARK       I    between atoms: C28_30  and  C29_31 
REMARK       I    between atoms: C30_32  and  C31_33 
REMARK       I    between atoms: C32_34  and  C33_35 
REMARK       I    between atoms: C34_36  and  C35_37 
ROOT
HETATM    1  C1  STQ B1621     -50.339 146.278  12.040  1.00 16.49    -0.018 C 
HETATM    2  C2  STQ B1621     -51.289 146.802  13.134  1.00 14.93     0.045 C 
HETATM    3  C3  STQ B1621     -50.749 147.705  14.239  1.00 15.86     0.123 C 
HETATM    4  C4  STQ B1621     -49.432 148.431  13.899  1.00 14.41     0.066 C 
HETATM    5  C5  STQ B1621     -48.522 147.894  12.828  1.00 15.44    -0.074 C 
HETATM    6  C6  STQ B1621     -48.912 146.908  11.941  1.00 14.73    -0.048 C 
HETATM    7  C7  STQ B1621     -48.059 146.386  10.845  1.00 14.04     0.009 C 
HETATM    8  C8  STQ B1621     -47.097 145.445  10.990  1.00 12.72     0.007 C 
HETATM    9  C9  STQ B1621     -46.171 144.910   9.987  1.00 12.70    -0.062 C 
HETATM   10  C10 STQ B1621     -45.388 143.870  10.356  1.00 13.26     0.007 C 
HETATM   11  C11 STQ B1621     -44.480 143.119   9.520  1.00 13.12     0.001 C 
HETATM   12  C12 STQ B1621     -43.799 142.051  10.001  1.00 12.34     0.007 C 
HETATM   13  C13 STQ B1621     -42.945 141.125   9.232  1.00 12.89    -0.062 C 
HETATM   14  C14 STQ B1621     -42.364 140.096   9.891  1.00 12.03     0.007 C 
HETATM   15  C15 STQ B1621     -41.536 139.051   9.325  1.00 13.59     0.001 C 
HETATM   16  C16 STQ B1621     -51.157 146.565  10.755  1.00 14.27     0.020 C 
HETATM   17  C17 STQ B1621     -50.224 144.745  12.232  1.00 12.26     0.020 C 
HETATM   18  C18 STQ B1621     -47.217 148.619  12.814  1.00 13.78     0.044 C 
HETATM   19  C19 STQ B1621     -46.210 145.501   8.608  1.00  8.79     0.048 C 
HETATM   20  C20 STQ B1621     -42.807 141.374   7.748  1.00  8.63     0.048 C 
HETATM   21  O3  STQ B1621     -51.743 148.637  14.640  1.00 14.46    -0.395 OA
ATOM     22  H3  STQ B1621     -51.406 149.200  15.327  1.00  0.00     0.210 HD
HETATM   23  C21 STQ B1621     -34.215 128.565   7.097  1.00 23.83    -0.035 C 
HETATM   24  C22 STQ B1621     -33.346 127.597   6.278  1.00 23.69     0.045 C 
HETATM   25  C23 STQ B1621     -31.833 127.759   6.424  1.00 23.55     0.142 C 
HETATM   26  C24 STQ B1621     -31.383 129.215   6.609  1.00 24.29     0.007 C 
HETATM   27  C25 STQ B1621     -32.253 130.222   6.874  1.00 24.98    -0.077 C 
HETATM   28  C26 STQ B1621     -33.768 130.060   7.013  1.00 23.38     0.044 C 
HETATM   29  C27 STQ B1621     -34.326 130.935   8.136  1.00 22.25    -0.016 C 
HETATM   30  C28 STQ B1621     -35.377 131.790   8.021  1.00 21.46     0.003 C 
HETATM   31  C29 STQ B1621     -36.064 132.493   9.121  1.00 21.33    -0.062 C 
HETATM   32  C30 STQ B1621     -37.061 133.354   8.819  1.00 19.38     0.007 C 
HETATM   33  C31 STQ B1621     -37.826 134.136   9.762  1.00 19.44     0.001 C 
HETATM   34  C32 STQ B1621     -38.661 135.122   9.339  1.00 17.56     0.007 C 
HETATM   35  C33 STQ B1621     -39.465 136.062  10.135  1.00 14.52    -0.062 C 
HETATM   36  C34 STQ B1621     -40.140 137.032   9.479  1.00 13.82     0.007 C 
HETATM   37  C35 STQ B1621     -40.957 138.085  10.061  1.00 15.60     0.001 C 
HETATM   38  C36 STQ B1621     -34.184 128.062   8.566  1.00 23.39     0.016 C 
HETATM   39  C37 STQ B1621     -35.659 128.421   6.587  1.00 21.57     0.016 C 
HETATM   40  C38 STQ B1621     -31.591 131.550   7.005  1.00 23.84     0.044 C 
HETATM   41  C39 STQ B1621     -35.555 132.270  10.509  1.00 21.43     0.048 C 
HETATM   42  C40 STQ B1621     -39.426 135.921  11.623  1.00 13.28     0.048 C 
HETATM   43  O23 STQ B1621     -31.182 127.169   5.310  1.00 25.61    -0.392 OA
ATOM     44  H23 STQ B1621     -31.461 126.267   5.195  1.00  0.00     0.210 HD
ENDROOT
TORSDOF 12
