REMARK VINA RESULT:    -9.001      1.808     16.494
REMARK INTER + INTRA:          -9.588
REMARK INTER:                  -7.479
REMARK INTRA:                  -2.109
REMARK UNBOUND:                -0.587
REMARK  0 active torsions:
REMARK  status: ('A' for Active; 'I' for Inactive)
REMARK       I    between atoms: C3_3  and  O3_21 
REMARK       I    between atoms: C6_6  and  C7_7 
REMARK       I    between atoms: C8_8  and  C9_9 
REMARK       I    between atoms: C10_10  and  C11_11 
REMARK       I    between atoms: C12_12  and  C13_13 
REMARK       I    between atoms: C14_14  and  C15_15 
REMARK       I    between atoms: C23_25  and  O23_43 
REMARK       I    between atoms: C26_28  and  C27_29 
REMARK       I    between atoms: C28_30  and  C29_31 
REMARK       I    between atoms: C30_32  and  C31_33 
REMARK       I    between atoms: C32_34  and  C33_35 
REMARK       I    between atoms: C34_36  and  C35_37 
ROOT
HETATM    1  C1  STQ 11620     -34.856 128.510   6.624  1.00 94.67    -0.018 C 
HETATM    2  C2  STQ 11620     -33.981 128.254   5.404  1.00 94.67     0.045 C 
HETATM    3  C3  STQ 11620     -32.636 128.947   5.379  1.00 94.67     0.123 C 
HETATM    4  C4  STQ 11620     -31.995 128.821   6.734  1.00 94.67     0.066 C 
HETATM    5  C5  STQ 11620     -32.866 129.465   7.766  1.00 94.67    -0.074 C 
HETATM    6  C6  STQ 11620     -34.191 129.313   7.726  1.00 94.67    -0.048 C 
HETATM    7  C7  STQ 11620     -35.057 129.916   8.768  1.00 94.67     0.009 C 
HETATM    8  C8  STQ 11620     -35.525 131.155   8.642  1.00 94.67     0.007 C 
HETATM    9  C9  STQ 11620     -36.398 131.784   9.632  1.00 94.67    -0.062 C 
HETATM   10  C10 STQ 11620     -36.834 133.002   9.327  1.00 94.67     0.007 C 
HETATM   11  C11 STQ 11620     -37.728 133.785  10.158  1.00 94.67     0.001 C 
HETATM   12  C12 STQ 11620     -38.294 134.779   9.495  1.00 94.67     0.007 C 
HETATM   13  C13 STQ 11620     -39.259 135.709  10.077  1.00 94.67    -0.062 C 
HETATM   14  C14 STQ 11620     -39.807 136.588   9.240  1.00 94.67     0.007 C 
HETATM   15  C15 STQ 11620     -40.810 137.563   9.636  1.00 94.67     0.001 C 
HETATM   16  C16 STQ 11620     -35.287 127.136   7.126  1.00 94.67     0.020 C 
HETATM   17  C17 STQ 11620     -36.070 129.302   6.162  1.00 94.67     0.020 C 
HETATM   18  C18 STQ 11620     -32.162 130.222   8.854  1.00 94.67     0.044 C 
HETATM   19  C19 STQ 11620     -36.776 131.088  10.904  1.00 94.67     0.048 C 
HETATM   20  C20 STQ 11620     -39.620 135.650  11.526  1.00 94.67     0.048 C 
HETATM   21  O3  STQ 11620     -31.799 128.287   4.428  1.00 94.67    -0.395 OA
ATOM     22  H3  STQ 11620     -32.204 128.366   3.572  1.00  0.00     0.210 HD
HETATM   23  C21 STQ 11620     -50.301 145.695   8.586  1.00 94.67    -0.035 C 
HETATM   24  C22 STQ 11620     -51.257 146.322   9.589  1.00 94.67     0.045 C 
HETATM   25  C23 STQ 11620     -50.944 147.769   9.939  1.00 94.67     0.142 C 
HETATM   26  C24 STQ 11620     -49.465 148.010  10.097  1.00 94.67     0.007 C 
HETATM   27  C25 STQ 11620     -48.591 147.317   9.363  1.00 94.67    -0.077 C 
HETATM   28  C26 STQ 11620     -48.863 145.870   9.071  1.00 94.67     0.044 C 
HETATM   29  C27 STQ 11620     -47.900 145.317   8.052  1.00 94.67    -0.016 C 
HETATM   30  C28 STQ 11620     -47.041 144.416   8.499  1.00 94.67     0.003 C 
HETATM   31  C29 STQ 11620     -46.051 143.767   7.639  1.00 94.67    -0.062 C 
HETATM   32  C30 STQ 11620     -45.426 142.718   8.171  1.00 94.67     0.007 C 
HETATM   33  C31 STQ 11620     -44.408 141.916   7.518  1.00 94.67     0.001 C 
HETATM   34  C32 STQ 11620     -43.834 141.078   8.363  1.00 94.67     0.007 C 
HETATM   35  C33 STQ 11620     -42.771 140.139   8.013  1.00 94.67    -0.062 C 
HETATM   36  C34 STQ 11620     -42.416 139.238   8.933  1.00 94.67     0.007 C 
HETATM   37  C35 STQ 11620     -41.380 138.255   8.659  1.00 94.67     0.001 C 
HETATM   38  C36 STQ 11620     -50.502 146.276   7.187  1.00 94.67     0.016 C 
HETATM   39  C37 STQ 11620     -50.635 144.213   8.509  1.00 94.67     0.016 C 
HETATM   40  C38 STQ 11620     -47.366 148.007   8.836  1.00 94.67     0.044 C 
HETATM   41  C39 STQ 11620     -45.771 144.251   6.251  1.00 94.67     0.048 C 
HETATM   42  C40 STQ 11620     -42.103 140.211   6.679  1.00 94.67     0.048 C 
HETATM   43  O23 STQ 11620     -51.602 148.096  11.162  1.00 94.67    -0.392 OA
ATOM     44  H23 STQ 11620     -52.534 147.944  11.063  1.00  0.00     0.210 HD
ENDROOT
TORSDOF 12
