REMARK VINA RESULT:    -9.507      2.068      2.645
REMARK INTER + INTRA:          -9.991
REMARK INTER:                  -6.941
REMARK INTRA:                  -3.050
REMARK UNBOUND:                -0.484
REMARK  0 active torsions:
REMARK  status: ('A' for Active; 'I' for Inactive)
REMARK       I    between atoms: C3_3  and  O3_21 
REMARK       I    between atoms: C6_6  and  C7_7 
REMARK       I    between atoms: C8_8  and  C9_9 
REMARK       I    between atoms: C10_10  and  C11_11 
REMARK       I    between atoms: C12_12  and  C13_13 
REMARK       I    between atoms: C14_14  and  C15_15 
REMARK       I    between atoms: C23_25  and  O23_43 
REMARK       I    between atoms: C26_28  and  C27_29 
REMARK       I    between atoms: C28_30  and  C29_31 
REMARK       I    between atoms: C30_32  and  C31_33 
REMARK       I    between atoms: C32_34  and  C33_35 
REMARK       I    between atoms: C34_36  and  C35_37 
ROOT
HETATM    1  C1  STQ I8621     -34.549 127.253   6.061  1.00 22.25    -0.018 C 
HETATM    2  C2  STQ I8621     -34.137 126.573   4.747  1.00 20.45     0.045 C 
HETATM    3  C3  STQ I8621     -32.853 126.993   4.036  1.00 22.17     0.123 C 
HETATM    4  C4  STQ I8621     -31.888 127.861   4.858  1.00 20.30     0.066 C 
HETATM    5  C5  STQ I8621     -32.365 128.589   6.069  1.00 20.75    -0.074 C 
HETATM    6  C6  STQ I8621     -33.587 128.334   6.658  1.00 21.23    -0.048 C 
HETATM    7  C7  STQ I8621     -34.107 129.015   7.865  1.00 18.62     0.009 C 
HETATM    8  C8  STQ I8621     -34.678 130.235   7.874  1.00 19.71     0.007 C 
HETATM    9  C9  STQ I8621     -35.202 130.987   9.018  1.00 18.91    -0.062 C 
HETATM   10  C10 STQ I8621     -35.856 132.141   8.761  1.00 16.97     0.007 C 
HETATM   11  C11 STQ I8621     -36.518 132.967   9.724  1.00 17.11     0.001 C 
HETATM   12  C12 STQ I8621     -37.231 134.047   9.368  1.00 17.32     0.007 C 
HETATM   13  C13 STQ I8621     -38.024 134.911  10.252  1.00 18.45    -0.062 C 
HETATM   14  C14 STQ I8621     -38.713 135.927   9.691  1.00 18.02     0.007 C 
HETATM   15  C15 STQ I8621     -39.592 136.840  10.356  1.00 17.18     0.001 C 
HETATM   16  C16 STQ I8621     -34.678 126.061   7.031  1.00 20.14     0.020 C 
HETATM   17  C17 STQ I8621     -35.968 127.844   5.835  1.00 21.86     0.020 C 
HETATM   18  C18 STQ I8621     -31.313 129.549   6.502  1.00 20.13     0.044 C 
HETATM   19  C19 STQ I8621     -35.051 130.382  10.385  1.00 18.10     0.048 C 
HETATM   20  C20 STQ I8621     -38.053 134.578  11.721  1.00 17.04     0.048 C 
HETATM   21  O3  STQ I8621     -32.180 125.850   3.522  1.00 24.42    -0.395 OA
ATOM     22  H3  STQ I8621     -31.381 126.112   3.080  1.00  0.00     0.210 HD
HETATM   23  C21 STQ I8621     -48.012 146.366  13.117  1.00 21.73    -0.035 C 
HETATM   24  C22 STQ I8621     -48.869 147.316  13.980  1.00 20.45     0.045 C 
HETATM   25  C23 STQ I8621     -48.193 148.609  14.443  1.00 19.75     0.142 C 
HETATM   26  C24 STQ I8621     -46.683 148.488  14.666  1.00 19.93     0.007 C 
HETATM   27  C25 STQ I8621     -45.954 147.422  14.264  1.00 21.71    -0.077 C 
HETATM   28  C26 STQ I8621     -46.516 146.196  13.544  1.00 21.39     0.044 C 
HETATM   29  C27 STQ I8621     -45.600 145.695  12.437  1.00 22.08    -0.016 C 
HETATM   30  C28 STQ I8621     -45.094 144.433  12.377  1.00 23.05     0.003 C 
HETATM   31  C29 STQ I8621     -44.333 143.844  11.264  1.00 22.55    -0.062 C 
HETATM   32  C30 STQ I8621     -43.865 142.583  11.395  1.00 20.56     0.007 C 
HETATM   33  C31 STQ I8621     -43.115 141.849  10.403  1.00 20.09     0.001 C 
HETATM   34  C32 STQ I8621     -42.516 140.666  10.674  1.00 17.50     0.007 C 
HETATM   35  C33 STQ I8621     -41.684 139.828   9.800  1.00 16.61    -0.062 C 
HETATM   36  C34 STQ I8621     -41.095 138.745  10.349  1.00 17.58     0.007 C 
HETATM   37  C35 STQ I8621     -40.192 137.827   9.697  1.00 19.85     0.001 C 
HETATM   38  C36 STQ I8621     -48.111 146.901  11.668  1.00 20.06     0.016 C 
HETATM   39  C37 STQ I8621     -48.708 144.988  13.152  1.00 21.16     0.016 C 
HETATM   40  C38 STQ I8621     -44.510 147.520  14.613  1.00 18.60     0.044 C 
HETATM   41  C39 STQ I8621     -44.062 144.712  10.068  1.00 24.32     0.048 C 
HETATM   42  C40 STQ I8621     -41.470 140.269   8.385  1.00 12.09     0.048 C 
HETATM   43  O23 STQ I8621     -48.835 149.089  15.615  1.00 19.68    -0.392 OA
ATOM     44  H23 STQ I8621     -49.772 149.164  15.477  1.00  0.00     0.210 HD
ENDROOT
TORSDOF 12
