REMARK VINA RESULT:    -6.512      2.049      2.619
REMARK INTER + INTRA:          -9.823
REMARK INTER:                  -9.404
REMARK INTRA:                  -0.419
REMARK UNBOUND:                -3.311
REMARK  0 active torsions:
REMARK  status: ('A' for Active; 'I' for Inactive)
REMARK       I    between atoms: C3_3  and  O3_21 
REMARK       I    between atoms: C6_6  and  C7_7 
REMARK       I    between atoms: C8_8  and  C9_9 
REMARK       I    between atoms: C10_10  and  C11_11 
REMARK       I    between atoms: C12_12  and  C13_13 
REMARK       I    between atoms: C14_14  and  C15_15 
REMARK       I    between atoms: C23_25  and  O23_43 
REMARK       I    between atoms: C26_28  and  C27_29 
REMARK       I    between atoms: C28_30  and  C29_31 
REMARK       I    between atoms: C30_32  and  C31_33 
REMARK       I    between atoms: C32_34  and  C33_35 
REMARK       I    between atoms: C34_36  and  C35_37 
ROOT
HETATM    1  C1  STQ D3621     -34.061 128.212   7.063  1.00 23.41    -0.018 C 
HETATM    2  C2  STQ D3621     -33.249 127.455   5.997  1.00 23.79     0.045 C 
HETATM    3  C3  STQ D3621     -31.965 128.055   5.431  1.00 23.28     0.123 C 
HETATM    4  C4  STQ D3621     -31.340 129.147   6.313  1.00 23.70     0.066 C 
HETATM    5  C5  STQ D3621     -32.156 129.855   7.357  1.00 23.84    -0.074 C 
HETATM    6  C6  STQ D3621     -33.421 129.456   7.743  1.00 22.99    -0.048 C 
HETATM    7  C7  STQ D3621     -34.245 130.132   8.781  1.00 20.55     0.009 C 
HETATM    8  C8  STQ D3621     -34.985 131.243   8.575  1.00 19.35     0.007 C 
HETATM    9  C9  STQ D3621     -35.787 132.030   9.515  1.00 18.45    -0.062 C 
HETATM   10  C10 STQ D3621     -36.538 133.030   9.003  1.00 18.11     0.007 C 
HETATM   11  C11 STQ D3621     -37.462 133.867   9.713  1.00 18.44     0.001 C 
HETATM   12  C12 STQ D3621     -38.229 134.790   9.088  1.00 19.34     0.007 C 
HETATM   13  C13 STQ D3621     -39.273 135.620   9.718  1.00 20.12    -0.062 C 
HETATM   14  C14 STQ D3621     -39.973 136.479   8.939  1.00 19.73     0.007 C 
HETATM   15  C15 STQ D3621     -41.076 137.346   9.345  1.00 19.24     0.001 C 
HETATM   16  C16 STQ D3621     -34.320 127.108   8.093  1.00 23.73     0.020 C 
HETATM   17  C17 STQ D3621     -35.406 128.595   6.431  1.00 23.42     0.020 C 
HETATM   18  C18 STQ D3621     -31.372 130.993   7.901  1.00 22.78     0.044 C 
HETATM   19  C19 STQ D3621     -35.778 131.625  10.956  1.00 16.12     0.048 C 
HETATM   20  C20 STQ D3621     -39.502 135.427  11.192  1.00 17.75     0.048 C 
HETATM   21  O3  STQ D3621     -31.021 127.028   5.163  1.00 21.52    -0.395 OA
ATOM     22  H3  STQ D3621     -30.222 127.401   4.811  1.00  0.00     0.210 HD
HETATM   23  C21 STQ D3621     -50.940 145.885   9.885  1.00 19.77    -0.035 C 
HETATM   24  C22 STQ D3621     -52.062 146.716  10.540  1.00 17.50     0.045 C 
HETATM   25  C23 STQ D3621     -51.684 148.164  10.845  1.00 17.67     0.142 C 
HETATM   26  C24 STQ D3621     -50.233 148.354  11.325  1.00 18.06     0.007 C 
HETATM   27  C25 STQ D3621     -49.297 147.382  11.179  1.00 19.36    -0.077 C 
HETATM   28  C26 STQ D3621     -49.535 146.008  10.555  1.00 19.09     0.044 C 
HETATM   29  C27 STQ D3621     -48.390 145.546   9.646  1.00 18.58    -0.016 C 
HETATM   30  C28 STQ D3621     -47.755 144.348   9.763  1.00 19.42     0.003 C 
HETATM   31  C29 STQ D3621     -46.739 143.778   8.856  1.00 21.21    -0.062 C 
HETATM   32  C30 STQ D3621     -46.180 142.586   9.173  1.00 20.08     0.007 C 
HETATM   33  C31 STQ D3621     -45.166 141.889   8.415  1.00 17.89     0.001 C 
HETATM   34  C32 STQ D3621     -44.499 140.809   8.890  1.00 17.64     0.007 C 
HETATM   35  C33 STQ D3621     -43.407 140.044   8.238  1.00 17.45    -0.062 C 
HETATM   36  C34 STQ D3621     -42.801 139.067   8.955  1.00 15.95     0.007 C 
HETATM   37  C35 STQ D3621     -41.688 138.229   8.533  1.00 18.41     0.001 C 
HETATM   38  C36 STQ D3621     -50.864 146.336   8.392  1.00 20.23     0.016 C 
HETATM   39  C37 STQ D3621     -51.405 144.411   9.928  1.00 15.16     0.016 C 
HETATM   40  C38 STQ D3621     -47.955 147.713  11.703  1.00 16.76     0.044 C 
HETATM   41  C39 STQ D3621     -46.326 144.607   7.669  1.00 22.05     0.048 C 
HETATM   42  C40 STQ D3621     -42.998 140.460   6.848  1.00 11.49     0.048 C 
HETATM   43  O23 STQ D3621     -52.599 148.707  11.780  1.00 18.64    -0.392 OA
ATOM     44  H23 STQ D3621     -53.494 148.589  11.484  1.00  0.00     0.210 HD
ENDROOT
TORSDOF 12
