REMARK VINA RESULT:    -8.652      1.932     16.752
REMARK INTER + INTRA:          -9.212
REMARK INTER:                  -8.732
REMARK INTRA:                  -0.479
REMARK UNBOUND:                -0.560
REMARK  0 active torsions:
REMARK  status: ('A' for Active; 'I' for Inactive)
REMARK       I    between atoms: C3_3  and  O3_21 
REMARK       I    between atoms: C6_6  and  C7_7 
REMARK       I    between atoms: C8_8  and  C9_9 
REMARK       I    between atoms: C10_10  and  C11_11 
REMARK       I    between atoms: C12_12  and  C13_13 
REMARK       I    between atoms: C14_14  and  C15_15 
REMARK       I    between atoms: C23_25  and  O23_43 
REMARK       I    between atoms: C26_28  and  C27_29 
REMARK       I    between atoms: C28_30  and  C29_31 
REMARK       I    between atoms: C30_32  and  C31_33 
REMARK       I    between atoms: C32_34  and  C33_35 
REMARK       I    between atoms: C34_36  and  C35_37 
ROOT
HETATM    1  C1  STQ G1621     -49.039 145.801  13.197  1.00 57.46    -0.018 C 
HETATM    2  C2  STQ G1621     -49.712 145.947  14.554  1.00 54.62     0.045 C 
HETATM    3  C3  STQ G1621     -49.372 147.173  15.405  1.00 54.91     0.123 C 
HETATM    4  C4  STQ G1621     -48.168 147.986  14.951  1.00 56.99     0.066 C 
HETATM    5  C5  STQ G1621     -47.196 147.144  14.172  1.00 60.65    -0.074 C 
HETATM    6  C6  STQ G1621     -47.617 146.310  13.219  1.00 60.28    -0.048 C 
HETATM    7  C7  STQ G1621     -46.724 145.878  12.121  1.00 57.11     0.009 C 
HETATM    8  C8  STQ G1621     -45.835 144.907  12.283  1.00 53.31     0.007 C 
HETATM    9  C9  STQ G1621     -44.988 144.469  11.170  1.00 51.73    -0.062 C 
HETATM   10  C10 STQ G1621     -44.140 143.480  11.427  1.00 51.58     0.007 C 
HETATM   11  C11 STQ G1621     -43.264 142.874  10.447  1.00 50.17     0.001 C 
HETATM   12  C12 STQ G1621     -42.753 141.733  10.874  1.00 45.86     0.007 C 
HETATM   13  C13 STQ G1621     -41.891 140.872  10.066  1.00 47.23    -0.062 C 
HETATM   14  C14 STQ G1621     -41.426 139.755  10.630  1.00 50.33     0.007 C 
HETATM   15  C15 STQ G1621     -40.604 138.832   9.867  1.00 51.13     0.001 C 
HETATM   16  C16 STQ G1621     -49.867 146.490  12.113  1.00 59.48     0.020 C 
HETATM   17  C17 STQ G1621     -48.998 144.322  12.857  1.00 57.14     0.020 C 
HETATM   18  C18 STQ G1621     -46.009 148.029  13.956  1.00 65.36     0.044 C 
HETATM   19  C19 STQ G1621     -45.096 145.085   9.813  1.00 51.90     0.048 C 
HETATM   20  C20 STQ G1621     -41.601 141.216   8.638  1.00 47.72     0.048 C 
HETATM   21  O3  STQ G1621     -50.519 148.025  15.398  1.00 51.54    -0.395 OA
ATOM     22  H3  STQ G1621     -50.308 148.785  15.927  1.00  0.00     0.210 HD
HETATM   23  C21 STQ G1621     -34.273 128.446   6.903  1.00 40.30    -0.035 C 
HETATM   24  C22 STQ G1621     -33.499 127.590   5.927  1.00 42.73     0.045 C 
HETATM   25  C23 STQ G1621     -32.001 127.586   6.161  1.00 45.73     0.142 C 
HETATM   26  C24 STQ G1621     -31.501 128.998   6.268  1.00 49.58     0.007 C 
HETATM   27  C25 STQ G1621     -32.260 129.993   6.748  1.00 43.92    -0.077 C 
HETATM   28  C26 STQ G1621     -33.755 129.890   6.892  1.00 40.16     0.044 C 
HETATM   29  C27 STQ G1621     -34.219 130.604   8.138  1.00 36.17    -0.016 C 
HETATM   30  C28 STQ G1621     -35.187 131.491   8.013  1.00 36.75     0.003 C 
HETATM   31  C29 STQ G1621     -35.750 132.223   9.142  1.00 40.23    -0.062 C 
HETATM   32  C30 STQ G1621     -36.881 132.869   8.880  1.00 39.98     0.007 C 
HETATM   33  C31 STQ G1621     -37.598 133.656   9.856  1.00 42.92     0.001 C 
HETATM   34  C32 STQ G1621     -38.177 134.733   9.355  1.00 46.60     0.007 C 
HETATM   35  C33 STQ G1621     -38.948 135.646  10.196  1.00 46.94    -0.062 C 
HETATM   36  C34 STQ G1621     -39.452 136.751   9.647  1.00 47.30     0.007 C 
HETATM   37  C35 STQ G1621     -40.244 137.688  10.424  1.00 48.75     0.001 C 
HETATM   38  C36 STQ G1621     -34.192 127.819   8.290  1.00 38.79     0.016 C 
HETATM   39  C37 STQ G1621     -35.715 128.396   6.428  1.00 41.68     0.016 C 
HETATM   40  C38 STQ G1621     -31.604 131.272   7.128  1.00 43.23     0.044 C 
HETATM   41  C39 STQ G1621     -35.097 132.215  10.491  1.00 39.26     0.048 C 
HETATM   42  C40 STQ G1621     -39.150 135.320  11.636  1.00 47.22     0.048 C 
HETATM   43  O23 STQ G1621     -31.398 126.967   5.025  1.00 48.27    -0.392 OA
ATOM     44  H23 STQ G1621     -31.714 126.074   4.957  1.00  0.00     0.210 HD
ENDROOT
TORSDOF 12
