REMARK VINA RESULT:    -8.399      1.160     16.848
REMARK INTER + INTRA:         -10.697
REMARK INTER:                  -6.896
REMARK INTRA:                  -3.801
REMARK UNBOUND:                -2.298
REMARK  0 active torsions:
REMARK  status: ('A' for Active; 'I' for Inactive)
REMARK       I    between atoms: C3_3  and  O3_21 
REMARK       I    between atoms: C6_6  and  C7_7 
REMARK       I    between atoms: C8_8  and  C9_9 
REMARK       I    between atoms: C10_10  and  C11_11 
REMARK       I    between atoms: C12_12  and  C13_13 
REMARK       I    between atoms: C14_14  and  C15_15 
REMARK       I    between atoms: C23_25  and  O23_43 
REMARK       I    between atoms: C26_28  and  C27_29 
REMARK       I    between atoms: C28_30  and  C29_31 
REMARK       I    between atoms: C30_32  and  C31_33 
REMARK       I    between atoms: C32_34  and  C33_35 
REMARK       I    between atoms: C34_36  and  C35_37 
ROOT
HETATM    1  C1  STQ 7 622     -34.506 126.921   5.792  1.00 13.75    -0.018 C 
HETATM    2  C2  STQ 7 622     -33.966 126.070   4.652  1.00 13.75     0.045 C 
HETATM    3  C3  STQ 7 622     -32.871 126.748   3.862  1.00 13.75     0.123 C 
HETATM    4  C4  STQ 7 622     -31.762 127.121   4.808  1.00 13.75     0.066 C 
HETATM    5  C5  STQ 7 622     -32.289 128.061   5.851  1.00 13.75    -0.074 C 
HETATM    6  C6  STQ 7 622     -33.527 127.938   6.359  1.00 13.75    -0.048 C 
HETATM    7  C7  STQ 7 622     -34.003 128.734   7.527  1.00 13.75     0.009 C 
HETATM    8  C8  STQ 7 622     -34.419 130.006   7.473  1.00 13.75     0.007 C 
HETATM    9  C9  STQ 7 622     -34.910 130.719   8.669  1.00 13.75    -0.062 C 
HETATM   10  C10 STQ 7 622     -35.617 131.838   8.470  1.00 13.75     0.007 C 
HETATM   11  C11 STQ 7 622     -36.212 132.663   9.517  1.00 13.75     0.001 C 
HETATM   12  C12 STQ 7 622     -37.129 133.519   9.082  1.00 13.75     0.007 C 
HETATM   13  C13 STQ 7 622     -37.915 134.455   9.903  1.00 13.75    -0.062 C 
HETATM   14  C14 STQ 7 622     -38.632 135.389   9.258  1.00 13.75     0.007 C 
HETATM   15  C15 STQ 7 622     -39.483 136.349   9.942  1.00 13.75     0.001 C 
HETATM   16  C16 STQ 7 622     -34.971 125.949   6.866  1.00 13.75     0.020 C 
HETATM   17  C17 STQ 7 622     -35.700 127.702   5.267  1.00 13.75     0.020 C 
HETATM   18  C18 STQ 7 622     -31.231 128.918   6.463  1.00 13.75     0.044 C 
HETATM   19  C19 STQ 7 622     -34.632 130.199  10.046  1.00 13.75     0.048 C 
HETATM   20  C20 STQ 7 622     -37.949 134.345  11.397  1.00 13.75     0.048 C 
HETATM   21  O3  STQ 7 622     -32.361 125.850   2.875  1.00 13.75    -0.395 OA
ATOM     22  H3  STQ 7 622     -33.061 125.615   2.278  1.00  0.00     0.210 HD
HETATM   23  C21 STQ 7 622     -48.347 145.463  11.937  1.00 13.75    -0.035 C 
HETATM   24  C22 STQ 7 622     -49.166 146.071  13.067  1.00 13.75     0.045 C 
HETATM   25  C23 STQ 7 622     -48.449 147.175  13.830  1.00 13.75     0.142 C 
HETATM   26  C24 STQ 7 622     -47.012 146.824  14.118  1.00 13.75     0.007 C 
HETATM   27  C25 STQ 7 622     -46.310 145.964  13.375  1.00 13.75    -0.077 C 
HETATM   28  C26 STQ 7 622     -46.981 144.980  12.449  1.00 13.75     0.044 C 
HETATM   29  C27 STQ 7 622     -46.079 144.599  11.290  1.00 13.75    -0.016 C 
HETATM   30  C28 STQ 7 622     -45.642 143.346  11.246  1.00 13.75     0.003 C 
HETATM   31  C29 STQ 7 622     -44.781 142.807  10.183  1.00 13.75    -0.062 C 
HETATM   32  C30 STQ 7 622     -44.349 141.551  10.347  1.00 13.75     0.007 C 
HETATM   33  C31 STQ 7 622     -43.509 140.829   9.403  1.00 13.75     0.001 C 
HETATM   34  C32 STQ 7 622     -42.795 139.840   9.922  1.00 13.75     0.007 C 
HETATM   35  C33 STQ 7 622     -41.896 138.969   9.150  1.00 13.75    -0.062 C 
HETATM   36  C34 STQ 7 622     -41.176 138.069   9.835  1.00 13.75     0.007 C 
HETATM   37  C35 STQ 7 622     -40.274 137.120   9.200  1.00 13.75     0.001 C 
HETATM   38  C36 STQ 7 622     -48.214 146.455  10.786  1.00 13.75     0.016 C 
HETATM   39  C37 STQ 7 622     -49.135 144.271  11.409  1.00 13.75     0.016 C 
HETATM   40  C38 STQ 7 622     -44.819 145.993  13.514  1.00 13.75     0.044 C 
HETATM   41  C39 STQ 7 622     -44.426 143.616   8.976  1.00 13.75     0.048 C 
HETATM   42  C40 STQ 7 622     -41.804 139.075   7.659  1.00 13.75     0.048 C 
HETATM   43  O23 STQ 7 622     -49.110 147.404  15.078  1.00 13.75    -0.392 OA
ATOM     44  H23 STQ 7 622     -48.662 148.094  15.554  1.00  0.00     0.210 HD
ENDROOT
TORSDOF 12
