REMARK VINA RESULT:   -10.761      1.992     16.861
REMARK INTER + INTRA:         -11.175
REMARK INTER:                 -11.052
REMARK INTRA:                  -0.123
REMARK UNBOUND:                -0.414
REMARK  0 active torsions:
REMARK  status: ('A' for Active; 'I' for Inactive)
REMARK       I    between atoms: C3_3  and  O3_21 
REMARK       I    between atoms: C6_6  and  C7_7 
REMARK       I    between atoms: C8_8  and  C9_9 
REMARK       I    between atoms: C10_10  and  C11_11 
REMARK       I    between atoms: C12_12  and  C13_13 
REMARK       I    between atoms: C14_14  and  C15_15 
REMARK       I    between atoms: C23_25  and  O23_43 
REMARK       I    between atoms: C26_28  and  C27_29 
REMARK       I    between atoms: C28_30  and  C29_31 
REMARK       I    between atoms: C30_32  and  C31_33 
REMARK       I    between atoms: C32_34  and  C33_35 
REMARK       I    between atoms: C34_36  and  C35_37 
ROOT
HETATM    1  C1  STQ 8 617     -49.756 145.339  13.149  1.00 16.39    -0.018 C 
HETATM    2  C2  STQ 8 617     -50.541 145.561  14.434  1.00 16.39     0.045 C 
HETATM    3  C3  STQ 8 617     -49.896 146.376  15.545  1.00 16.39     0.123 C 
HETATM    4  C4  STQ 8 617     -48.945 147.422  15.011  1.00 16.39     0.066 C 
HETATM    5  C5  STQ 8 617     -47.946 146.751  14.121  1.00 16.39    -0.074 C 
HETATM    6  C6  STQ 8 617     -48.347 145.906  13.170  1.00 16.39    -0.048 C 
HETATM    7  C7  STQ 8 617     -47.413 145.545  12.080  1.00 16.39     0.009 C 
HETATM    8  C8  STQ 8 617     -46.568 144.515  12.159  1.00 16.39     0.007 C 
HETATM    9  C9  STQ 8 617     -45.659 144.205  11.048  1.00 16.39    -0.062 C 
HETATM   10  C10 STQ 8 617     -44.807 143.173  11.199  1.00 16.39     0.007 C 
HETATM   11  C11 STQ 8 617     -43.822 142.684  10.236  1.00 16.39     0.001 C 
HETATM   12  C12 STQ 8 617     -43.143 141.604  10.607  1.00 16.39     0.007 C 
HETATM   13  C13 STQ 8 617     -42.135 140.893   9.798  1.00 16.39    -0.062 C 
HETATM   14  C14 STQ 8 617     -41.661 139.748  10.294  1.00 16.39     0.007 C 
HETATM   15  C15 STQ 8 617     -40.714 138.921   9.566  1.00 16.39     0.001 C 
HETATM   16  C16 STQ 8 617     -50.587 145.920  12.013  1.00 16.39     0.020 C 
HETATM   17  C17 STQ 8 617     -49.621 143.839  12.933  1.00 16.39     0.020 C 
HETATM   18  C18 STQ 8 617     -46.708 147.584  13.970  1.00 16.39     0.044 C 
HETATM   19  C19 STQ 8 617     -45.723 145.057   9.823  1.00 16.39     0.048 C 
HETATM   20  C20 STQ 8 617     -41.681 141.387   8.461  1.00 16.39     0.048 C 
HETATM   21  O3  STQ 8 617     -50.925 147.030  16.290  1.00 16.39    -0.395 OA
ATOM     22  H3  STQ 8 617     -50.522 147.539  16.983  1.00  0.00     0.210 HD
HETATM   23  C21 STQ 8 617     -34.260 128.179   6.963  1.00 16.39    -0.035 C 
HETATM   24  C22 STQ 8 617     -33.525 127.496   5.820  1.00 16.39     0.045 C 
HETATM   25  C23 STQ 8 617     -32.016 127.664   5.857  1.00 16.39     0.142 C 
HETATM   26  C24 STQ 8 617     -31.627 129.086   6.178  1.00 16.39     0.007 C 
HETATM   27  C25 STQ 8 617     -32.392 129.884   6.931  1.00 16.39    -0.077 C 
HETATM   28  C26 STQ 8 617     -33.878 129.662   7.045  1.00 16.39     0.044 C 
HETATM   29  C27 STQ 8 617     -34.447 130.289   8.300  1.00 16.39    -0.016 C 
HETATM   30  C28 STQ 8 617     -35.288 131.299   8.116  1.00 16.39     0.003 C 
HETATM   31  C29 STQ 8 617     -35.966 132.021   9.198  1.00 16.39    -0.062 C 
HETATM   32  C30 STQ 8 617     -36.853 132.931   8.810  1.00 16.39     0.007 C 
HETATM   33  C31 STQ 8 617     -37.658 133.737   9.708  1.00 16.39     0.001 C 
HETATM   34  C32 STQ 8 617     -38.194 134.828   9.185  1.00 16.39     0.007 C 
HETATM   35  C33 STQ 8 617     -39.053 135.720   9.968  1.00 16.39    -0.062 C 
HETATM   36  C34 STQ 8 617     -39.488 136.848   9.400  1.00 16.39     0.007 C 
HETATM   37  C35 STQ 8 617     -40.380 137.755  10.103  1.00 16.39     0.001 C 
HETATM   38  C36 STQ 8 617     -33.990 127.448   8.275  1.00 16.39     0.016 C 
HETATM   39  C37 STQ 8 617     -35.750 128.055   6.667  1.00 16.39     0.016 C 
HETATM   40  C38 STQ 8 617     -31.730 131.021   7.648  1.00 16.39     0.044 C 
HETATM   41  C39 STQ 8 617     -35.702 131.748  10.649  1.00 16.39     0.048 C 
HETATM   42  C40 STQ 8 617     -39.415 135.345  11.371  1.00 16.39     0.048 C 
HETATM   43  O23 STQ 8 617     -31.494 127.332   4.567  1.00 16.39    -0.392 OA
ATOM     44  H23 STQ 8 617     -30.550 127.436   4.591  1.00  0.00     0.210 HD
ENDROOT
TORSDOF 12
