REMARK VINA RESULT:    -7.974      0.000      0.000
REMARK INTER + INTRA:         -10.462
REMARK INTER:                  -7.974
REMARK INTRA:                  -2.488
REMARK UNBOUND:                -2.488
REMARK  0 active torsions:
REMARK  status: ('A' for Active; 'I' for Inactive)
REMARK       I    between atoms: C3_3  and  O3_21 
REMARK       I    between atoms: C6_6  and  C7_7 
REMARK       I    between atoms: C8_8  and  C9_9 
REMARK       I    between atoms: C10_10  and  C11_11 
REMARK       I    between atoms: C12_12  and  C13_13 
REMARK       I    between atoms: C14_14  and  C15_15 
REMARK       I    between atoms: C23_25  and  O23_43 
REMARK       I    between atoms: C26_28  and  C27_29 
REMARK       I    between atoms: C28_30  and  C29_31 
REMARK       I    between atoms: C30_32  and  C31_33 
REMARK       I    between atoms: C32_34  and  C33_35 
REMARK       I    between atoms: C34_36  and  C35_37 
ROOT
HETATM    1  C1  STQ D3620     -34.595 127.025   6.117  1.00 21.49    -0.018 C 
HETATM    2  C2  STQ D3620     -34.128 126.380   4.794  1.00 21.50     0.045 C 
HETATM    3  C3  STQ D3620     -32.877 126.917   4.090  1.00 22.37     0.123 C 
HETATM    4  C4  STQ D3620     -31.970 127.800   4.951  1.00 21.17     0.066 C 
HETATM    5  C5  STQ D3620     -32.553 128.553   6.102  1.00 19.70    -0.074 C 
HETATM    6  C6  STQ D3620     -33.770 128.222   6.667  1.00 20.41    -0.048 C 
HETATM    7  C7  STQ D3620     -34.340 128.971   7.805  1.00 19.41     0.009 C 
HETATM    8  C8  STQ D3620     -34.963 130.157   7.777  1.00 18.90     0.007 C 
HETATM    9  C9  STQ D3620     -35.398 130.960   8.924  1.00 20.60    -0.062 C 
HETATM   10  C10 STQ D3620     -36.107 132.080   8.667  1.00 18.78     0.007 C 
HETATM   11  C11 STQ D3620     -36.639 132.997   9.629  1.00 19.97     0.001 C 
HETATM   12  C12 STQ D3620     -37.473 133.967   9.219  1.00 23.02     0.007 C 
HETATM   13  C13 STQ D3620     -38.160 134.984  10.017  1.00 23.57    -0.062 C 
HETATM   14  C14 STQ D3620     -39.038 135.786   9.377  1.00 23.43     0.007 C 
HETATM   15  C15 STQ D3620     -39.884 136.794   9.950  1.00 24.57     0.001 C 
HETATM   16  C16 STQ D3620     -34.538 125.853   7.116  1.00 19.84     0.020 C 
HETATM   17  C17 STQ D3620     -36.079 127.435   5.932  1.00 19.63     0.020 C 
HETATM   18  C18 STQ D3620     -31.595 129.633   6.459  1.00 19.29     0.044 C 
HETATM   19  C19 STQ D3620     -35.070 130.461  10.313  1.00 18.57     0.048 C 
HETATM   20  C20 STQ D3620     -37.895 135.016  11.490  1.00 22.43     0.048 C 
HETATM   21  O3  STQ D3620     -32.128 125.850   3.533  1.00 22.38    -0.395 OA
ATOM     22  H3  STQ D3620     -31.352 126.183   3.097  1.00  0.00     0.210 HD
HETATM   23  C21 STQ D3620     -49.683 144.589  12.617  1.00 34.58    -0.035 C 
HETATM   24  C22 STQ D3620     -50.550 145.487  13.530  1.00 34.81     0.045 C 
HETATM   25  C23 STQ D3620     -50.358 146.995  13.336  1.00 35.13     0.142 C 
HETATM   26  C24 STQ D3620     -48.894 147.375  13.091  1.00 35.28     0.007 C 
HETATM   27  C25 STQ D3620     -47.938 146.489  12.730  1.00 35.11    -0.077 C 
HETATM   28  C26 STQ D3620     -48.172 144.994  12.527  1.00 34.37     0.044 C 
HETATM   29  C27 STQ D3620     -47.428 144.478  11.300  1.00 33.36    -0.016 C 
HETATM   30  C28 STQ D3620     -46.498 143.488  11.345  1.00 31.26     0.003 C 
HETATM   31  C29 STQ D3620     -45.910 142.746  10.213  1.00 31.15    -0.062 C 
HETATM   32  C30 STQ D3620     -44.983 141.802  10.481  1.00 29.00     0.007 C 
HETATM   33  C31 STQ D3620     -44.303 140.980   9.528  1.00 26.88     0.001 C 
HETATM   34  C32 STQ D3620     -43.366 140.110   9.918  1.00 27.02     0.007 C 
HETATM   35  C33 STQ D3620     -42.546 139.206   9.104  1.00 27.13    -0.062 C 
HETATM   36  C34 STQ D3620     -41.641 138.434   9.747  1.00 25.88     0.007 C 
HETATM   37  C35 STQ D3620     -40.736 137.477   9.178  1.00 25.96     0.001 C 
HETATM   38  C36 STQ D3620     -50.330 144.589  11.205  1.00 33.56     0.016 C 
HETATM   39  C37 STQ D3620     -49.793 143.160  13.164  1.00 32.85     0.016 C 
HETATM   40  C38 STQ D3620     -46.580 147.095  12.568  1.00 34.58     0.044 C 
HETATM   41  C39 STQ D3620     -46.366 143.098   8.826  1.00 30.08     0.048 C 
HETATM   42  C40 STQ D3620     -42.761 139.209   7.618  1.00 24.80     0.048 C 
HETATM   43  O23 STQ D3620     -50.882 147.705  14.452  1.00 36.44    -0.392 OA
ATOM     44  H23 STQ D3620     -50.763 148.640  14.332  1.00  0.00     0.210 HD
ENDROOT
TORSDOF 12
