REMARK VINA RESULT:    -7.125      1.757     16.924
REMARK INTER + INTRA:         -11.182
REMARK INTER:                 -10.761
REMARK INTRA:                  -0.421
REMARK UNBOUND:                -4.057
REMARK  0 active torsions:
REMARK  status: ('A' for Active; 'I' for Inactive)
REMARK       I    between atoms: C3_3  and  O3_21 
REMARK       I    between atoms: C6_6  and  C7_7 
REMARK       I    between atoms: C8_8  and  C9_9 
REMARK       I    between atoms: C10_10  and  C11_11 
REMARK       I    between atoms: C12_12  and  C13_13 
REMARK       I    between atoms: C14_14  and  C15_15 
REMARK       I    between atoms: C23_25  and  O23_43 
REMARK       I    between atoms: C26_28  and  C27_29 
REMARK       I    between atoms: C28_30  and  C29_31 
REMARK       I    between atoms: C30_32  and  C31_33 
REMARK       I    between atoms: C32_34  and  C33_35 
REMARK       I    between atoms: C34_36  and  C35_37 
ROOT
HETATM    1  C1  STQ 1 618     -49.030 145.807  13.016  1.00 19.63    -0.018 C 
HETATM    2  C2  STQ 1 618     -50.004 146.047  14.167  1.00 19.63     0.045 C 
HETATM    3  C3  STQ 1 618     -49.445 146.681  15.432  1.00 19.63     0.123 C 
HETATM    4  C4  STQ 1 618     -48.412 147.729  15.081  1.00 19.63     0.066 C 
HETATM    5  C5  STQ 1 618     -47.320 147.016  14.345  1.00 19.63    -0.074 C 
HETATM    6  C6  STQ 1 618     -47.612 146.295  13.259  1.00 19.63    -0.048 C 
HETATM    7  C7  STQ 1 618     -46.586 145.975  12.234  1.00 19.63     0.009 C 
HETATM    8  C8  STQ 1 618     -45.697 144.993  12.394  1.00 19.63     0.007 C 
HETATM    9  C9  STQ 1 618     -44.695 144.662  11.363  1.00 19.63    -0.062 C 
HETATM   10  C10 STQ 1 618     -44.087 143.475  11.439  1.00 19.63     0.007 C 
HETATM   11  C11 STQ 1 618     -43.095 142.995  10.481  1.00 19.63     0.001 C 
HETATM   12  C12 STQ 1 618     -42.719 141.736  10.664  1.00 19.63     0.007 C 
HETATM   13  C13 STQ 1 618     -41.763 140.969   9.850  1.00 19.63    -0.062 C 
HETATM   14  C14 STQ 1 618     -41.483 139.730  10.274  1.00 19.63     0.007 C 
HETATM   15  C15 STQ 1 618     -40.594 138.818   9.568  1.00 19.63     0.001 C 
HETATM   16  C16 STQ 1 618     -49.627 146.458  11.774  1.00 19.63     0.020 C 
HETATM   17  C17 STQ 1 618     -48.949 144.310  12.785  1.00 19.63     0.020 C 
HETATM   18  C18 STQ 1 618     -46.134 147.926  14.417  1.00 19.63     0.044 C 
HETATM   19  C19 STQ 1 618     -44.368 145.625  10.263  1.00 19.63     0.048 C 
HETATM   20  C20 STQ 1 618     -41.152 141.535   8.605  1.00 19.63     0.048 C 
HETATM   21  O3  STQ 1 618     -50.517 147.300  16.146  1.00 19.63    -0.395 OA
ATOM     22  H3  STQ 1 618     -51.166 146.642  16.367  1.00  0.00     0.210 HD
HETATM   23  C21 STQ 1 618     -34.147 127.956   6.870  1.00 19.63    -0.035 C 
HETATM   24  C22 STQ 1 618     -33.307 127.314   5.771  1.00 19.63     0.045 C 
HETATM   25  C23 STQ 1 618     -31.858 127.780   5.754  1.00 19.63     0.142 C 
HETATM   26  C24 STQ 1 618     -31.775 129.276   5.852  1.00 19.63     0.007 C 
HETATM   27  C25 STQ 1 618     -32.642 129.978   6.579  1.00 19.63    -0.077 C 
HETATM   28  C26 STQ 1 618     -34.047 129.488   6.824  1.00 19.63     0.044 C 
HETATM   29  C27 STQ 1 618     -34.622 130.126   8.074  1.00 19.63    -0.016 C 
HETATM   30  C28 STQ 1 618     -35.633 130.969   7.908  1.00 19.63     0.003 C 
HETATM   31  C29 STQ 1 618     -36.303 131.680   9.007  1.00 19.63    -0.062 C 
HETATM   32  C30 STQ 1 618     -37.271 132.538   8.669  1.00 19.63     0.007 C 
HETATM   33  C31 STQ 1 618     -38.044 133.329   9.617  1.00 19.63     0.001 C 
HETATM   34  C32 STQ 1 618     -38.412 134.532   9.195  1.00 19.63     0.007 C 
HETATM   35  C33 STQ 1 618     -39.209 135.482   9.984  1.00 19.63    -0.062 C 
HETATM   36  C34 STQ 1 618     -39.615 136.605   9.382  1.00 19.63     0.007 C 
HETATM   37  C35 STQ 1 618     -40.442 137.594  10.060  1.00 19.63     0.001 C 
HETATM   38  C36 STQ 1 618     -33.732 127.401   8.224  1.00 19.63     0.016 C 
HETATM   39  C37 STQ 1 618     -35.594 127.547   6.640  1.00 19.63     0.016 C 
HETATM   40  C38 STQ 1 618     -32.178 131.291   7.132  1.00 19.63     0.044 C 
HETATM   41  C39 STQ 1 618     -35.911 131.461  10.436  1.00 19.63     0.048 C 
HETATM   42  C40 STQ 1 618     -39.544 135.205  11.414  1.00 19.63     0.048 C 
HETATM   43  O23 STQ 1 618     -31.224 127.370   4.539  1.00 19.63    -0.392 OA
ATOM     44  H23 STQ 1 618     -30.320 127.660   4.528  1.00  0.00     0.210 HD
ENDROOT
TORSDOF 12
