REMARK VINA RESULT:    -7.087      0.000      0.000
REMARK INTER + INTRA:         -10.069
REMARK INTER:                  -7.087
REMARK INTRA:                  -2.982
REMARK UNBOUND:                -2.982
REMARK  0 active torsions:
REMARK  status: ('A' for Active; 'I' for Inactive)
REMARK       I    between atoms: C3_3  and  O3_21 
REMARK       I    between atoms: C6_6  and  C7_7 
REMARK       I    between atoms: C8_8  and  C9_9 
REMARK       I    between atoms: C10_10  and  C11_11 
REMARK       I    between atoms: C12_12  and  C13_13 
REMARK       I    between atoms: C14_14  and  C15_15 
REMARK       I    between atoms: C23_25  and  O23_43 
REMARK       I    between atoms: C26_28  and  C27_29 
REMARK       I    between atoms: C28_30  and  C29_31 
REMARK       I    between atoms: C30_32  and  C31_33 
REMARK       I    between atoms: C32_34  and  C33_35 
REMARK       I    between atoms: C34_36  and  C35_37 
ROOT
HETATM    1  C1  STQ 1 619     -34.444 128.251   6.600  1.00 34.54    -0.018 C 
HETATM    2  C2  STQ 1 619     -33.526 128.068   5.391  1.00 34.54     0.045 C 
HETATM    3  C3  STQ 1 619     -32.100 128.613   5.460  1.00 34.54     0.123 C 
HETATM    4  C4  STQ 1 619     -31.604 128.834   6.880  1.00 34.54     0.066 C 
HETATM    5  C5  STQ 1 619     -32.637 129.630   7.624  1.00 34.54    -0.074 C 
HETATM    6  C6  STQ 1 619     -33.919 129.249   7.619  1.00 34.54    -0.048 C 
HETATM    7  C7  STQ 1 619     -34.834 129.802   8.644  1.00 34.54     0.009 C 
HETATM    8  C8  STQ 1 619     -35.482 130.941   8.412  1.00 34.54     0.007 C 
HETATM    9  C9  STQ 1 619     -36.399 131.578   9.370  1.00 34.54    -0.062 C 
HETATM   10  C10 STQ 1 619     -36.775 132.814   9.049  1.00 34.54     0.007 C 
HETATM   11  C11 STQ 1 619     -37.657 133.667   9.826  1.00 34.54     0.001 C 
HETATM   12  C12 STQ 1 619     -37.867 134.847   9.259  1.00 34.54     0.007 C 
HETATM   13  C13 STQ 1 619     -38.707 135.893   9.848  1.00 34.54    -0.062 C 
HETATM   14  C14 STQ 1 619     -39.076 136.913   9.064  1.00 34.54     0.007 C 
HETATM   15  C15 STQ 1 619     -39.897 137.993   9.585  1.00 34.54     0.001 C 
HETATM   16  C16 STQ 1 619     -34.671 126.873   7.218  1.00 34.54     0.020 C 
HETATM   17  C17 STQ 1 619     -35.794 128.759   6.112  1.00 34.54     0.020 C 
HETATM   18  C18 STQ 1 619     -32.013 130.286   8.822  1.00 34.54     0.044 C 
HETATM   19  C19 STQ 1 619     -36.873 130.898  10.618  1.00 34.54     0.048 C 
HETATM   20  C20 STQ 1 619     -39.117 135.821  11.288  1.00 34.54     0.048 C 
HETATM   21  O3  STQ 1 619     -31.225 127.688   4.805  1.00 34.54    -0.395 OA
ATOM     22  H3  STQ 1 619     -31.536 127.550   3.918  1.00  0.00     0.210 HD
HETATM   23  C21 STQ 1 619     -49.057 146.998  10.217  1.00 34.54    -0.035 C 
HETATM   24  C22 STQ 1 619     -49.728 148.318  10.575  1.00 34.54     0.045 C 
HETATM   25  C23 STQ 1 619     -49.366 149.422   9.595  1.00 34.54     0.142 C 
HETATM   26  C24 STQ 1 619     -47.866 149.552   9.530  1.00 34.54     0.007 C 
HETATM   27  C25 STQ 1 619     -47.051 148.497   9.675  1.00 34.54    -0.077 C 
HETATM   28  C26 STQ 1 619     -47.531 147.140  10.135  1.00 34.54     0.044 C 
HETATM   29  C27 STQ 1 619     -46.913 146.078   9.247  1.00 34.54    -0.016 C 
HETATM   30  C28 STQ 1 619     -46.179 145.109   9.784  1.00 34.54     0.003 C 
HETATM   31  C29 STQ 1 619     -45.566 144.074   8.932  1.00 34.54    -0.062 C 
HETATM   32  C30 STQ 1 619     -44.566 143.347   9.444  1.00 34.54     0.007 C 
HETATM   33  C31 STQ 1 619     -43.888 142.307   8.681  1.00 34.54     0.001 C 
HETATM   34  C32 STQ 1 619     -42.846 141.724   9.260  1.00 34.54     0.007 C 
HETATM   35  C33 STQ 1 619     -42.079 140.660   8.595  1.00 34.54    -0.062 C 
HETATM   36  C34 STQ 1 619     -41.207 139.967   9.331  1.00 34.54     0.007 C 
HETATM   37  C35 STQ 1 619     -40.400 138.902   8.760  1.00 34.54     0.001 C 
HETATM   38  C36 STQ 1 619     -49.662 146.481   8.912  1.00 34.54     0.016 C 
HETATM   39  C37 STQ 1 619     -49.374 146.002  11.325  1.00 34.54     0.016 C 
HETATM   40  C38 STQ 1 619     -45.593 148.683   9.375  1.00 34.54     0.044 C 
HETATM   41  C39 STQ 1 619     -46.047 143.849   7.529  1.00 34.54     0.048 C 
HETATM   42  C40 STQ 1 619     -42.272 140.367   7.136  1.00 34.54     0.048 C 
HETATM   43  O23 STQ 1 619     -49.928 150.662  10.042  1.00 34.54    -0.392 OA
ATOM     44  H23 STQ 1 619     -49.702 151.353   9.429  1.00  0.00     0.210 HD
ENDROOT
TORSDOF 12
