REMARK VINA RESULT:    -9.433      2.204      2.806
REMARK INTER + INTRA:         -10.552
REMARK INTER:                  -7.351
REMARK INTRA:                  -3.201
REMARK UNBOUND:                -1.119
REMARK  0 active torsions:
REMARK  status: ('A' for Active; 'I' for Inactive)
REMARK       I    between atoms: C3_3  and  O3_21 
REMARK       I    between atoms: C6_6  and  C7_7 
REMARK       I    between atoms: C8_8  and  C9_9 
REMARK       I    between atoms: C10_10  and  C11_11 
REMARK       I    between atoms: C12_12  and  C13_13 
REMARK       I    between atoms: C14_14  and  C15_15 
REMARK       I    between atoms: C23_25  and  O23_43 
REMARK       I    between atoms: C26_28  and  C27_29 
REMARK       I    between atoms: C28_30  and  C29_31 
REMARK       I    between atoms: C30_32  and  C31_33 
REMARK       I    between atoms: C32_34  and  C33_35 
REMARK       I    between atoms: C34_36  and  C35_37 
ROOT
HETATM    1  C1  STQ 11621     -34.673 127.730   5.832  1.00 87.69    -0.018 C 
HETATM    2  C2  STQ 11621     -34.121 127.482   4.441  1.00 87.69     0.045 C 
HETATM    3  C3  STQ 11621     -32.612 127.297   4.328  1.00 87.69     0.123 C 
HETATM    4  C4  STQ 11621     -31.788 128.027   5.379  1.00 87.69     0.066 C 
HETATM    5  C5  STQ 11621     -32.591 128.997   6.206  1.00 87.69    -0.074 C 
HETATM    6  C6  STQ 11621     -33.832 128.715   6.596  1.00 87.69    -0.048 C 
HETATM    7  C7  STQ 11621     -34.406 129.333   7.813  1.00 87.69     0.009 C 
HETATM    8  C8  STQ 11621     -34.925 130.556   7.777  1.00 87.69     0.007 C 
HETATM    9  C9  STQ 11621     -35.523 131.196   8.959  1.00 87.69    -0.062 C 
HETATM   10  C10 STQ 11621     -36.288 132.260   8.736  1.00 87.69     0.007 C 
HETATM   11  C11 STQ 11621     -36.993 133.036   9.745  1.00 87.69     0.001 C 
HETATM   12  C12 STQ 11621     -37.488 134.194   9.324  1.00 87.69     0.007 C 
HETATM   13  C13 STQ 11621     -38.271 135.089  10.188  1.00 87.69    -0.062 C 
HETATM   14  C14 STQ 11621     -38.816 136.175   9.634  1.00 87.69     0.007 C 
HETATM   15  C15 STQ 11621     -39.650 137.082  10.405  1.00 87.69     0.001 C 
HETATM   16  C16 STQ 11621     -34.826 126.418   6.597  1.00 87.69     0.020 C 
HETATM   17  C17 STQ 11621     -36.047 128.340   5.664  1.00 87.69     0.020 C 
HETATM   18  C18 STQ 11621     -31.569 129.506   7.174  1.00 87.69     0.044 C 
HETATM   19  C19 STQ 11621     -35.278 130.677  10.339  1.00 87.69     0.048 C 
HETATM   20  C20 STQ 11621     -38.479 134.777  11.636  1.00 87.69     0.048 C 
HETATM   21  O3  STQ 11621     -32.348 125.900   4.449  1.00 87.69    -0.395 OA
ATOM     22  H3  STQ 11621     -31.407 125.785   4.378  1.00  0.00     0.210 HD
HETATM   23  C21 STQ 11621     -47.780 146.556  12.841  1.00 87.69    -0.035 C 
HETATM   24  C22 STQ 11621     -48.696 147.354  13.748  1.00 87.69     0.045 C 
HETATM   25  C23 STQ 11621     -48.025 148.595  14.293  1.00 87.69     0.142 C 
HETATM   26  C24 STQ 11621     -46.746 148.187  14.972  1.00 87.69     0.007 C 
HETATM   27  C25 STQ 11621     -45.971 147.216  14.474  1.00 87.69    -0.077 C 
HETATM   28  C26 STQ 11621     -46.496 146.144  13.562  1.00 87.69     0.044 C 
HETATM   29  C27 STQ 11621     -45.439 145.754  12.555  1.00 87.69    -0.016 C 
HETATM   30  C28 STQ 11621     -45.052 144.491  12.503  1.00 87.69     0.003 C 
HETATM   31  C29 STQ 11621     -44.053 144.030  11.534  1.00 87.69    -0.062 C 
HETATM   32  C30 STQ 11621     -43.924 142.715  11.399  1.00 87.69     0.007 C 
HETATM   33  C31 STQ 11621     -43.007 142.073  10.476  1.00 87.69     0.001 C 
HETATM   34  C32 STQ 11621     -42.449 140.955  10.909  1.00 87.69     0.007 C 
HETATM   35  C33 STQ 11621     -41.529 140.168  10.088  1.00 87.69    -0.062 C 
HETATM   36  C34 STQ 11621     -41.058 139.016  10.576  1.00 87.69     0.007 C 
HETATM   37  C35 STQ 11621     -40.179 138.144   9.812  1.00 87.69     0.001 C 
HETATM   38  C36 STQ 11621     -47.492 147.366  11.589  1.00 87.69     0.016 C 
HETATM   39  C37 STQ 11621     -48.552 145.326  12.402  1.00 87.69     0.016 C 
HETATM   40  C38 STQ 11621     -44.527 147.197  14.860  1.00 87.69     0.044 C 
HETATM   41  C39 STQ 11621     -43.237 144.991  10.734  1.00 87.69     0.048 C 
HETATM   42  C40 STQ 11621     -41.161 140.656   8.731  1.00 87.69     0.048 C 
HETATM   43  O23 STQ 11621     -48.915 149.200  15.234  1.00 87.69    -0.392 OA
ATOM     44  H23 STQ 11621     -48.494 149.980  15.575  1.00  0.00     0.210 HD
ENDROOT
TORSDOF 12
