REMARK VINA RESULT:    -3.472      1.686     16.909
REMARK INTER + INTRA:          -7.838
REMARK INTER:                  -5.657
REMARK INTRA:                  -2.181
REMARK UNBOUND:                -4.366
REMARK  0 active torsions:
REMARK  status: ('A' for Active; 'I' for Inactive)
REMARK       I    between atoms: C3_3  and  O3_21 
REMARK       I    between atoms: C6_6  and  C7_7 
REMARK       I    between atoms: C8_8  and  C9_9 
REMARK       I    between atoms: C10_10  and  C11_11 
REMARK       I    between atoms: C12_12  and  C13_13 
REMARK       I    between atoms: C14_14  and  C15_15 
REMARK       I    between atoms: C23_25  and  O23_43 
REMARK       I    between atoms: C26_28  and  C27_29 
REMARK       I    between atoms: C28_30  and  C29_31 
REMARK       I    between atoms: C30_32  and  C31_33 
REMARK       I    between atoms: C32_34  and  C33_35 
REMARK       I    between atoms: C34_36  and  C35_37 
ROOT
HETATM    1  C1  STQ 8 618     -48.070 147.189  10.447  1.00 13.13    -0.018 C 
HETATM    2  C2  STQ 8 618     -49.467 147.741  10.689  1.00 13.13     0.045 C 
HETATM    3  C3  STQ 8 618     -50.008 147.524  12.083  1.00 13.13     0.123 C 
HETATM    4  C4  STQ 8 618     -49.011 148.027  13.096  1.00 13.13     0.066 C 
HETATM    5  C5  STQ 8 618     -47.670 147.375  12.904  1.00 13.13    -0.074 C 
HETATM    6  C6  STQ 8 618     -47.197 147.059  11.687  1.00 13.13    -0.048 C 
HETATM    7  C7  STQ 8 618     -45.786 146.626  11.480  1.00 13.13     0.009 C 
HETATM    8  C8  STQ 8 618     -45.329 145.383  11.687  1.00 13.13     0.007 C 
HETATM    9  C9  STQ 8 618     -43.924 145.006  11.447  1.00 13.13    -0.062 C 
HETATM   10  C10 STQ 8 618     -43.661 143.710  11.267  1.00 13.13     0.007 C 
HETATM   11  C11 STQ 8 618     -42.342 143.155  10.993  1.00 13.13     0.001 C 
HETATM   12  C12 STQ 8 618     -42.384 141.900  10.573  1.00 13.13     0.007 C 
HETATM   13  C13 STQ 8 618     -41.258 141.040  10.180  1.00 13.13    -0.062 C 
HETATM   14  C14 STQ 8 618     -41.494 139.728  10.036  1.00 13.13     0.007 C 
HETATM   15  C15 STQ 8 618     -40.452 138.808   9.612  1.00 13.13     0.001 C 
HETATM   16  C16 STQ 8 618     -47.439 148.124   9.430  1.00 13.13     0.020 C 
HETATM   17  C17 STQ 8 618     -48.204 145.793   9.859  1.00 13.13     0.020 C 
HETATM   18  C18 STQ 8 618     -46.802 147.439  14.122  1.00 13.13     0.044 C 
HETATM   19  C19 STQ 8 618     -42.834 146.032  11.407  1.00 13.13     0.048 C 
HETATM   20  C20 STQ 8 618     -39.902 141.606   9.909  1.00 13.13     0.048 C 
HETATM   21  O3  STQ 8 618     -51.211 148.282  12.222  1.00 13.13    -0.395 OA
ATOM     22  H3  STQ 8 618     -51.839 147.965  11.584  1.00  0.00     0.210 HD
HETATM   23  C21 STQ 8 618     -34.600 127.954   5.864  1.00 13.13    -0.035 C 
HETATM   24  C22 STQ 8 618     -33.280 127.394   5.360  1.00 13.13     0.045 C 
HETATM   25  C23 STQ 8 618     -32.245 127.155   6.437  1.00 13.13     0.142 C 
HETATM   26  C24 STQ 8 618     -32.131 128.354   7.330  1.00 13.13     0.007 C 
HETATM   27  C25 STQ 8 618     -33.192 129.104   7.632  1.00 13.13    -0.077 C 
HETATM   28  C26 STQ 8 618     -34.379 129.210   6.716  1.00 13.13     0.044 C 
HETATM   29  C27 STQ 8 618     -35.632 129.568   7.487  1.00 13.13    -0.016 C 
HETATM   30  C28 STQ 8 618     -36.177 130.743   7.210  1.00 13.13     0.003 C 
HETATM   31  C29 STQ 8 618     -37.396 131.241   7.856  1.00 13.13    -0.062 C 
HETATM   32  C30 STQ 8 618     -37.669 132.535   7.688  1.00 13.13     0.007 C 
HETATM   33  C31 STQ 8 618     -38.832 133.216   8.232  1.00 13.13     0.001 C 
HETATM   34  C32 STQ 8 618     -38.689 134.507   8.495  1.00 13.13     0.007 C 
HETATM   35  C33 STQ 8 618     -39.798 135.309   9.022  1.00 13.13    -0.062 C 
HETATM   36  C34 STQ 8 618     -39.693 136.639   8.958  1.00 13.13     0.007 C 
HETATM   37  C35 STQ 8 618     -40.743 137.530   9.420  1.00 13.13     0.001 C 
HETATM   38  C36 STQ 8 618     -35.358 126.873   6.620  1.00 13.13     0.016 C 
HETATM   39  C37 STQ 8 618     -35.429 128.319   4.640  1.00 13.13     0.016 C 
HETATM   40  C38 STQ 8 618     -33.163 129.858   8.919  1.00 13.13     0.044 C 
HETATM   41  C39 STQ 8 618     -38.284 130.331   8.645  1.00 13.13     0.048 C 
HETATM   42  C40 STQ 8 618     -41.005 134.655   9.605  1.00 13.13     0.048 C 
HETATM   43  O23 STQ 8 618     -30.981 126.925   5.818  1.00 13.13    -0.392 OA
ATOM     44  H23 STQ 8 618     -30.331 126.776   6.494  1.00  0.00     0.210 HD
ENDROOT
TORSDOF 12
