REMARK VINA RESULT:   -11.662      0.000      0.000
REMARK INTER + INTRA:         -12.249
REMARK INTER:                 -11.662
REMARK INTRA:                  -0.587
REMARK UNBOUND:                -0.587
REMARK  0 active torsions:
REMARK  status: ('A' for Active; 'I' for Inactive)
REMARK       I    between atoms: C3_3  and  O3_21 
REMARK       I    between atoms: C6_6  and  C7_7 
REMARK       I    between atoms: C8_8  and  C9_9 
REMARK       I    between atoms: C10_10  and  C11_11 
REMARK       I    between atoms: C12_12  and  C13_13 
REMARK       I    between atoms: C14_14  and  C15_15 
REMARK       I    between atoms: C23_25  and  O23_43 
REMARK       I    between atoms: C26_28  and  C27_29 
REMARK       I    between atoms: C28_30  and  C29_31 
REMARK       I    between atoms: C30_32  and  C31_33 
REMARK       I    between atoms: C32_34  and  C33_35 
REMARK       I    between atoms: C34_36  and  C35_37 
ROOT
HETATM    1  C1  STQ 11620     -50.193 144.331  12.355  1.00 94.67    -0.018 C 
HETATM    2  C2  STQ 11620     -50.712 144.612  13.759  1.00 94.67     0.045 C 
HETATM    3  C3  STQ 11620     -49.963 145.655  14.561  1.00 94.67     0.123 C 
HETATM    4  C4  STQ 11620     -49.672 146.837  13.677  1.00 94.67     0.066 C 
HETATM    5  C5  STQ 11620     -48.831 146.404  12.517  1.00 94.67    -0.074 C 
HETATM    6  C6  STQ 11620     -49.077 145.249  11.895  1.00 94.67    -0.048 C 
HETATM    7  C7  STQ 11620     -48.273 144.833  10.720  1.00 94.67     0.009 C 
HETATM    8  C8  STQ 11620     -47.149 144.136  10.867  1.00 94.67     0.007 C 
HETATM    9  C9  STQ 11620     -46.335 143.686   9.739  1.00 94.67    -0.062 C 
HETATM   10  C10 STQ 11620     -45.278 142.943  10.051  1.00 94.67     0.007 C 
HETATM   11  C11 STQ 11620     -44.360 142.376   9.081  1.00 94.67     0.001 C 
HETATM   12  C12 STQ 11620     -43.625 141.402   9.591  1.00 94.67     0.007 C 
HETATM   13  C13 STQ 11620     -42.638 140.636   8.833  1.00 94.67    -0.062 C 
HETATM   14  C14 STQ 11620     -42.059 139.624   9.475  1.00 94.67     0.007 C 
HETATM   15  C15 STQ 11620     -41.083 138.735   8.867  1.00 94.67     0.001 C 
HETATM   16  C16 STQ 11620     -51.404 144.428  11.433  1.00 94.67     0.020 C 
HETATM   17  C17 STQ 11620     -49.640 142.914  12.344  1.00 94.67     0.020 C 
HETATM   18  C18 STQ 11620     -47.761 147.359  12.077  1.00 94.67     0.044 C 
HETATM   19  C19 STQ 11620     -46.681 144.042   8.326  1.00 94.67     0.048 C 
HETATM   20  C20 STQ 11620     -42.324 140.966   7.409  1.00 94.67     0.048 C 
HETATM   21  O3  STQ 11620     -50.800 146.096  15.632  1.00 94.67    -0.395 OA
ATOM     22  H3  STQ 11620     -50.984 145.350  16.190  1.00  0.00     0.210 HD
HETATM   23  C21 STQ 11620     -34.202 128.417   6.994  1.00 94.67    -0.035 C 
HETATM   24  C22 STQ 11620     -33.391 127.900   5.816  1.00 94.67     0.045 C 
HETATM   25  C23 STQ 11620     -31.886 128.059   5.968  1.00 94.67     0.142 C 
HETATM   26  C24 STQ 11620     -31.512 129.383   6.582  1.00 94.67     0.007 C 
HETATM   27  C25 STQ 11620     -32.318 129.959   7.476  1.00 94.67    -0.077 C 
HETATM   28  C26 STQ 11620     -33.805 129.861   7.295  1.00 94.67     0.044 C 
HETATM   29  C27 STQ 11620     -34.548 130.364   8.505  1.00 94.67    -0.016 C 
HETATM   30  C28 STQ 11620     -35.234 131.482   8.338  1.00 94.67     0.003 C 
HETATM   31  C29 STQ 11620     -36.025 132.096   9.406  1.00 94.67    -0.062 C 
HETATM   32  C30 STQ 11620     -36.844 133.075   9.025  1.00 94.67     0.007 C 
HETATM   33  C31 STQ 11620     -37.724 133.832   9.897  1.00 94.67     0.001 C 
HETATM   34  C32 STQ 11620     -38.259 134.863   9.268  1.00 94.67     0.007 C 
HETATM   35  C33 STQ 11620     -39.184 135.818   9.872  1.00 94.67    -0.062 C 
HETATM   36  C34 STQ 11620     -39.775 136.702   9.062  1.00 94.67     0.007 C 
HETATM   37  C35 STQ 11620     -40.724 137.675   9.580  1.00 94.67     0.001 C 
HETATM   38  C36 STQ 11620     -34.039 127.518   8.219  1.00 94.67     0.016 C 
HETATM   39  C37 STQ 11620     -35.667 128.366   6.591  1.00 94.67     0.016 C 
HETATM   40  C38 STQ 11620     -31.718 130.676   8.651  1.00 94.67     0.044 C 
HETATM   41  C39 STQ 11620     -35.920 131.643  10.828  1.00 94.67     0.048 C 
HETATM   42  C40 STQ 11620     -39.434 135.807  11.345  1.00 94.67     0.048 C 
HETATM   43  O23 STQ 11620     -31.283 127.957   4.679  1.00 94.67    -0.392 OA
ATOM     44  H23 STQ 11620     -31.518 127.122   4.292  1.00  0.00     0.210 HD
ENDROOT
TORSDOF 12
