REMARK VINA RESULT:   -10.141      0.000      0.000
REMARK INTER + INTRA:         -12.445
REMARK INTER:                 -10.141
REMARK INTRA:                  -2.304
REMARK UNBOUND:                -2.304
REMARK  0 active torsions:
REMARK  status: ('A' for Active; 'I' for Inactive)
REMARK       I    between atoms: C3_3  and  O3_21 
REMARK       I    between atoms: C6_6  and  C7_7 
REMARK       I    between atoms: C8_8  and  C9_9 
REMARK       I    between atoms: C10_10  and  C11_11 
REMARK       I    between atoms: C12_12  and  C13_13 
REMARK       I    between atoms: C14_14  and  C15_15 
REMARK       I    between atoms: C23_25  and  O23_43 
REMARK       I    between atoms: C26_28  and  C27_29 
REMARK       I    between atoms: C28_30  and  C29_31 
REMARK       I    between atoms: C30_32  and  C31_33 
REMARK       I    between atoms: C32_34  and  C33_35 
REMARK       I    between atoms: C34_36  and  C35_37 
ROOT
HETATM    1  C1  STQ 1 617     -34.250 127.087   6.578  1.00 38.90    -0.018 C 
HETATM    2  C2  STQ 1 617     -34.241 127.190   5.054  1.00 38.90     0.045 C 
HETATM    3  C3  STQ 1 617     -33.125 128.045   4.461  1.00 38.90     0.123 C 
HETATM    4  C4  STQ 1 617     -31.976 128.168   5.443  1.00 38.90     0.066 C 
HETATM    5  C5  STQ 1 617     -32.545 128.845   6.656  1.00 38.90    -0.074 C 
HETATM    6  C6  STQ 1 617     -33.583 128.259   7.259  1.00 38.90    -0.048 C 
HETATM    7  C7  STQ 1 617     -34.222 128.867   8.439  1.00 38.90     0.009 C 
HETATM    8  C8  STQ 1 617     -34.466 130.166   8.284  1.00 38.90     0.007 C 
HETATM    9  C9  STQ 1 617     -35.273 130.925   9.257  1.00 38.90    -0.062 C 
HETATM   10  C10 STQ 1 617     -35.766 132.090   8.821  1.00 38.90     0.007 C 
HETATM   11  C11 STQ 1 617     -36.687 132.929   9.580  1.00 38.90     0.001 C 
HETATM   12  C12 STQ 1 617     -37.279 133.943   8.962  1.00 38.90     0.007 C 
HETATM   13  C13 STQ 1 617     -38.284 134.790   9.626  1.00 38.90    -0.062 C 
HETATM   14  C14 STQ 1 617     -38.938 135.659   8.841  1.00 38.90     0.007 C 
HETATM   15  C15 STQ 1 617     -39.991 136.564   9.287  1.00 38.90     0.001 C 
HETATM   16  C16 STQ 1 617     -33.455 125.850   6.993  1.00 38.90     0.020 C 
HETATM   17  C17 STQ 1 617     -35.680 126.959   7.084  1.00 38.90     0.020 C 
HETATM   18  C18 STQ 1 617     -31.593 129.781   7.360  1.00 38.90     0.044 C 
HETATM   19  C19 STQ 1 617     -35.541 130.366  10.625  1.00 38.90     0.048 C 
HETATM   20  C20 STQ 1 617     -38.537 134.620  11.094  1.00 38.90     0.048 C 
HETATM   21  O3  STQ 1 617     -32.640 127.450   3.254  1.00 38.90    -0.395 OA
ATOM     22  H3  STQ 1 617     -31.945 127.982   2.884  1.00  0.00     0.210 HD
HETATM   23  C21 STQ 1 617     -49.563 144.595   9.329  1.00 38.90    -0.035 C 
HETATM   24  C22 STQ 1 617     -50.457 145.235  10.364  1.00 38.90     0.045 C 
HETATM   25  C23 STQ 1 617     -50.450 146.741  10.218  1.00 38.90     0.142 C 
HETATM   26  C24 STQ 1 617     -49.040 147.262  10.073  1.00 38.90     0.007 C 
HETATM   27  C25 STQ 1 617     -47.984 146.468   9.824  1.00 38.90    -0.077 C 
HETATM   28  C26 STQ 1 617     -48.127 144.983   9.647  1.00 38.90     0.044 C 
HETATM   29  C27 STQ 1 617     -47.239 144.428   8.560  1.00 38.90    -0.016 C 
HETATM   30  C28 STQ 1 617     -46.445 143.420   8.889  1.00 38.90     0.003 C 
HETATM   31  C29 STQ 1 617     -45.542 142.753   7.940  1.00 38.90    -0.062 C 
HETATM   32  C30 STQ 1 617     -44.849 141.730   8.454  1.00 38.90     0.007 C 
HETATM   33  C31 STQ 1 617     -43.886 140.909   7.736  1.00 38.90     0.001 C 
HETATM   34  C32 STQ 1 617     -43.264 139.978   8.449  1.00 38.90     0.007 C 
HETATM   35  C33 STQ 1 617     -42.235 139.093   7.886  1.00 38.90    -0.062 C 
HETATM   36  C34 STQ 1 617     -41.616 138.268   8.751  1.00 38.90     0.007 C 
HETATM   37  C35 STQ 1 617     -40.556 137.339   8.374  1.00 38.90     0.001 C 
HETATM   38  C36 STQ 1 617     -49.958 145.028   7.923  1.00 38.90     0.016 C 
HETATM   39  C37 STQ 1 617     -49.728 143.086   9.434  1.00 38.90     0.016 C 
HETATM   40  C38 STQ 1 617     -46.625 147.093   9.774  1.00 38.90     0.044 C 
HETATM   41  C39 STQ 1 617     -45.473 143.205   6.511  1.00 38.90     0.048 C 
HETATM   42  C40 STQ 1 617     -41.925 139.185   6.423  1.00 38.90     0.048 C 
HETATM   43  O23 STQ 1 617     -51.035 147.295  11.396  1.00 38.90    -0.392 OA
ATOM     44  H23 STQ 1 617     -51.030 148.241  11.304  1.00  0.00     0.210 HD
ENDROOT
TORSDOF 12
