REMARK VINA RESULT:    -9.642      0.000      0.000
REMARK INTER + INTRA:         -12.856
REMARK INTER:                  -9.642
REMARK INTRA:                  -3.214
REMARK UNBOUND:                -3.214
REMARK  0 active torsions:
REMARK  status: ('A' for Active; 'I' for Inactive)
REMARK       I    between atoms: C3_3  and  O3_21 
REMARK       I    between atoms: C6_6  and  C7_7 
REMARK       I    between atoms: C8_8  and  C9_9 
REMARK       I    between atoms: C10_10  and  C11_11 
REMARK       I    between atoms: C12_12  and  C13_13 
REMARK       I    between atoms: C14_14  and  C15_15 
REMARK       I    between atoms: C23_25  and  O23_43 
REMARK       I    between atoms: C26_28  and  C27_29 
REMARK       I    between atoms: C28_30  and  C29_31 
REMARK       I    between atoms: C30_32  and  C31_33 
REMARK       I    between atoms: C32_34  and  C33_35 
REMARK       I    between atoms: C34_36  and  C35_37 
ROOT
HETATM    1  C1  STQ 6 621     -34.352 127.571   6.330  1.00 27.76    -0.018 C 
HETATM    2  C2  STQ 6 621     -33.733 127.160   4.997  1.00 27.76     0.045 C 
HETATM    3  C3  STQ 6 621     -32.362 127.701   4.611  1.00 27.76     0.123 C 
HETATM    4  C4  STQ 6 621     -31.523 128.060   5.817  1.00 27.76     0.066 C 
HETATM    5  C5  STQ 6 621     -32.323 128.957   6.720  1.00 27.76    -0.074 C 
HETATM    6  C6  STQ 6 621     -33.585 128.664   7.045  1.00 27.76    -0.048 C 
HETATM    7  C7  STQ 6 621     -34.239 129.412   8.147  1.00 27.76     0.009 C 
HETATM    8  C8  STQ 6 621     -34.981 130.506   7.942  1.00 27.76     0.007 C 
HETATM    9  C9  STQ 6 621     -35.608 131.231   9.061  1.00 27.76    -0.062 C 
HETATM   10  C10 STQ 6 621     -36.375 132.302   8.783  1.00 27.76     0.007 C 
HETATM   11  C11 STQ 6 621     -37.061 133.159   9.750  1.00 27.76     0.001 C 
HETATM   12  C12 STQ 6 621     -37.622 134.259   9.256  1.00 27.76     0.007 C 
HETATM   13  C13 STQ 6 621     -38.388 135.286   9.986  1.00 27.76    -0.062 C 
HETATM   14  C14 STQ 6 621     -39.131 136.117   9.242  1.00 27.76     0.007 C 
HETATM   15  C15 STQ 6 621     -39.985 137.172   9.774  1.00 27.76     0.001 C 
HETATM   16  C16 STQ 6 621     -34.469 126.310   7.182  1.00 27.76     0.020 C 
HETATM   17  C17 STQ 6 621     -35.751 128.104   6.067  1.00 27.76     0.020 C 
HETATM   18  C18 STQ 6 621     -31.479 129.850   7.583  1.00 27.76     0.044 C 
HETATM   19  C19 STQ 6 621     -35.365 130.756  10.458  1.00 27.76     0.048 C 
HETATM   20  C20 STQ 6 621     -38.352 135.403  11.476  1.00 27.76     0.048 C 
HETATM   21  O3  STQ 6 621     -31.661 126.715   3.847  1.00 27.76    -0.395 OA
ATOM     22  H3  STQ 6 621     -30.806 127.052   3.607  1.00  0.00     0.210 HD
HETATM   23  C21 STQ 6 621     -49.856 145.416   8.872  1.00 27.76    -0.035 C 
HETATM   24  C22 STQ 6 621     -50.796 146.193   9.790  1.00 27.76     0.045 C 
HETATM   25  C23 STQ 6 621     -50.347 147.610  10.132  1.00 27.76     0.142 C 
HETATM   26  C24 STQ 6 621     -48.848 147.732  10.287  1.00 27.76     0.007 C 
HETATM   27  C25 STQ 6 621     -48.003 146.899   9.672  1.00 27.76    -0.077 C 
HETATM   28  C26 STQ 6 621     -48.413 145.482   9.380  1.00 27.76     0.044 C 
HETATM   29  C27 STQ 6 621     -47.478 144.810   8.398  1.00 27.76    -0.016 C 
HETATM   30  C28 STQ 6 621     -46.708 143.838   8.872  1.00 27.76     0.003 C 
HETATM   31  C29 STQ 6 621     -45.763 143.078   8.040  1.00 27.76    -0.062 C 
HETATM   32  C30 STQ 6 621     -45.201 142.016   8.623  1.00 27.76     0.007 C 
HETATM   33  C31 STQ 6 621     -44.256 141.104   7.994  1.00 27.76     0.001 C 
HETATM   34  C32 STQ 6 621     -43.603 140.314   8.836  1.00 27.76     0.007 C 
HETATM   35  C33 STQ 6 621     -42.630 139.298   8.419  1.00 27.76    -0.062 C 
HETATM   36  C34 STQ 6 621     -41.875 138.681   9.342  1.00 27.76     0.007 C 
HETATM   37  C35 STQ 6 621     -40.921 137.645   8.952  1.00 27.76     0.001 C 
HETATM   38  C36 STQ 6 621     -49.964 145.918   7.435  1.00 27.76     0.016 C 
HETATM   39  C37 STQ 6 621     -50.315 143.965   8.888  1.00 27.76     0.016 C 
HETATM   40  C38 STQ 6 621     -46.647 147.408   9.284  1.00 27.76     0.044 C 
HETATM   41  C39 STQ 6 621     -45.461 143.472   6.626  1.00 27.76     0.048 C 
HETATM   42  C40 STQ 6 621     -42.527 138.949   6.972  1.00 27.76     0.048 C 
HETATM   43  O23 STQ 6 621     -50.966 148.012  11.359  1.00 27.76    -0.392 OA
ATOM     44  H23 STQ 6 621     -50.687 148.894  11.571  1.00  0.00     0.210 HD
ENDROOT
TORSDOF 12
