REMARK VINA RESULT:    -8.684      0.000      0.000
REMARK INTER + INTRA:          -9.118
REMARK INTER:                  -8.684
REMARK INTRA:                  -0.434
REMARK UNBOUND:                -0.434
REMARK  0 active torsions:
REMARK  status: ('A' for Active; 'I' for Inactive)
REMARK       I    between atoms: C3_3  and  O3_21 
REMARK       I    between atoms: C6_6  and  C7_7 
REMARK       I    between atoms: C8_8  and  C9_9 
REMARK       I    between atoms: C10_10  and  C11_11 
REMARK       I    between atoms: C12_12  and  C13_13 
REMARK       I    between atoms: C14_14  and  C15_15 
REMARK       I    between atoms: C23_25  and  O23_43 
REMARK       I    between atoms: C26_28  and  C27_29 
REMARK       I    between atoms: C28_30  and  C29_31 
REMARK       I    between atoms: C30_32  and  C31_33 
REMARK       I    between atoms: C32_34  and  C33_35 
REMARK       I    between atoms: C34_36  and  C35_37 
ROOT
HETATM    1  C1  STQ 2 616     -49.989 145.644  13.740  1.00 78.53    -0.022 C 
HETATM    2  C2  STQ 2 616     -50.833 146.117  14.928  1.00 78.53     0.045 C 
HETATM    3  C3  STQ 2 616     -50.169 147.015  15.973  1.00 78.53     0.119 C 
HETATM    4  C4  STQ 2 616     -49.067 147.868  15.365  1.00 78.53     0.040 C 
HETATM    5  C5  STQ 2 616     -48.101 146.919  14.720  1.00 78.53     0.013 C 
HETATM    6  C6  STQ 2 616     -48.544 146.108  13.763  1.00 78.53    -0.068 C 
HETATM    7  C7  STQ 2 616     -47.637 145.672  12.678  1.00 78.53     0.004 C 
HETATM    8  C8  STQ 2 616     -46.701 144.738  12.858  1.00 78.53     0.007 C 
HETATM    9  C9  STQ 2 616     -45.837 144.342  11.733  1.00 78.53    -0.062 C 
HETATM   10  C10 STQ 2 616     -45.026 143.282  11.877  1.00 78.53     0.007 C 
HETATM   11  C11 STQ 2 616     -44.129 142.780  10.837  1.00 78.53     0.001 C 
HETATM   12  C12 STQ 2 616     -43.353 141.746  11.164  1.00 78.53     0.007 C 
HETATM   13  C13 STQ 2 616     -42.405 141.093  10.238  1.00 78.53    -0.062 C 
HETATM   14  C14 STQ 2 616     -41.858 139.929  10.620  1.00 78.53     0.007 C 
HETATM   15  C15 STQ 2 616     -40.938 139.172   9.776  1.00 78.53     0.001 C 
HETATM   16  C16 STQ 2 616     -50.673 146.131  12.467  1.00 78.53     0.019 C 
HETATM   17  C17 STQ 2 616     -49.962 144.120  13.736  1.00 78.53     0.019 C 
HETATM   18  C18 STQ 2 616     -46.992 147.901  14.475  1.00 78.53     0.015 C 
HETATM   19  C19 STQ 2 616     -45.883 145.142  10.469  1.00 78.53     0.048 C 
HETATM   20  C20 STQ 2 616     -42.060 141.698   8.910  1.00 78.53     0.048 C 
HETATM   21  O3  STQ 2 616     -51.158 147.875  16.553  1.00 78.53    -0.396 OA
ATOM     22  H3  STQ 2 616     -50.745 148.432  17.202  1.00  0.00     0.210 HD
HETATM   23  C21 STQ 2 616     -34.216 128.342   7.075  1.00 78.53    -0.035 C 
HETATM   24  C22 STQ 2 616     -33.417 127.532   6.058  1.00 78.53     0.045 C 
HETATM   25  C23 STQ 2 616     -31.915 127.803   6.081  1.00 78.53     0.142 C 
HETATM   26  C24 STQ 2 616     -31.632 129.283   6.177  1.00 78.53     0.007 C 
HETATM   27  C25 STQ 2 616     -32.438 130.111   6.859  1.00 78.53    -0.077 C 
HETATM   28  C26 STQ 2 616     -33.919 129.843   6.957  1.00 78.53     0.044 C 
HETATM   29  C27 STQ 2 616     -34.558 130.580   8.119  1.00 78.53    -0.016 C 
HETATM   30  C28 STQ 2 616     -35.417 131.567   7.874  1.00 78.53     0.003 C 
HETATM   31  C29 STQ 2 616     -36.091 132.311   8.956  1.00 78.53    -0.062 C 
HETATM   32  C30 STQ 2 616     -37.034 133.192   8.603  1.00 78.53     0.007 C 
HETATM   33  C31 STQ 2 616     -37.815 133.987   9.541  1.00 78.53     0.001 C 
HETATM   34  C32 STQ 2 616     -38.445 135.047   9.049  1.00 78.53     0.007 C 
HETATM   35  C33 STQ 2 616     -39.297 135.913   9.882  1.00 78.53    -0.062 C 
HETATM   36  C34 STQ 2 616     -39.689 137.108   9.409  1.00 78.53     0.007 C 
HETATM   37  C35 STQ 2 616     -40.570 137.965  10.196  1.00 78.53     0.001 C 
HETATM   38  C36 STQ 2 616     -33.941 127.824   8.487  1.00 78.53     0.016 C 
HETATM   39  C37 STQ 2 616     -35.693 128.117   6.779  1.00 78.53     0.016 C 
HETATM   40  C38 STQ 2 616     -31.836 131.315   7.522  1.00 78.53     0.044 C 
HETATM   41  C39 STQ 2 616     -35.738 132.083  10.396  1.00 78.53     0.048 C 
HETATM   42  C40 STQ 2 616     -39.739 135.432  11.229  1.00 78.53     0.048 C 
HETATM   43  O23 STQ 2 616     -31.333 127.295   4.875  1.00 78.53    -0.392 OA
ATOM     44  H23 STQ 2 616     -30.398 127.463   4.889  1.00  0.00     0.210 HD
ENDROOT
TORSDOF 12
