REMARK VINA RESULT:    -4.904      1.122     17.133
REMARK INTER + INTRA:          -7.970
REMARK INTER:                  -7.542
REMARK INTRA:                  -0.428
REMARK UNBOUND:                -3.067
REMARK  0 active torsions:
REMARK  status: ('A' for Active; 'I' for Inactive)
REMARK       I    between atoms: C3_3  and  O3_21 
REMARK       I    between atoms: C6_6  and  C7_7 
REMARK       I    between atoms: C8_8  and  C9_9 
REMARK       I    between atoms: C10_10  and  C11_11 
REMARK       I    between atoms: C12_12  and  C13_13 
REMARK       I    between atoms: C14_14  and  C15_15 
REMARK       I    between atoms: C23_25  and  O23_43 
REMARK       I    between atoms: C26_28  and  C27_29 
REMARK       I    between atoms: C28_30  and  C29_31 
REMARK       I    between atoms: C30_32  and  C31_33 
REMARK       I    between atoms: C32_34  and  C33_35 
REMARK       I    between atoms: C34_36  and  C35_37 
ROOT
HETATM    1  C1  STQ E4620     -51.285 144.562  12.436  1.00 19.12    -0.018 C 
HETATM    2  C2  STQ E4620     -52.104 145.211  13.571  1.00 18.29     0.045 C 
HETATM    3  C3  STQ E4620     -51.393 146.234  14.458  1.00 18.54     0.123 C 
HETATM    4  C4  STQ E4620     -50.437 147.142  13.684  1.00 18.55     0.066 C 
HETATM    5  C5  STQ E4620     -49.638 146.537  12.577  1.00 18.97    -0.074 C 
HETATM    6  C6  STQ E4620     -50.008 145.341  11.978  1.00 18.68    -0.048 C 
HETATM    7  C7  STQ E4620     -49.240 144.747  10.874  1.00 18.46     0.009 C 
HETATM    8  C8  STQ E4620     -48.086 144.075  10.941  1.00 18.89     0.007 C 
HETATM    9  C9  STQ E4620     -47.261 143.601   9.827  1.00 19.10    -0.062 C 
HETATM   10  C10 STQ E4620     -46.182 142.845  10.127  1.00 18.99     0.007 C 
HETATM   11  C11 STQ E4620     -45.252 142.260   9.210  1.00 18.78     0.001 C 
HETATM   12  C12 STQ E4620     -44.359 141.384   9.676  1.00 19.28     0.007 C 
HETATM   13  C13 STQ E4620     -43.364 140.618   8.927  1.00 21.25    -0.062 C 
HETATM   14  C14 STQ E4620     -42.643 139.704   9.615  1.00 20.64     0.007 C 
HETATM   15  C15 STQ E4620     -41.681 138.780   9.093  1.00 21.49     0.001 C 
HETATM   16  C16 STQ E4620     -52.288 144.437  11.278  1.00 19.29     0.020 C 
HETATM   17  C17 STQ E4620     -50.907 143.135  12.875  1.00 16.00     0.020 C 
HETATM   18  C18 STQ E4620     -48.498 147.462  12.307  1.00 17.87     0.044 C 
HETATM   19  C19 STQ E4620     -47.701 143.938   8.427  1.00 17.60     0.048 C 
HETATM   20  C20 STQ E4620     -43.266 140.846   7.444  1.00 16.75     0.048 C 
HETATM   21  O3  STQ E4620     -52.343 147.018  15.168  1.00 19.42    -0.395 OA
ATOM     22  H3  STQ E4620     -51.902 147.654  15.719  1.00  0.00     0.210 HD
HETATM   23  C21 STQ E4620     -34.208 128.503   7.009  1.00 27.80    -0.035 C 
HETATM   24  C22 STQ E4620     -33.348 127.606   6.085  1.00 28.12     0.045 C 
HETATM   25  C23 STQ E4620     -31.834 127.744   6.283  1.00 29.31     0.142 C 
HETATM   26  C24 STQ E4620     -31.396 129.194   6.562  1.00 30.79     0.007 C 
HETATM   27  C25 STQ E4620     -32.255 130.188   6.907  1.00 30.18    -0.077 C 
HETATM   28  C26 STQ E4620     -33.764 130.007   7.054  1.00 27.90     0.044 C 
HETATM   29  C27 STQ E4620     -34.290 130.845   8.217  1.00 27.26    -0.016 C 
HETATM   30  C28 STQ E4620     -35.244 131.813   8.109  1.00 26.15     0.003 C 
HETATM   31  C29 STQ E4620     -35.959 132.507   9.206  1.00 25.99    -0.062 C 
HETATM   32  C30 STQ E4620     -36.873 133.445   8.882  1.00 24.86     0.007 C 
HETATM   33  C31 STQ E4620     -37.691 134.201   9.792  1.00 24.61     0.001 C 
HETATM   34  C32 STQ E4620     -38.532 135.153   9.339  1.00 23.19     0.007 C 
HETATM   35  C33 STQ E4620     -39.422 136.045  10.094  1.00 22.76    -0.062 C 
HETATM   36  C34 STQ E4620     -40.143 136.947   9.394  1.00 21.16     0.007 C 
HETATM   37  C35 STQ E4620     -41.067 137.917   9.903  1.00 21.72     0.001 C 
HETATM   38  C36 STQ E4620     -34.195 127.884   8.437  1.00 25.17     0.016 C 
HETATM   39  C37 STQ E4620     -35.642 128.413   6.489  1.00 27.28     0.016 C 
HETATM   40  C38 STQ E4620     -31.609 131.520   7.119  1.00 30.64     0.044 C 
HETATM   41  C39 STQ E4620     -35.618 132.138  10.622  1.00 26.11     0.048 C 
HETATM   42  C40 STQ E4620     -39.448 135.912  11.595  1.00 21.07     0.048 C 
HETATM   43  O23 STQ E4620     -31.140 127.214   5.163  1.00 27.58    -0.392 OA
ATOM     44  H23 STQ E4620     -30.203 127.300   5.286  1.00  0.00     0.210 HD
ENDROOT
TORSDOF 12
