REMARK VINA RESULT:    -9.065      0.000      0.000
REMARK INTER + INTRA:         -11.803
REMARK INTER:                  -9.065
REMARK INTRA:                  -2.738
REMARK UNBOUND:                -2.738
REMARK  0 active torsions:
REMARK  status: ('A' for Active; 'I' for Inactive)
REMARK       I    between atoms: C3_3  and  O3_21 
REMARK       I    between atoms: C6_6  and  C7_7 
REMARK       I    between atoms: C8_8  and  C9_9 
REMARK       I    between atoms: C10_10  and  C11_11 
REMARK       I    between atoms: C12_12  and  C13_13 
REMARK       I    between atoms: C14_14  and  C15_15 
REMARK       I    between atoms: C23_25  and  O23_43 
REMARK       I    between atoms: C26_28  and  C27_29 
REMARK       I    between atoms: C28_30  and  C29_31 
REMARK       I    between atoms: C30_32  and  C31_33 
REMARK       I    between atoms: C32_34  and  C33_35 
REMARK       I    between atoms: C34_36  and  C35_37 
ROOT
HETATM    1  C1  STQ 21620     -34.481 128.117   6.524  1.00 97.95    -0.018 C 
HETATM    2  C2  STQ 21620     -33.674 127.854   5.256  1.00 97.95     0.045 C 
HETATM    3  C3  STQ 21620     -32.287 128.469   5.172  1.00 97.95     0.123 C 
HETATM    4  C4  STQ 21620     -31.593 128.465   6.515  1.00 97.95     0.066 C 
HETATM    5  C5  STQ 21620     -32.454 129.185   7.509  1.00 97.95    -0.074 C 
HETATM    6  C6  STQ 21620     -33.779 129.002   7.537  1.00 97.95    -0.048 C 
HETATM    7  C7  STQ 21620     -34.609 129.664   8.571  1.00 97.95     0.009 C 
HETATM    8  C8  STQ 21620     -35.122 130.878   8.375  1.00 97.95     0.007 C 
HETATM    9  C9  STQ 21620     -35.959 131.549   9.372  1.00 97.95    -0.062 C 
HETATM   10  C10 STQ 21620     -36.482 132.719   9.018  1.00 97.95     0.007 C 
HETATM   11  C11 STQ 21620     -37.345 133.505   9.880  1.00 97.95     0.001 C 
HETATM   12  C12 STQ 21620     -37.753 134.641   9.341  1.00 97.95     0.007 C 
HETATM   13  C13 STQ 21620     -38.655 135.581  10.014  1.00 97.95    -0.062 C 
HETATM   14  C14 STQ 21620     -39.223 136.492   9.225  1.00 97.95     0.007 C 
HETATM   15  C15 STQ 21620     -40.174 137.476   9.703  1.00 97.95     0.001 C 
HETATM   16  C16 STQ 21620     -34.827 126.755   7.117  1.00 97.95     0.020 C 
HETATM   17  C17 STQ 21620     -35.772 128.819   6.124  1.00 97.95     0.020 C 
HETATM   18  C18 STQ 21620     -31.722 130.004   8.531  1.00 97.95     0.044 C 
HETATM   19  C19 STQ 21620     -36.210 130.939  10.717  1.00 97.95     0.048 C 
HETATM   20  C20 STQ 21620     -38.934 135.514  11.485  1.00 97.95     0.048 C 
HETATM   21  O3  STQ 21620     -31.493 127.700   4.261  1.00 97.95    -0.395 OA
ATOM     22  H3  STQ 21620     -30.625 128.085   4.209  1.00  0.00     0.210 HD
HETATM   23  C21 STQ 21620     -49.971 145.346   8.926  1.00 97.95    -0.035 C 
HETATM   24  C22 STQ 21620     -50.898 146.135   9.838  1.00 97.95     0.045 C 
HETATM   25  C23 STQ 21620     -50.594 147.624   9.887  1.00 97.95     0.142 C 
HETATM   26  C24 STQ 21620     -49.115 147.879  10.039  1.00 97.95     0.007 C 
HETATM   27  C25 STQ 21620     -48.201 147.040   9.534  1.00 97.95    -0.077 C 
HETATM   28  C26 STQ 21620     -48.513 145.579   9.330  1.00 97.95     0.044 C 
HETATM   29  C27 STQ 21620     -47.594 144.970   8.300  1.00 97.95    -0.016 C 
HETATM   30  C28 STQ 21620     -46.770 144.026   8.726  1.00 97.95     0.003 C 
HETATM   31  C29 STQ 21620     -45.832 143.326   7.846  1.00 97.95    -0.062 C 
HETATM   32  C30 STQ 21620     -45.091 142.393   8.434  1.00 97.95     0.007 C 
HETATM   33  C31 STQ 21620     -44.108 141.564   7.765  1.00 97.95     0.001 C 
HETATM   34  C32 STQ 21620     -43.507 140.730   8.596  1.00 97.95     0.007 C 
HETATM   35  C33 STQ 21620     -42.484 139.778   8.170  1.00 97.95    -0.062 C 
HETATM   36  C34 STQ 21620     -41.941 139.008   9.112  1.00 97.95     0.007 C 
HETATM   37  C35 STQ 21620     -40.929 138.028   8.765  1.00 97.95     0.001 C 
HETATM   38  C36 STQ 21620     -50.218 145.700   7.464  1.00 97.95     0.016 C 
HETATM   39  C37 STQ 21620     -50.330 143.875   9.107  1.00 97.95     0.016 C 
HETATM   40  C38 STQ 21620     -46.851 147.592   9.182  1.00 97.95     0.044 C 
HETATM   41  C39 STQ 21620     -45.725 143.635   6.383  1.00 97.95     0.048 C 
HETATM   42  C40 STQ 21620     -42.074 139.686   6.735  1.00 97.95     0.048 C 
HETATM   43  O23 STQ 21620     -51.275 148.179  11.012  1.00 97.95    -0.392 OA
ATOM     44  H23 STQ 21620     -52.206 148.018  10.917  1.00  0.00     0.210 HD
ENDROOT
TORSDOF 12
