REMARK VINA RESULT:    -8.697      0.000      0.000
REMARK INTER + INTRA:          -9.197
REMARK INTER:                  -8.697
REMARK INTRA:                  -0.500
REMARK UNBOUND:                -0.500
REMARK  0 active torsions:
REMARK  status: ('A' for Active; 'I' for Inactive)
REMARK       I    between atoms: C3_3  and  O3_21 
REMARK       I    between atoms: C6_6  and  C7_7 
REMARK       I    between atoms: C8_8  and  C9_9 
REMARK       I    between atoms: C10_10  and  C11_11 
REMARK       I    between atoms: C12_12  and  C13_13 
REMARK       I    between atoms: C14_14  and  C15_15 
REMARK       I    between atoms: C23_25  and  O23_43 
REMARK       I    between atoms: C26_28  and  C27_29 
REMARK       I    between atoms: C28_30  and  C29_31 
REMARK       I    between atoms: C30_32  and  C31_33 
REMARK       I    between atoms: C32_34  and  C33_35 
REMARK       I    between atoms: C34_36  and  C35_37 
ROOT
HETATM    1  C1  STQ C2621     -34.047 128.364   7.149  1.00 21.49    -0.018 C 
HETATM    2  C2  STQ C2621     -33.259 127.580   6.086  1.00 20.69     0.045 C 
HETATM    3  C3  STQ C2621     -31.882 128.057   5.626  1.00 22.34     0.123 C 
HETATM    4  C4  STQ C2621     -31.281 129.228   6.428  1.00 20.89     0.066 C 
HETATM    5  C5  STQ C2621     -32.096 129.977   7.441  1.00 22.34    -0.074 C 
HETATM    6  C6  STQ C2621     -33.372 129.615   7.813  1.00 21.76    -0.048 C 
HETATM    7  C7  STQ C2621     -34.208 130.333   8.820  1.00 21.22     0.009 C 
HETATM    8  C8  STQ C2621     -34.940 131.466   8.599  1.00 19.00     0.007 C 
HETATM    9  C9  STQ C2621     -35.755 132.216   9.562  1.00 18.63    -0.062 C 
HETATM   10  C10 STQ C2621     -36.509 133.237   9.095  1.00 17.22     0.007 C 
HETATM   11  C11 STQ C2621     -37.441 134.040   9.860  1.00 17.28     0.001 C 
HETATM   12  C12 STQ C2621     -38.221 134.983   9.280  1.00 18.91     0.007 C 
HETATM   13  C13 STQ C2621     -39.275 135.828   9.893  1.00 19.02    -0.062 C 
HETATM   14  C14 STQ C2621     -39.948 136.681   9.087  1.00 19.35     0.007 C 
HETATM   15  C15 STQ C2621     -41.040 137.568   9.441  1.00 19.45     0.001 C 
HETATM   16  C16 STQ C2621     -34.346 127.281   8.214  1.00 20.30     0.020 C 
HETATM   17  C17 STQ C2621     -35.382 128.761   6.498  1.00 19.22     0.020 C 
HETATM   18  C18 STQ C2621     -31.302 131.109   7.977  1.00 22.01     0.044 C 
HETATM   19  C19 STQ C2621     -35.754 131.746  10.991  1.00 17.51     0.048 C 
HETATM   20  C20 STQ C2621     -39.549 135.657  11.361  1.00 16.64     0.048 C 
HETATM   21  O3  STQ C2621     -30.968 126.965   5.570  1.00 21.61    -0.395 OA
ATOM     22  H3  STQ C2621     -31.338 126.243   5.076  1.00  0.00     0.210 HD
HETATM   23  C21 STQ C2621     -50.817 145.941   9.811  1.00 19.74    -0.035 C 
HETATM   24  C22 STQ C2621     -51.990 146.703  10.471  1.00 17.55     0.045 C 
HETATM   25  C23 STQ C2621     -51.707 148.160  10.846  1.00 19.51     0.142 C 
HETATM   26  C24 STQ C2621     -50.233 148.437  11.242  1.00 19.59     0.007 C 
HETATM   27  C25 STQ C2621     -49.235 147.527  11.079  1.00 19.92    -0.077 C 
HETATM   28  C26 STQ C2621     -49.425 146.128  10.502  1.00 18.67     0.044 C 
HETATM   29  C27 STQ C2621     -48.237 145.695   9.635  1.00 17.95    -0.016 C 
HETATM   30  C28 STQ C2621     -47.562 144.515   9.747  1.00 18.06     0.003 C 
HETATM   31  C29 STQ C2621     -46.651 143.918   8.754  1.00 18.23    -0.062 C 
HETATM   32  C30 STQ C2621     -46.028 142.759   9.059  1.00 17.68     0.007 C 
HETATM   33  C31 STQ C2621     -45.078 142.048   8.223  1.00 17.41     0.001 C 
HETATM   34  C32 STQ C2621     -44.369 141.010   8.727  1.00 17.19     0.007 C 
HETATM   35  C33 STQ C2621     -43.310 140.192   8.112  1.00 16.24    -0.062 C 
HETATM   36  C34 STQ C2621     -42.696 139.275   8.891  1.00 17.04     0.007 C 
HETATM   37  C35 STQ C2621     -41.606 138.392   8.540  1.00 18.96     0.001 C 
HETATM   38  C36 STQ C2621     -50.754 146.413   8.323  1.00 17.68     0.016 C 
HETATM   39  C37 STQ C2621     -51.198 144.441   9.831  1.00 17.82     0.016 C 
HETATM   40  C38 STQ C2621     -47.879 147.952  11.517  1.00 18.56     0.044 C 
HETATM   41  C39 STQ C2621     -46.406 144.680   7.489  1.00 19.51     0.048 C 
HETATM   42  C40 STQ C2621     -42.942 140.478   6.696  1.00 13.63     0.048 C 
HETATM   43  O23 STQ C2621     -52.599 148.576  11.875  1.00 19.91    -0.392 OA
ATOM     44  H23 STQ C2621     -52.423 149.480  12.108  1.00  0.00     0.210 HD
ENDROOT
TORSDOF 12
