REMARK VINA RESULT:   -10.440      0.000      0.000
REMARK INTER + INTRA:         -10.752
REMARK INTER:                 -10.440
REMARK INTRA:                  -0.311
REMARK UNBOUND:                -0.311
REMARK  0 active torsions:
REMARK  status: ('A' for Active; 'I' for Inactive)
REMARK       I    between atoms: C3_3  and  O3_21 
REMARK       I    between atoms: C6_6  and  C7_7 
REMARK       I    between atoms: C8_8  and  C9_9 
REMARK       I    between atoms: C10_10  and  C11_11 
REMARK       I    between atoms: C12_12  and  C13_13 
REMARK       I    between atoms: C14_14  and  C15_15 
REMARK       I    between atoms: C23_25  and  O23_43 
REMARK       I    between atoms: C26_28  and  C27_29 
REMARK       I    between atoms: C28_30  and  C29_31 
REMARK       I    between atoms: C30_32  and  C31_33 
REMARK       I    between atoms: C32_34  and  C33_35 
REMARK       I    between atoms: C34_36  and  C35_37 
ROOT
HETATM    1  C1  STQ Y1621     -34.205 128.256   6.889  1.00 26.19    -0.018 C 
HETATM    2  C2  STQ Y1621     -33.365 127.566   5.821  1.00 26.65     0.045 C 
HETATM    3  C3  STQ Y1621     -32.097 128.268   5.376  1.00 28.07     0.123 C 
HETATM    4  C4  STQ Y1621     -31.386 128.917   6.535  1.00 30.07     0.066 C 
HETATM    5  C5  STQ Y1621     -32.324 129.863   7.212  1.00 28.83    -0.074 C 
HETATM    6  C6  STQ Y1621     -33.556 129.464   7.547  1.00 27.49    -0.048 C 
HETATM    7  C7  STQ Y1621     -34.350 130.173   8.582  1.00 29.45     0.009 C 
HETATM    8  C8  STQ Y1621     -34.916 131.362   8.363  1.00 27.83     0.007 C 
HETATM    9  C9  STQ Y1621     -35.735 132.045   9.369  1.00 26.06    -0.062 C 
HETATM   10  C10 STQ Y1621     -36.490 133.042   8.913  1.00 25.01     0.007 C 
HETATM   11  C11 STQ Y1621     -37.412 133.812   9.718  1.00 25.09     0.001 C 
HETATM   12  C12 STQ Y1621     -38.084 134.729   9.048  1.00 26.01     0.007 C 
HETATM   13  C13 STQ Y1621     -39.119 135.565   9.657  1.00 26.36    -0.062 C 
HETATM   14  C14 STQ Y1621     -39.795 136.392   8.856  1.00 27.67     0.007 C 
HETATM   15  C15 STQ Y1621     -40.866 137.230   9.372  1.00 28.38     0.001 C 
HETATM   16  C16 STQ Y1621     -34.499 127.178   7.916  1.00 26.46     0.020 C 
HETATM   17  C17 STQ Y1621     -35.508 128.731   6.262  1.00 26.61     0.020 C 
HETATM   18  C18 STQ Y1621     -31.478 130.728   8.086  1.00 29.43     0.044 C 
HETATM   19  C19 STQ Y1621     -35.733 131.633  10.806  1.00 26.07     0.048 C 
HETATM   20  C20 STQ Y1621     -39.437 135.443  11.115  1.00 25.83     0.048 C 
HETATM   21  O3  STQ Y1621     -31.226 127.307   4.784  1.00 27.44    -0.395 OA
ATOM     22  H3  STQ Y1621     -31.674 126.898   4.052  1.00  0.00     0.210 HD
HETATM   23  C21 STQ Y1621     -50.549 145.353   9.266  1.00 36.06    -0.035 C 
HETATM   24  C22 STQ Y1621     -51.651 146.079  10.002  1.00 35.97     0.045 C 
HETATM   25  C23 STQ Y1621     -51.370 147.501  10.450  1.00 37.89     0.142 C 
HETATM   26  C24 STQ Y1621     -49.938 147.696  10.871  1.00 35.66     0.007 C 
HETATM   27  C25 STQ Y1621     -48.978 146.792  10.637  1.00 33.59    -0.077 C 
HETATM   28  C26 STQ Y1621     -49.236 145.435  10.047  1.00 33.73     0.044 C 
HETATM   29  C27 STQ Y1621     -48.091 145.011   9.159  1.00 31.94    -0.016 C 
HETATM   30  C28 STQ Y1621     -47.505 143.850   9.403  1.00 31.56     0.003 C 
HETATM   31  C29 STQ Y1621     -46.405 143.342   8.590  1.00 29.73    -0.062 C 
HETATM   32  C30 STQ Y1621     -46.066 142.073   8.794  1.00 28.64     0.007 C 
HETATM   33  C31 STQ Y1621     -44.997 141.398   8.090  1.00 27.79     0.001 C 
HETATM   34  C32 STQ Y1621     -44.361 140.484   8.801  1.00 27.11     0.007 C 
HETATM   35  C33 STQ Y1621     -43.258 139.694   8.257  1.00 25.78    -0.062 C 
HETATM   36  C34 STQ Y1621     -42.621 138.825   9.044  1.00 26.10     0.007 C 
HETATM   37  C35 STQ Y1621     -41.533 138.006   8.534  1.00 27.22     0.001 C 
HETATM   38  C36 STQ Y1621     -50.407 145.902   7.849  1.00 34.31     0.016 C 
HETATM   39  C37 STQ Y1621     -51.021 143.909   9.191  1.00 37.49     0.016 C 
HETATM   40  C38 STQ Y1621     -47.580 147.122  11.017  1.00 34.38     0.044 C 
HETATM   41  C39 STQ Y1621     -45.724 144.216   7.591  1.00 32.37     0.048 C 
HETATM   42  C40 STQ Y1621     -42.879 139.873   6.831  1.00 25.14     0.048 C 
HETATM   43  O23 STQ Y1621     -52.229 147.753  11.566  1.00 41.29    -0.392 OA
ATOM     44  H23 STQ Y1621     -52.053 148.643  11.846  1.00  0.00     0.210 HD
ENDROOT
TORSDOF 12
