REMARK VINA RESULT:    -6.941      1.168      1.585
REMARK INTER + INTRA:          -7.115
REMARK INTER:                  -3.901
REMARK INTRA:                  -3.214
REMARK UNBOUND:                -0.174
REMARK  0 active torsions:
REMARK  status: ('A' for Active; 'I' for Inactive)
REMARK       I    between atoms: C3_3  and  O3_21 
REMARK       I    between atoms: C6_6  and  C7_7 
REMARK       I    between atoms: C8_8  and  C9_9 
REMARK       I    between atoms: C10_10  and  C11_11 
REMARK       I    between atoms: C12_12  and  C13_13 
REMARK       I    between atoms: C14_14  and  C15_15 
REMARK       I    between atoms: C23_25  and  O23_43 
REMARK       I    between atoms: C26_28  and  C27_29 
REMARK       I    between atoms: C28_30  and  C29_31 
REMARK       I    between atoms: C30_32  and  C31_33 
REMARK       I    between atoms: C32_34  and  C33_35 
REMARK       I    between atoms: C34_36  and  C35_37 
ROOT
HETATM    1  C1  STQ 2 615     -34.572 128.315   6.147  1.00 79.94    -0.018 C 
HETATM    2  C2  STQ 2 615     -33.464 127.794   5.234  1.00 79.60     0.045 C 
HETATM    3  C3  STQ 2 615     -32.133 128.526   5.326  1.00 80.06     0.123 C 
HETATM    4  C4  STQ 2 615     -31.720 128.659   6.778  1.00 79.91     0.066 C 
HETATM    5  C5  STQ 2 615     -32.791 129.402   7.530  1.00 78.96    -0.074 C 
HETATM    6  C6  STQ 2 615     -34.087 129.165   7.306  1.00 78.99    -0.048 C 
HETATM    7  C7  STQ 2 615     -35.090 129.747   8.228  1.00 78.77     0.009 C 
HETATM    8  C8  STQ 2 615     -35.471 131.020   8.105  1.00 79.10     0.007 C 
HETATM    9  C9  STQ 2 615     -36.466 131.624   9.011  1.00 80.39    -0.062 C 
HETATM   10  C10 STQ 2 615     -36.781 132.918   8.844  1.00 81.39     0.007 C 
HETATM   11  C11 STQ 2 615     -37.754 133.616   9.680  1.00 81.92     0.001 C 
HETATM   12  C12 STQ 2 615     -38.039 134.875   9.361  1.00 82.76     0.007 C 
HETATM   13  C13 STQ 2 615     -39.014 135.691  10.108  1.00 83.90    -0.062 C 
HETATM   14  C14 STQ 2 615     -39.467 136.814   9.533  1.00 84.98     0.007 C 
HETATM   15  C15 STQ 2 615     -40.452 137.685  10.167  1.00 86.34     0.001 C 
HETATM   16  C16 STQ 2 615     -35.328 127.113   6.699  1.00 79.93     0.020 C 
HETATM   17  C17 STQ 2 615     -35.523 129.168   5.315  1.00 80.89     0.020 C 
HETATM   18  C18 STQ 2 615     -32.338 130.045   8.807  1.00 77.35     0.044 C 
HETATM   19  C19 STQ 2 615     -37.100 130.809  10.098  1.00 80.43     0.048 C 
HETATM   20  C20 STQ 2 615     -39.485 135.273  11.470  1.00 83.80     0.048 C 
HETATM   21  O3  STQ 2 615     -31.134 127.779   4.621  1.00 80.93    -0.395 OA
ATOM     22  H3  STQ 2 615     -30.303 128.236   4.679  1.00  0.00     0.210 HD
HETATM   23  C21 STQ 2 615     -49.267 146.911  10.564  1.00 86.56    -0.035 C 
HETATM   24  C22 STQ 2 615     -50.364 147.683  11.280  1.00 85.76     0.045 C 
HETATM   25  C23 STQ 2 615     -49.988 149.141  11.499  1.00 84.08     0.142 C 
HETATM   26  C24 STQ 2 615     -48.592 149.265  12.061  1.00 85.20     0.007 C 
HETATM   27  C25 STQ 2 615     -47.652 148.319  11.905  1.00 86.87    -0.077 C 
HETATM   28  C26 STQ 2 615     -47.966 146.951  11.364  1.00 87.65     0.044 C 
HETATM   29  C27 STQ 2 615     -46.834 146.446  10.493  1.00 88.79    -0.016 C 
HETATM   30  C28 STQ 2 615     -46.195 145.338  10.863  1.00 89.77     0.003 C 
HETATM   31  C29 STQ 2 615     -45.094 144.763  10.069  1.00 89.92    -0.062 C 
HETATM   32  C30 STQ 2 615     -44.618 143.563  10.430  1.00 89.40     0.007 C 
HETATM   33  C31 STQ 2 615     -43.546 142.880   9.714  1.00 87.93     0.001 C 
HETATM   34  C32 STQ 2 615     -43.207 141.676  10.164  1.00 87.59     0.007 C 
HETATM   35  C33 STQ 2 615     -42.161 140.850   9.538  1.00 88.80    -0.062 C 
HETATM   36  C34 STQ 2 615     -41.843 139.672  10.101  1.00 88.99     0.007 C 
HETATM   37  C35 STQ 2 615     -40.838 138.786   9.522  1.00 88.02     0.001 C 
HETATM   38  C36 STQ 2 615     -49.051 147.479   9.165  1.00 86.59     0.016 C 
HETATM   39  C37 STQ 2 615     -49.710 145.458  10.434  1.00 84.95     0.016 C 
HETATM   40  C38 STQ 2 615     -46.242 148.628  12.308  1.00 87.30     0.044 C 
HETATM   41  C39 STQ 2 615     -44.529 145.493   8.886  1.00 89.99     0.048 C 
HETATM   42  C40 STQ 2 615     -41.476 141.315   8.288  1.00 89.61     0.048 C 
HETATM   43  O23 STQ 2 615     -50.911 149.733  12.422  1.00 82.24    -0.392 OA
ATOM     44  H23 STQ 2 615     -51.790 149.655  12.069  1.00  0.00     0.210 HD
ENDROOT
TORSDOF 12
