REMARK VINA RESULT:   -11.284      0.000      0.000
REMARK INTER + INTRA:         -11.670
REMARK INTER:                 -11.284
REMARK INTRA:                  -0.386
REMARK UNBOUND:                -0.386
REMARK  0 active torsions:
REMARK  status: ('A' for Active; 'I' for Inactive)
REMARK       I    between atoms: C3_3  and  O3_21 
REMARK       I    between atoms: C6_6  and  C7_7 
REMARK       I    between atoms: C8_8  and  C9_9 
REMARK       I    between atoms: C10_10  and  C11_11 
REMARK       I    between atoms: C12_12  and  C13_13 
REMARK       I    between atoms: C14_14  and  C15_15 
REMARK       I    between atoms: C23_25  and  O23_43 
REMARK       I    between atoms: C26_28  and  C27_29 
REMARK       I    between atoms: C28_30  and  C29_31 
REMARK       I    between atoms: C30_32  and  C31_33 
REMARK       I    between atoms: C32_34  and  C33_35 
REMARK       I    between atoms: C34_36  and  C35_37 
ROOT
HETATM    1  C1  STQ S1620     -34.224 128.112   6.802  1.00 51.40    -0.018 C 
HETATM    2  C2  STQ S1620     -33.618 127.657   5.483  1.00 51.40     0.045 C 
HETATM    3  C3  STQ S1620     -32.248 128.180   5.070  1.00 51.40     0.123 C 
HETATM    4  C4  STQ S1620     -31.485 128.812   6.213  1.00 51.40     0.066 C 
HETATM    5  C5  STQ S1620     -32.377 129.758   6.947  1.00 51.40    -0.074 C 
HETATM    6  C6  STQ S1620     -33.553 129.332   7.394  1.00 51.40    -0.048 C 
HETATM    7  C7  STQ S1620     -34.232 130.027   8.501  1.00 51.40     0.009 C 
HETATM    8  C8  STQ S1620     -34.926 131.131   8.269  1.00 51.40     0.007 C 
HETATM    9  C9  STQ S1620     -35.634 131.823   9.343  1.00 51.40    -0.062 C 
HETATM   10  C10 STQ S1620     -36.267 132.938   8.990  1.00 51.40     0.007 C 
HETATM   11  C11 STQ S1620     -37.062 133.774   9.866  1.00 51.40     0.001 C 
HETATM   12  C12 STQ S1620     -37.828 134.607   9.184  1.00 51.40     0.007 C 
HETATM   13  C13 STQ S1620     -38.765 135.549   9.793  1.00 51.40    -0.062 C 
HETATM   14  C14 STQ S1620     -39.552 136.237   8.966  1.00 51.40     0.007 C 
HETATM   15  C15 STQ S1620     -40.557 137.162   9.454  1.00 51.40     0.001 C 
HETATM   16  C16 STQ S1620     -34.213 126.926   7.757  1.00 51.40     0.020 C 
HETATM   17  C17 STQ S1620     -35.673 128.486   6.543  1.00 51.40     0.020 C 
HETATM   18  C18 STQ S1620     -31.462 130.613   7.769  1.00 51.40     0.044 C 
HETATM   19  C19 STQ S1620     -35.637 131.273  10.735  1.00 51.40     0.048 C 
HETATM   20  C20 STQ S1620     -38.835 135.708  11.275  1.00 51.40     0.048 C 
HETATM   21  O3  STQ S1620     -31.468 127.082   4.597  1.00 51.40    -0.395 OA
ATOM     22  H3  STQ S1620     -30.614 127.409   4.340  1.00  0.00     0.210 HD
HETATM   23  C21 STQ S1620     -50.841 144.127  10.635  1.00 51.40    -0.035 C 
HETATM   24  C22 STQ S1620     -51.891 144.757  11.531  1.00 51.40     0.045 C 
HETATM   25  C23 STQ S1620     -51.895 146.276  11.523  1.00 51.40     0.142 C 
HETATM   26  C24 STQ S1620     -50.502 146.853  11.527  1.00 51.40     0.007 C 
HETATM   27  C25 STQ S1620     -49.425 146.169  11.124  1.00 51.40    -0.077 C 
HETATM   28  C26 STQ S1620     -49.445 144.671  10.958  1.00 51.40     0.044 C 
HETATM   29  C27 STQ S1620     -48.462 144.224   9.899  1.00 51.40    -0.016 C 
HETATM   30  C28 STQ S1620     -47.447 143.447  10.256  1.00 51.40     0.003 C 
HETATM   31  C29 STQ S1620     -46.478 142.971   9.263  1.00 51.40    -0.062 C 
HETATM   32  C30 STQ S1620     -45.871 141.808   9.512  1.00 51.40     0.007 C 
HETATM   33  C31 STQ S1620     -44.905 141.189   8.619  1.00 51.40     0.001 C 
HETATM   34  C32 STQ S1620     -44.166 140.228   9.151  1.00 51.40     0.007 C 
HETATM   35  C33 STQ S1620     -43.160 139.464   8.402  1.00 51.40    -0.062 C 
HETATM   36  C34 STQ S1620     -42.376 138.657   9.118  1.00 51.40     0.007 C 
HETATM   37  C35 STQ S1620     -41.351 137.779   8.584  1.00 51.40     0.001 C 
HETATM   38  C36 STQ S1620     -51.220 144.317   9.168  1.00 51.40     0.016 C 
HETATM   39  C37 STQ S1620     -50.878 142.639  10.938  1.00 51.40     0.016 C 
HETATM   40  C38 STQ S1620     -48.166 146.935  10.851  1.00 51.40     0.044 C 
HETATM   41  C39 STQ S1620     -46.185 143.759   8.026  1.00 51.40     0.048 C 
HETATM   42  C40 STQ S1620     -43.053 139.573   6.913  1.00 51.40     0.048 C 
HETATM   43  O23 STQ S1620     -52.581 146.728  12.693  1.00 51.40    -0.392 OA
ATOM     44  H23 STQ S1620     -53.459 146.365  12.690  1.00  0.00     0.210 HD
ENDROOT
TORSDOF 12
