REMARK VINA RESULT:   -10.257      0.000      0.000
REMARK INTER + INTRA:         -12.704
REMARK INTER:                 -10.257
REMARK INTRA:                  -2.447
REMARK UNBOUND:                -2.447
REMARK  0 active torsions:
REMARK  status: ('A' for Active; 'I' for Inactive)
REMARK       I    between atoms: C3_3  and  O3_21 
REMARK       I    between atoms: C6_6  and  C7_7 
REMARK       I    between atoms: C8_8  and  C9_9 
REMARK       I    between atoms: C10_10  and  C11_11 
REMARK       I    between atoms: C12_12  and  C13_13 
REMARK       I    between atoms: C14_14  and  C15_15 
REMARK       I    between atoms: C23_25  and  O23_43 
REMARK       I    between atoms: C26_28  and  C27_29 
REMARK       I    between atoms: C28_30  and  C29_31 
REMARK       I    between atoms: C30_32  and  C31_33 
REMARK       I    between atoms: C32_34  and  C33_35 
REMARK       I    between atoms: C34_36  and  C35_37 
ROOT
HETATM    1  C1  STQ Z 619     -34.478 126.959   6.391  1.00 43.24    -0.018 C 
HETATM    2  C2  STQ Z 619     -34.152 126.396   5.005  1.00 43.24     0.045 C 
HETATM    3  C3  STQ Z 619     -33.024 127.047   4.205  1.00 43.24     0.123 C 
HETATM    4  C4  STQ Z 619     -31.973 127.681   5.095  1.00 43.24     0.066 C 
HETATM    5  C5  STQ Z 619     -32.651 128.626   6.046  1.00 43.24    -0.074 C 
HETATM    6  C6  STQ Z 619     -33.732 128.241   6.733  1.00 43.24    -0.048 C 
HETATM    7  C7  STQ Z 619     -34.198 129.085   7.864  1.00 43.24     0.009 C 
HETATM    8  C8  STQ Z 619     -35.092 130.056   7.671  1.00 43.24     0.007 C 
HETATM    9  C9  STQ Z 619     -35.580 130.940   8.742  1.00 43.24    -0.062 C 
HETATM   10  C10 STQ Z 619     -36.447 131.890   8.383  1.00 43.24     0.007 C 
HETATM   11  C11 STQ Z 619     -37.010 132.866   9.304  1.00 43.24     0.001 C 
HETATM   12  C12 STQ Z 619     -37.742 133.820   8.742  1.00 43.24     0.007 C 
HETATM   13  C13 STQ Z 619     -38.367 134.894   9.524  1.00 43.24    -0.062 C 
HETATM   14  C14 STQ Z 619     -39.243 135.704   8.915  1.00 43.24     0.007 C 
HETATM   15  C15 STQ Z 619     -39.880 136.796   9.638  1.00 43.24     0.001 C 
HETATM   16  C16 STQ Z 619     -34.188 125.850   7.397  1.00 43.24     0.020 C 
HETATM   17  C17 STQ Z 619     -35.967 127.267   6.452  1.00 43.24     0.020 C 
HETATM   18  C18 STQ Z 619     -31.741 129.717   6.539  1.00 43.24     0.044 C 
HETATM   19  C19 STQ Z 619     -35.112 130.797  10.158  1.00 43.24     0.048 C 
HETATM   20  C20 STQ Z 619     -38.007 135.081  10.968  1.00 43.24     0.048 C 
HETATM   21  O3  STQ Z 619     -32.388 126.047   3.402  1.00 43.24    -0.395 OA
ATOM     22  H3  STQ Z 619     -33.047 125.650   2.845  1.00  0.00     0.210 HD
HETATM   23  C21 STQ Z 619     -48.053 146.408  11.625  1.00 43.24    -0.035 C 
HETATM   24  C22 STQ Z 619     -48.750 147.686  12.082  1.00 43.24     0.045 C 
HETATM   25  C23 STQ Z 619     -48.774 148.766  11.010  1.00 43.24     0.142 C 
HETATM   26  C24 STQ Z 619     -47.383 148.983  10.474  1.00 43.24     0.007 C 
HETATM   27  C25 STQ Z 619     -46.489 147.990  10.368  1.00 43.24    -0.077 C 
HETATM   28  C26 STQ Z 619     -46.628 146.689  11.124  1.00 43.24     0.044 C 
HETATM   29  C27 STQ Z 619     -46.111 145.561  10.254  1.00 43.24    -0.016 C 
HETATM   30  C28 STQ Z 619     -45.147 144.756  10.693  1.00 43.24     0.003 C 
HETATM   31  C29 STQ Z 619     -44.646 143.670   9.834  1.00 43.24    -0.062 C 
HETATM   32  C30 STQ Z 619     -44.026 142.621  10.390  1.00 43.24     0.007 C 
HETATM   33  C31 STQ Z 619     -43.511 141.538   9.560  1.00 43.24     0.001 C 
HETATM   34  C32 STQ Z 619     -42.865 140.524  10.124  1.00 43.24     0.007 C 
HETATM   35  C33 STQ Z 619     -42.330 139.437   9.289  1.00 43.24    -0.062 C 
HETATM   36  C34 STQ Z 619     -41.363 138.665   9.796  1.00 43.24     0.007 C 
HETATM   37  C35 STQ Z 619     -40.767 137.576   9.033  1.00 43.24     0.001 C 
HETATM   38  C36 STQ Z 619     -48.914 145.725  10.564  1.00 43.24     0.016 C 
HETATM   39  C37 STQ Z 619     -47.965 145.484  12.836  1.00 43.24     0.016 C 
HETATM   40  C38 STQ Z 619     -45.303 148.194   9.468  1.00 43.24     0.044 C 
HETATM   41  C39 STQ Z 619     -44.825 143.756   8.345  1.00 43.24     0.048 C 
HETATM   42  C40 STQ Z 619     -42.863 139.205   7.905  1.00 43.24     0.048 C 
HETATM   43  O23 STQ Z 619     -49.243 149.990  11.584  1.00 43.24    -0.392 OA
ATOM     44  H23 STQ Z 619     -49.259 150.664  10.915  1.00  0.00     0.210 HD
ENDROOT
TORSDOF 12
