REMARK VINA RESULT:    -5.932      0.000      0.000
REMARK INTER + INTRA:         -10.736
REMARK INTER:                  -5.932
REMARK INTRA:                  -4.804
REMARK UNBOUND:                -4.804
REMARK  0 active torsions:
REMARK  status: ('A' for Active; 'I' for Inactive)
REMARK       I    between atoms: C3_3  and  O3_21 
REMARK       I    between atoms: C6_6  and  C7_7 
REMARK       I    between atoms: C8_8  and  C9_9 
REMARK       I    between atoms: C10_10  and  C11_11 
REMARK       I    between atoms: C12_12  and  C13_13 
REMARK       I    between atoms: C14_14  and  C15_15 
REMARK       I    between atoms: C23_25  and  O23_43 
REMARK       I    between atoms: C26_28  and  C27_29 
REMARK       I    between atoms: C28_30  and  C29_31 
REMARK       I    between atoms: C30_32  and  C31_33 
REMARK       I    between atoms: C32_34  and  C33_35 
REMARK       I    between atoms: C34_36  and  C35_37 
ROOT
HETATM    1  C1  STQ Y1621     -34.650 127.091   5.329  1.00 37.60    -0.018 C 
HETATM    2  C2  STQ Y1621     -34.108 126.313   4.142  1.00 37.60     0.045 C 
HETATM    3  C3  STQ Y1621     -32.846 126.854   3.510  1.00 37.60     0.123 C 
HETATM    4  C4  STQ Y1621     -31.819 127.107   4.582  1.00 37.60     0.066 C 
HETATM    5  C5  STQ Y1621     -32.347 127.963   5.691  1.00 37.60    -0.074 C 
HETATM    6  C6  STQ Y1621     -33.626 127.907   6.092  1.00 37.60    -0.048 C 
HETATM    7  C7  STQ Y1621     -34.078 128.603   7.327  1.00 37.60     0.009 C 
HETATM    8  C8  STQ Y1621     -34.394 129.902   7.369  1.00 37.60     0.007 C 
HETATM    9  C9  STQ Y1621     -34.849 130.560   8.595  1.00 37.60    -0.062 C 
HETATM   10  C10 STQ Y1621     -35.614 131.639   8.439  1.00 37.60     0.007 C 
HETATM   11  C11 STQ Y1621     -36.185 132.423   9.521  1.00 37.60     0.001 C 
HETATM   12  C12 STQ Y1621     -37.006 133.367   9.091  1.00 37.60     0.007 C 
HETATM   13  C13 STQ Y1621     -37.764 134.303   9.924  1.00 37.60    -0.062 C 
HETATM   14  C14 STQ Y1621     -38.428 135.285   9.310  1.00 37.60     0.007 C 
HETATM   15  C15 STQ Y1621     -39.231 136.224  10.075  1.00 37.60     0.001 C 
HETATM   16  C16 STQ Y1621     -35.369 126.075   6.202  1.00 37.60     0.020 C 
HETATM   17  C17 STQ Y1621     -35.674 128.082   4.825  1.00 37.60     0.020 C 
HETATM   18  C18 STQ Y1621     -31.264 128.610   6.499  1.00 37.60     0.044 C 
HETATM   19  C19 STQ Y1621     -34.469 130.045   9.943  1.00 37.60     0.048 C 
HETATM   20  C20 STQ Y1621     -37.813 134.149  11.410  1.00 37.60     0.048 C 
HETATM   21  O3  STQ Y1621     -32.314 125.850   2.648  1.00 37.60    -0.395 OA
ATOM     22  H3  STQ Y1621     -32.962 125.690   1.972  1.00  0.00     0.210 HD
HETATM   23  C21 STQ Y1621     -47.260 145.766  12.594  1.00 37.60    -0.035 C 
HETATM   24  C22 STQ Y1621     -48.013 146.654  13.566  1.00 37.60     0.045 C 
HETATM   25  C23 STQ Y1621     -47.304 147.972  13.807  1.00 37.60     0.142 C 
HETATM   26  C24 STQ Y1621     -45.865 147.724  14.179  1.00 37.60     0.007 C 
HETATM   27  C25 STQ Y1621     -45.183 146.661  13.735  1.00 37.60    -0.077 C 
HETATM   28  C26 STQ Y1621     -45.846 145.474  13.096  1.00 37.60     0.044 C 
HETATM   29  C27 STQ Y1621     -44.973 144.952  11.978  1.00 37.60    -0.016 C 
HETATM   30  C28 STQ Y1621     -44.549 143.697  12.013  1.00 37.60     0.003 C 
HETATM   31  C29 STQ Y1621     -43.701 143.144  10.952  1.00 37.60    -0.062 C 
HETATM   32  C30 STQ Y1621     -43.525 141.826  10.955  1.00 37.60     0.007 C 
HETATM   33  C31 STQ Y1621     -42.721 141.096   9.993  1.00 37.60     0.001 C 
HETATM   34  C32 STQ Y1621     -42.065 140.067  10.501  1.00 37.60     0.007 C 
HETATM   35  C33 STQ Y1621     -41.212 139.200   9.688  1.00 37.60    -0.062 C 
HETATM   36  C34 STQ Y1621     -40.566 138.195  10.277  1.00 37.60     0.007 C 
HETATM   37  C35 STQ Y1621     -39.734 137.297   9.492  1.00 37.60     0.001 C 
HETATM   38  C36 STQ Y1621     -47.270 146.397  11.205  1.00 37.60     0.016 C 
HETATM   39  C37 STQ Y1621     -48.009 144.449  12.524  1.00 37.60     0.016 C 
HETATM   40  C38 STQ Y1621     -43.699 146.632  13.907  1.00 37.60     0.044 C 
HETATM   41  C39 STQ Y1621     -43.070 144.031   9.929  1.00 37.60     0.048 C 
HETATM   42  C40 STQ Y1621     -41.099 139.438   8.221  1.00 37.60     0.048 C 
HETATM   43  O23 STQ Y1621     -47.969 148.629  14.887  1.00 37.60    -0.392 OA
ATOM     44  H23 STQ Y1621     -47.525 149.456  15.037  1.00  0.00     0.210 HD
ENDROOT
TORSDOF 12
