REMARK VINA RESULT:    -8.965      0.000      0.000
REMARK INTER + INTRA:         -11.584
REMARK INTER:                  -8.965
REMARK INTRA:                  -2.620
REMARK UNBOUND:                -2.620
REMARK  0 active torsions:
REMARK  status: ('A' for Active; 'I' for Inactive)
REMARK       I    between atoms: C3_3  and  O3_21 
REMARK       I    between atoms: C6_6  and  C7_7 
REMARK       I    between atoms: C8_8  and  C9_9 
REMARK       I    between atoms: C10_10  and  C11_11 
REMARK       I    between atoms: C12_12  and  C13_13 
REMARK       I    between atoms: C14_14  and  C15_15 
REMARK       I    between atoms: C23_25  and  O23_43 
REMARK       I    between atoms: C26_28  and  C27_29 
REMARK       I    between atoms: C28_30  and  C29_31 
REMARK       I    between atoms: C30_32  and  C31_33 
REMARK       I    between atoms: C32_34  and  C33_35 
REMARK       I    between atoms: C34_36  and  C35_37 
ROOT
HETATM    1  C1  STQ C2620     -34.518 126.957   6.346  1.00 23.07    -0.018 C 
HETATM    2  C2  STQ C2620     -34.096 126.242   5.049  1.00 21.39     0.045 C 
HETATM    3  C3  STQ C2620     -33.023 126.901   4.189  1.00 23.10     0.123 C 
HETATM    4  C4  STQ C2620     -32.021 127.757   4.969  1.00 23.25     0.066 C 
HETATM    5  C5  STQ C2620     -32.536 128.559   6.122  1.00 22.57    -0.074 C 
HETATM    6  C6  STQ C2620     -33.692 128.210   6.780  1.00 22.63    -0.048 C 
HETATM    7  C7  STQ C2620     -34.197 128.996   7.916  1.00 23.01     0.009 C 
HETATM    8  C8  STQ C2620     -34.857 130.166   7.832  1.00 21.85     0.007 C 
HETATM    9  C9  STQ C2620     -35.272 131.039   8.925  1.00 21.21    -0.062 C 
HETATM   10  C10 STQ C2620     -36.023 132.118   8.613  1.00 18.43     0.007 C 
HETATM   11  C11 STQ C2620     -36.560 133.084   9.528  1.00 19.90     0.001 C 
HETATM   12  C12 STQ C2620     -37.431 134.020   9.100  1.00 21.34     0.007 C 
HETATM   13  C13 STQ C2620     -38.121 135.051   9.888  1.00 23.03    -0.062 C 
HETATM   14  C14 STQ C2620     -39.033 135.818   9.251  1.00 23.84     0.007 C 
HETATM   15  C15 STQ C2620     -39.881 136.821   9.830  1.00 23.61     0.001 C 
HETATM   16  C16 STQ C2620     -34.385 125.850   7.409  1.00 21.40     0.020 C 
HETATM   17  C17 STQ C2620     -36.014 127.318   6.211  1.00 21.74     0.020 C 
HETATM   18  C18 STQ C2620     -31.597 129.686   6.371  1.00 21.99     0.044 C 
HETATM   19  C19 STQ C2620     -34.880 130.641  10.326  1.00 18.93     0.048 C 
HETATM   20  C20 STQ C2620     -37.822 135.144  11.356  1.00 19.82     0.048 C 
HETATM   21  O3  STQ C2620     -32.339 125.926   3.425  1.00 24.94    -0.395 OA
ATOM     22  H3  STQ C2620     -31.670 126.337   2.890  1.00  0.00     0.210 HD
HETATM   23  C21 STQ C2620     -49.753 144.662  12.434  1.00 28.10    -0.035 C 
HETATM   24  C22 STQ C2620     -50.621 145.664  13.241  1.00 27.06     0.045 C 
HETATM   25  C23 STQ C2620     -50.447 147.141  12.857  1.00 27.20     0.142 C 
HETATM   26  C24 STQ C2620     -48.992 147.496  12.517  1.00 26.01     0.007 C 
HETATM   27  C25 STQ C2620     -48.045 146.574  12.239  1.00 26.36    -0.077 C 
HETATM   28  C26 STQ C2620     -48.262 145.069  12.225  1.00 26.43     0.044 C 
HETATM   29  C27 STQ C2620     -47.561 144.430  11.042  1.00 27.89    -0.016 C 
HETATM   30  C28 STQ C2620     -46.621 143.452  11.143  1.00 28.38     0.003 C 
HETATM   31  C29 STQ C2620     -45.948 142.746  10.035  1.00 28.48    -0.062 C 
HETATM   32  C30 STQ C2620     -45.030 141.804  10.334  1.00 28.77     0.007 C 
HETATM   33  C31 STQ C2620     -44.307 140.990   9.397  1.00 29.15     0.001 C 
HETATM   34  C32 STQ C2620     -43.371 140.113   9.796  1.00 28.55     0.007 C 
HETATM   35  C33 STQ C2620     -42.541 139.218   8.986  1.00 27.96    -0.062 C 
HETATM   36  C34 STQ C2620     -41.644 138.444   9.634  1.00 26.60     0.007 C 
HETATM   37  C35 STQ C2620     -40.742 137.489   9.071  1.00 25.80     0.001 C 
HETATM   38  C36 STQ C2620     -50.461 144.449  11.059  1.00 25.16     0.016 C 
HETATM   39  C37 STQ C2620     -49.797 143.324  13.191  1.00 25.18     0.016 C 
HETATM   40  C38 STQ C2620     -46.696 147.139  11.969  1.00 26.12     0.044 C 
HETATM   41  C39 STQ C2620     -46.312 143.126   8.632  1.00 27.66     0.048 C 
HETATM   42  C40 STQ C2620     -42.739 139.232   7.495  1.00 25.55     0.048 C 
HETATM   43  O23 STQ C2620     -50.943 147.986  13.890  1.00 23.90    -0.392 OA
ATOM     44  H23 STQ C2620     -51.843 147.766  14.100  1.00  0.00     0.210 HD
ENDROOT
TORSDOF 12
