REMARK VINA RESULT:    -9.160      0.000      0.000
REMARK INTER + INTRA:         -11.458
REMARK INTER:                  -9.160
REMARK INTRA:                  -2.298
REMARK UNBOUND:                -2.298
REMARK  0 active torsions:
REMARK  status: ('A' for Active; 'I' for Inactive)
REMARK       I    between atoms: C3_3  and  O3_21 
REMARK       I    between atoms: C6_6  and  C7_7 
REMARK       I    between atoms: C8_8  and  C9_9 
REMARK       I    between atoms: C10_10  and  C11_11 
REMARK       I    between atoms: C12_12  and  C13_13 
REMARK       I    between atoms: C14_14  and  C15_15 
REMARK       I    between atoms: C23_25  and  O23_43 
REMARK       I    between atoms: C26_28  and  C27_29 
REMARK       I    between atoms: C28_30  and  C29_31 
REMARK       I    between atoms: C30_32  and  C31_33 
REMARK       I    between atoms: C32_34  and  C33_35 
REMARK       I    between atoms: C34_36  and  C35_37 
ROOT
HETATM    1  C1  STQ 7 622     -48.320 145.864  12.697  1.00 13.75    -0.018 C 
HETATM    2  C2  STQ 7 622     -49.275 146.439  13.733  1.00 13.75     0.045 C 
HETATM    3  C3  STQ 7 622     -48.580 146.954  14.972  1.00 13.75     0.123 C 
HETATM    4  C4  STQ 7 622     -47.572 147.992  14.556  1.00 13.75     0.066 C 
HETATM    5  C5  STQ 7 622     -46.567 147.371  13.633  1.00 13.75    -0.074 C 
HETATM    6  C6  STQ 7 622     -46.912 146.439  12.728  1.00 13.75    -0.048 C 
HETATM    7  C7  STQ 7 622     -45.975 145.950  11.676  1.00 13.75     0.009 C 
HETATM    8  C8  STQ 7 622     -45.003 145.048  11.868  1.00 13.75     0.007 C 
HETATM    9  C9  STQ 7 622     -44.136 144.587  10.767  1.00 13.75    -0.062 C 
HETATM   10  C10 STQ 7 622     -43.443 143.458  10.962  1.00 13.75     0.007 C 
HETATM   11  C11 STQ 7 622     -42.561 142.825   9.987  1.00 13.75     0.001 C 
HETATM   12  C12 STQ 7 622     -42.248 141.566  10.271  1.00 13.75     0.007 C 
HETATM   13  C13 STQ 7 622     -41.404 140.669   9.465  1.00 13.75    -0.062 C 
HETATM   14  C14 STQ 7 622     -41.026 139.509  10.025  1.00 13.75     0.007 C 
HETATM   15  C15 STQ 7 622     -40.228 138.513   9.327  1.00 13.75     0.001 C 
HETATM   16  C16 STQ 7 622     -48.975 146.090  11.342  1.00 13.75     0.020 C 
HETATM   17  C17 STQ 7 622     -48.194 144.371  12.955  1.00 13.75     0.020 C 
HETATM   18  C18 STQ 7 622     -45.259 148.091  13.613  1.00 13.75     0.044 C 
HETATM   19  C19 STQ 7 622     -44.048 145.351   9.481  1.00 13.75     0.048 C 
HETATM   20  C20 STQ 7 622     -41.016 141.015   8.059  1.00 13.75     0.048 C 
HETATM   21  O3  STQ 7 622     -49.535 147.555  15.848  1.00 13.75    -0.395 OA
ATOM     22  H3  STQ 7 622     -50.171 146.900  16.110  1.00  0.00     0.210 HD
HETATM   23  C21 STQ 7 622     -34.401 127.376   6.571  1.00 13.75    -0.035 C 
HETATM   24  C22 STQ 7 622     -33.756 126.652   5.397  1.00 13.75     0.045 C 
HETATM   25  C23 STQ 7 622     -32.291 127.002   5.181  1.00 13.75     0.142 C 
HETATM   26  C24 STQ 7 622     -32.035 128.481   5.316  1.00 13.75     0.007 C 
HETATM   27  C25 STQ 7 622     -32.814 129.290   6.041  1.00 13.75    -0.077 C 
HETATM   28  C26 STQ 7 622     -34.211 128.896   6.448  1.00 13.75     0.044 C 
HETATM   29  C27 STQ 7 622     -34.638 129.593   7.726  1.00 13.75    -0.016 C 
HETATM   30  C28 STQ 7 622     -35.619 130.484   7.634  1.00 13.75     0.003 C 
HETATM   31  C29 STQ 7 622     -36.167 131.231   8.776  1.00 13.75    -0.062 C 
HETATM   32  C30 STQ 7 622     -37.082 132.164   8.490  1.00 13.75     0.007 C 
HETATM   33  C31 STQ 7 622     -37.761 132.994   9.475  1.00 13.75     0.001 C 
HETATM   34  C32 STQ 7 622     -38.229 134.147   9.018  1.00 13.75     0.007 C 
HETATM   35  C33 STQ 7 622     -38.962 135.129   9.831  1.00 13.75    -0.062 C 
HETATM   36  C34 STQ 7 622     -39.295 136.286   9.243  1.00 13.75     0.007 C 
HETATM   37  C35 STQ 7 622     -40.051 137.333   9.915  1.00 13.75     0.001 C 
HETATM   38  C36 STQ 7 622     -33.862 126.831   7.891  1.00 13.75     0.016 C 
HETATM   39  C37 STQ 7 622     -35.888 127.050   6.529  1.00 13.75     0.016 C 
HETATM   40  C38 STQ 7 622     -32.255 130.628   6.415  1.00 13.75     0.044 C 
HETATM   41  C39 STQ 7 622     -35.736 130.946  10.180  1.00 13.75     0.048 C 
HETATM   42  C40 STQ 7 622     -39.334 134.836  11.253  1.00 13.75     0.048 C 
HETATM   43  O23 STQ 7 622     -31.889 126.600   3.868  1.00 13.75    -0.392 OA
ATOM     44  H23 STQ 7 622     -30.974 126.818   3.733  1.00  0.00     0.210 HD
ENDROOT
TORSDOF 12
