REMARK VINA RESULT:    -6.647      1.810      2.419
REMARK INTER + INTRA:          -7.655
REMARK INTER:                  -1.570
REMARK INTRA:                  -6.084
REMARK UNBOUND:                -1.008
REMARK  0 active torsions:
REMARK  status: ('A' for Active; 'I' for Inactive)
REMARK       I    between atoms: C3_3  and  O3_21 
REMARK       I    between atoms: C6_6  and  C7_7 
REMARK       I    between atoms: C8_8  and  C9_9 
REMARK       I    between atoms: C10_10  and  C11_11 
REMARK       I    between atoms: C12_12  and  C13_13 
REMARK       I    between atoms: C14_14  and  C15_15 
REMARK       I    between atoms: C23_25  and  O23_43 
REMARK       I    between atoms: C26_28  and  C27_29 
REMARK       I    between atoms: C28_30  and  C29_31 
REMARK       I    between atoms: C30_32  and  C31_33 
REMARK       I    between atoms: C32_34  and  C33_35 
REMARK       I    between atoms: C34_36  and  C35_37 
ROOT
HETATM    1  C1  STQ 5 620     -50.280 145.972   8.450  1.00 42.32    -0.018 C 
HETATM    2  C2  STQ 5 620     -50.934 144.609   8.659  1.00 42.32     0.045 C 
HETATM    3  C3  STQ 5 620     -51.127 144.211  10.118  1.00 42.32     0.123 C 
HETATM    4  C4  STQ 5 620     -51.433 145.433  10.964  1.00 42.32     0.066 C 
HETATM    5  C5  STQ 5 620     -50.267 146.378  10.871  1.00 42.32    -0.074 C 
HETATM    6  C6  STQ 5 620     -49.622 146.484   9.709  1.00 42.32    -0.048 C 
HETATM    7  C7  STQ 5 620     -48.171 146.688   9.668  1.00 42.32     0.009 C 
HETATM    8  C8  STQ 5 620     -47.621 145.487   9.908  1.00 42.32     0.007 C 
HETATM    9  C9  STQ 5 620     -46.157 145.237   9.907  1.00 42.32    -0.062 C 
HETATM   10  C10 STQ 5 620     -45.749 143.959  10.053  1.00 42.32     0.007 C 
HETATM   11  C11 STQ 5 620     -44.349 143.533  10.007  1.00 42.32     0.001 C 
HETATM   12  C12 STQ 5 620     -44.064 142.238  10.024  1.00 42.32     0.007 C 
HETATM   13  C13 STQ 5 620     -42.679 141.752   9.891  1.00 42.32    -0.062 C 
HETATM   14  C14 STQ 5 620     -42.545 140.429   9.728  1.00 42.32     0.007 C 
HETATM   15  C15 STQ 5 620     -41.298 139.704   9.519  1.00 42.32     0.001 C 
HETATM   16  C16 STQ 5 620     -51.349 146.951   7.981  1.00 42.32     0.020 C 
HETATM   17  C17 STQ 5 620     -49.199 145.851   7.387  1.00 42.32     0.020 C 
HETATM   18  C18 STQ 5 620     -49.607 146.538  12.210  1.00 42.32     0.044 C 
HETATM   19  C19 STQ 5 620     -45.187 146.373   9.730  1.00 42.32     0.048 C 
HETATM   20  C20 STQ 5 620     -41.528 142.714   9.880  1.00 42.32     0.048 C 
HETATM   21  O3  STQ 5 620     -52.224 143.297  10.221  1.00 42.32    -0.395 OA
ATOM     22  H3  STQ 5 620     -52.345 143.049  11.130  1.00  0.00     0.210 HD
HETATM   23  C21 STQ 5 620     -34.310 129.810   6.441  1.00 42.32    -0.035 C 
HETATM   24  C22 STQ 5 620     -32.892 129.491   6.033  1.00 42.32     0.045 C 
HETATM   25  C23 STQ 5 620     -32.290 128.450   6.948  1.00 42.32     0.142 C 
HETATM   26  C24 STQ 5 620     -32.550 128.782   8.398  1.00 42.32     0.007 C 
HETATM   27  C25 STQ 5 620     -33.463 129.680   8.798  1.00 42.32    -0.077 C 
HETATM   28  C26 STQ 5 620     -34.322 130.437   7.830  1.00 42.32     0.044 C 
HETATM   29  C27 STQ 5 620     -35.782 130.571   8.203  1.00 42.32    -0.016 C 
HETATM   30  C28 STQ 5 620     -36.237 131.798   8.387  1.00 42.32     0.003 C 
HETATM   31  C29 STQ 5 620     -37.641 132.110   8.663  1.00 42.32    -0.062 C 
HETATM   32  C30 STQ 5 620     -37.903 133.421   8.660  1.00 42.32     0.007 C 
HETATM   33  C31 STQ 5 620     -39.203 134.038   8.861  1.00 42.32     0.001 C 
HETATM   34  C32 STQ 5 620     -39.217 135.365   8.825  1.00 42.32     0.007 C 
HETATM   35  C33 STQ 5 620     -40.432 136.161   9.026  1.00 42.32    -0.062 C 
HETATM   36  C34 STQ 5 620     -40.296 137.500   9.124  1.00 42.32     0.007 C 
HETATM   37  C35 STQ 5 620     -41.428 138.395   9.350  1.00 42.32     0.001 C 
HETATM   38  C36 STQ 5 620     -35.149 128.542   6.388  1.00 42.32     0.016 C 
HETATM   39  C37 STQ 5 620     -34.882 130.803   5.442  1.00 42.32     0.016 C 
HETATM   40  C38 STQ 5 620     -33.566 129.989  10.255  1.00 42.32     0.044 C 
HETATM   41  C39 STQ 5 620     -38.663 131.025   8.831  1.00 42.32     0.048 C 
HETATM   42  C40 STQ 5 620     -41.733 135.423   9.114  1.00 42.32     0.048 C 
HETATM   43  O23 STQ 5 620     -30.885 128.445   6.699  1.00 42.32    -0.392 OA
ATOM     44  H23 STQ 5 620     -30.506 127.790   7.273  1.00  0.00     0.210 HD
ENDROOT
TORSDOF 12
