REMARK VINA RESULT:    -7.995      0.000      0.000
REMARK INTER + INTRA:         -10.562
REMARK INTER:                  -7.995
REMARK INTRA:                  -2.568
REMARK UNBOUND:                -2.568
REMARK  0 active torsions:
REMARK  status: ('A' for Active; 'I' for Inactive)
REMARK       I    between atoms: C3_3  and  O3_21 
REMARK       I    between atoms: C6_6  and  C7_7 
REMARK       I    between atoms: C8_8  and  C9_9 
REMARK       I    between atoms: C10_10  and  C11_11 
REMARK       I    between atoms: C12_12  and  C13_13 
REMARK       I    between atoms: C14_14  and  C15_15 
REMARK       I    between atoms: C23_25  and  O23_43 
REMARK       I    between atoms: C26_28  and  C27_29 
REMARK       I    between atoms: C28_30  and  C29_31 
REMARK       I    between atoms: C30_32  and  C31_33 
REMARK       I    between atoms: C32_34  and  C33_35 
REMARK       I    between atoms: C34_36  and  C35_37 
ROOT
HETATM    1  C1  STQ 7 619     -33.485 129.318   6.959  1.00 33.87    -0.018 C 
HETATM    2  C2  STQ 7 619     -33.078 130.327   5.894  1.00 33.87     0.045 C 
HETATM    3  C3  STQ 7 619     -32.095 131.380   6.382  1.00 33.87     0.123 C 
HETATM    4  C4  STQ 7 619     -31.159 130.780   7.415  1.00 33.87     0.066 C 
HETATM    5  C5  STQ 7 619     -31.975 130.344   8.598  1.00 33.87    -0.074 C 
HETATM    6  C6  STQ 7 619     -33.165 129.781   8.355  1.00 33.87    -0.048 C 
HETATM    7  C7  STQ 7 619     -34.287 129.902   9.281  1.00 33.87     0.009 C 
HETATM    8  C8  STQ 7 619     -34.625 131.195   9.342  1.00 33.87     0.007 C 
HETATM    9  C9  STQ 7 619     -35.839 131.660  10.047  1.00 33.87    -0.062 C 
HETATM   10  C10 STQ 7 619     -36.255 132.915   9.789  1.00 33.87     0.007 C 
HETATM   11  C11 STQ 7 619     -37.488 133.501  10.319  1.00 33.87     0.001 C 
HETATM   12  C12 STQ 7 619     -37.879 134.697   9.890  1.00 33.87     0.007 C 
HETATM   13  C13 STQ 7 619     -39.149 135.313  10.322  1.00 33.87    -0.062 C 
HETATM   14  C14 STQ 7 619     -39.518 136.429   9.673  1.00 33.87     0.007 C 
HETATM   15  C15 STQ 7 619     -40.751 137.175   9.907  1.00 33.87     0.001 C 
HETATM   16  C16 STQ 7 619     -32.718 128.017   6.755  1.00 33.87     0.020 C 
HETATM   17  C17 STQ 7 619     -34.981 129.050   6.873  1.00 33.87     0.020 C 
HETATM   18  C18 STQ 7 619     -31.594 131.042   9.875  1.00 33.87     0.044 C 
HETATM   19  C19 STQ 7 619     -36.578 130.725  10.966  1.00 33.87     0.048 C 
HETATM   20  C20 STQ 7 619     -39.968 134.673  11.405  1.00 33.87     0.048 C 
HETATM   21  O3  STQ 7 619     -31.320 131.848   5.276  1.00 33.87    -0.395 OA
ATOM     22  H3  STQ 7 619     -30.706 132.506   5.581  1.00  0.00     0.210 HD
HETATM   23  C21 STQ 7 619     -50.047 145.450   8.469  1.00 33.87    -0.035 C 
HETATM   24  C22 STQ 7 619     -51.379 145.957   8.957  1.00 33.87     0.045 C 
HETATM   25  C23 STQ 7 619     -51.295 147.410   9.363  1.00 33.87     0.142 C 
HETATM   26  C24 STQ 7 619     -50.091 147.668  10.231  1.00 33.87     0.007 C 
HETATM   27  C25 STQ 7 619     -49.062 146.819  10.334  1.00 33.87    -0.077 C 
HETATM   28  C26 STQ 7 619     -49.016 145.524   9.585  1.00 33.87     0.044 C 
HETATM   29  C27 STQ 7 619     -47.673 145.282   8.949  1.00 33.87    -0.016 C 
HETATM   30  C28 STQ 7 619     -47.058 144.143   9.216  1.00 33.87     0.003 C 
HETATM   31  C29 STQ 7 619     -45.767 143.794   8.615  1.00 33.87    -0.062 C 
HETATM   32  C30 STQ 7 619     -45.294 142.585   8.938  1.00 33.87     0.007 C 
HETATM   33  C31 STQ 7 619     -44.036 142.024   8.470  1.00 33.87     0.001 C 
HETATM   34  C32 STQ 7 619     -43.705 140.845   8.967  1.00 33.87     0.007 C 
HETATM   35  C33 STQ 7 619     -42.451 140.157   8.639  1.00 33.87    -0.062 C 
HETATM   36  C34 STQ 7 619     -42.179 139.039   9.334  1.00 33.87     0.007 C 
HETATM   37  C35 STQ 7 619     -40.968 138.245   9.158  1.00 33.87     0.001 C 
HETATM   38  C36 STQ 7 619     -49.618 146.254   7.252  1.00 33.87     0.016 C 
HETATM   39  C37 STQ 7 619     -50.225 144.000   8.053  1.00 33.87     0.016 C 
HETATM   40  C38 STQ 7 619     -47.939 147.164  11.258  1.00 33.87     0.044 C 
HETATM   41  C39 STQ 7 619     -45.096 144.744   7.672  1.00 33.87     0.048 C 
HETATM   42  C40 STQ 7 619     -41.556 140.754   7.595  1.00 33.87     0.048 C 
HETATM   43  O23 STQ 7 619     -52.473 147.688  10.113  1.00 33.87    -0.392 OA
ATOM     44  H23 STQ 7 619     -52.421 148.602  10.368  1.00  0.00     0.210 HD
ENDROOT
TORSDOF 12
