REMARK VINA RESULT:    -5.759      0.643      0.961
REMARK INTER + INTRA:         -10.125
REMARK INTER:                  -5.359
REMARK INTRA:                  -4.766
REMARK UNBOUND:                -4.366
REMARK  0 active torsions:
REMARK  status: ('A' for Active; 'I' for Inactive)
REMARK       I    between atoms: C3_3  and  O3_21 
REMARK       I    between atoms: C6_6  and  C7_7 
REMARK       I    between atoms: C8_8  and  C9_9 
REMARK       I    between atoms: C10_10  and  C11_11 
REMARK       I    between atoms: C12_12  and  C13_13 
REMARK       I    between atoms: C14_14  and  C15_15 
REMARK       I    between atoms: C23_25  and  O23_43 
REMARK       I    between atoms: C26_28  and  C27_29 
REMARK       I    between atoms: C28_30  and  C29_31 
REMARK       I    between atoms: C30_32  and  C31_33 
REMARK       I    between atoms: C32_34  and  C33_35 
REMARK       I    between atoms: C34_36  and  C35_37 
ROOT
HETATM    1  C1  STQ 8 618     -34.487 127.058   5.537  1.00 13.13    -0.018 C 
HETATM    2  C2  STQ 8 618     -33.907 126.225   4.403  1.00 13.13     0.045 C 
HETATM    3  C3  STQ 8 618     -32.708 126.832   3.712  1.00 13.13     0.123 C 
HETATM    4  C4  STQ 8 618     -31.668 127.202   4.739  1.00 13.13     0.066 C 
HETATM    5  C5  STQ 8 618     -32.242 128.119   5.783  1.00 13.13    -0.074 C 
HETATM    6  C6  STQ 8 618     -33.511 128.010   6.211  1.00 13.13    -0.048 C 
HETATM    7  C7  STQ 8 618     -34.008 128.764   7.397  1.00 13.13     0.009 C 
HETATM    8  C8  STQ 8 618     -34.406 130.043   7.379  1.00 13.13     0.007 C 
HETATM    9  C9  STQ 8 618     -34.907 130.734   8.581  1.00 13.13    -0.062 C 
HETATM   10  C10 STQ 8 618     -35.659 131.821   8.393  1.00 13.13     0.007 C 
HETATM   11  C11 STQ 8 618     -36.262 132.614   9.456  1.00 13.13     0.001 C 
HETATM   12  C12 STQ 8 618     -37.183 133.457   9.016  1.00 13.13     0.007 C 
HETATM   13  C13 STQ 8 618     -38.009 134.385   9.803  1.00 13.13    -0.062 C 
HETATM   14  C14 STQ 8 618     -38.691 135.330   9.140  1.00 13.13     0.007 C 
HETATM   15  C15 STQ 8 618     -39.564 136.265   9.830  1.00 13.13     0.001 C 
HETATM   16  C16 STQ 8 618     -35.043 126.051   6.530  1.00 13.13     0.020 C 
HETATM   17  C17 STQ 8 618     -35.612 127.912   4.975  1.00 13.13     0.020 C 
HETATM   18  C18 STQ 8 618     -31.199 128.900   6.521  1.00 13.13     0.044 C 
HETATM   19  C19 STQ 8 618     -34.589 130.239   9.958  1.00 13.13     0.048 C 
HETATM   20  C20 STQ 8 618     -38.122 134.262  11.287  1.00 13.13     0.048 C 
HETATM   21  O3  STQ 8 618     -32.148 125.851   2.839  1.00 13.13    -0.395 OA
ATOM     22  H3  STQ 8 618     -32.803 125.618   2.192  1.00  0.00     0.210 HD
HETATM   23  C21 STQ 8 618     -48.177 145.639  11.843  1.00 13.13    -0.035 C 
HETATM   24  C22 STQ 8 618     -48.988 146.336  12.924  1.00 13.13     0.045 C 
HETATM   25  C23 STQ 8 618     -48.218 147.363  13.724  1.00 13.13     0.142 C 
HETATM   26  C24 STQ 8 618     -46.904 146.798  14.176  1.00 13.13     0.007 C 
HETATM   27  C25 STQ 8 618     -46.214 145.945  13.419  1.00 13.13    -0.077 C 
HETATM   28  C26 STQ 8 618     -46.885 145.046  12.417  1.00 13.13     0.044 C 
HETATM   29  C27 STQ 8 618     -45.929 144.657  11.309  1.00 13.13    -0.016 C 
HETATM   30  C28 STQ 8 618     -45.615 143.373  11.227  1.00 13.13     0.003 C 
HETATM   31  C29 STQ 8 618     -44.713 142.825  10.209  1.00 13.13    -0.062 C 
HETATM   32  C30 STQ 8 618     -44.274 141.582  10.414  1.00 13.13     0.007 C 
HETATM   33  C31 STQ 8 618     -43.388 140.857   9.520  1.00 13.13     0.001 C 
HETATM   34  C32 STQ 8 618     -42.600 139.950  10.079  1.00 13.13     0.007 C 
HETATM   35  C33 STQ 8 618     -41.680 139.134   9.278  1.00 13.13    -0.062 C 
HETATM   36  C34 STQ 8 618     -41.165 138.040   9.841  1.00 13.13     0.007 C 
HETATM   37  C35 STQ 8 618     -40.270 137.142   9.130  1.00 13.13     0.001 C 
HETATM   38  C36 STQ 8 618     -47.908 146.607  10.701  1.00 13.13     0.016 C 
HETATM   39  C37 STQ 8 618     -49.041 144.513  11.290  1.00 13.13     0.016 C 
HETATM   40  C38 STQ 8 618     -44.734 145.894  13.606  1.00 13.13     0.044 C 
HETATM   41  C39 STQ 8 618     -44.328 143.622   9.002  1.00 13.13     0.048 C 
HETATM   42  C40 STQ 8 618     -41.340 139.519   7.877  1.00 13.13     0.048 C 
HETATM   43  O23 STQ 8 618     -48.983 147.715  14.875  1.00 13.13    -0.392 OA
ATOM     44  H23 STQ 8 618     -48.499 148.360  15.378  1.00  0.00     0.210 HD
ENDROOT
TORSDOF 12
