REMARK VINA RESULT:    -5.381      2.091     16.992
REMARK INTER + INTRA:          -8.363
REMARK INTER:                  -7.717
REMARK INTRA:                  -0.646
REMARK UNBOUND:                -2.982
REMARK  0 active torsions:
REMARK  status: ('A' for Active; 'I' for Inactive)
REMARK       I    between atoms: C3_3  and  O3_21 
REMARK       I    between atoms: C6_6  and  C7_7 
REMARK       I    between atoms: C8_8  and  C9_9 
REMARK       I    between atoms: C10_10  and  C11_11 
REMARK       I    between atoms: C12_12  and  C13_13 
REMARK       I    between atoms: C14_14  and  C15_15 
REMARK       I    between atoms: C23_25  and  O23_43 
REMARK       I    between atoms: C26_28  and  C27_29 
REMARK       I    between atoms: C28_30  and  C29_31 
REMARK       I    between atoms: C30_32  and  C31_33 
REMARK       I    between atoms: C32_34  and  C33_35 
REMARK       I    between atoms: C34_36  and  C35_37 
ROOT
HETATM    1  C1  STQ 1 619     -49.447 147.106  10.865  1.00 34.54    -0.018 C 
HETATM    2  C2  STQ 1 619     -49.158 148.500  10.308  1.00 34.54     0.045 C 
HETATM    3  C3  STQ 1 619     -49.640 148.844   8.898  1.00 34.54     0.123 C 
HETATM    4  C4  STQ 1 619     -50.764 147.945   8.406  1.00 34.54     0.066 C 
HETATM    5  C5  STQ 1 619     -50.354 146.516   8.619  1.00 34.54    -0.074 C 
HETATM    6  C6  STQ 1 619     -49.905 146.111   9.812  1.00 34.54    -0.048 C 
HETATM    7  C7  STQ 1 619     -49.876 144.660  10.110  1.00 34.54     0.009 C 
HETATM    8  C8  STQ 1 619     -48.805 143.937   9.794  1.00 34.54     0.007 C 
HETATM    9  C9  STQ 1 619     -48.685 142.491  10.035  1.00 34.54    -0.062 C 
HETATM   10  C10 STQ 1 619     -47.637 141.910   9.454  1.00 34.54     0.007 C 
HETATM   11  C11 STQ 1 619     -47.297 140.500   9.519  1.00 34.54     0.001 C 
HETATM   12  C12 STQ 1 619     -46.191 140.203   8.851  1.00 34.54     0.007 C 
HETATM   13  C13 STQ 1 619     -45.642 138.848   8.750  1.00 34.54    -0.062 C 
HETATM   14  C14 STQ 1 619     -44.387 138.714   8.306  1.00 34.54     0.007 C 
HETATM   15  C15 STQ 1 619     -43.783 137.400   8.166  1.00 34.54     0.001 C 
HETATM   16  C16 STQ 1 619     -50.472 147.261  11.985  1.00 34.54     0.020 C 
HETATM   17  C17 STQ 1 619     -48.170 146.559  11.489  1.00 34.54     0.020 C 
HETATM   18  C18 STQ 1 619     -51.164 145.614   7.732  1.00 34.54     0.044 C 
HETATM   19  C19 STQ 1 619     -49.666 141.720  10.864  1.00 34.54     0.048 C 
HETATM   20  C20 STQ 1 619     -46.476 137.658   9.118  1.00 34.54     0.048 C 
HETATM   21  O3  STQ 1 619     -50.097 150.200   8.890  1.00 34.54    -0.395 OA
ATOM     22  H3  STQ 1 619     -49.395 150.761   9.198  1.00  0.00     0.210 HD
HETATM   23  C21 STQ 1 619     -35.005 128.012   8.633  1.00 34.54    -0.035 C 
HETATM   24  C22 STQ 1 619     -34.240 126.763   8.217  1.00 34.54     0.045 C 
HETATM   25  C23 STQ 1 619     -33.170 127.071   7.182  1.00 34.54     0.142 C 
HETATM   26  C24 STQ 1 619     -33.810 127.758   6.002  1.00 34.54     0.007 C 
HETATM   27  C25 STQ 1 619     -34.861 128.580   6.139  1.00 34.54    -0.077 C 
HETATM   28  C26 STQ 1 619     -35.639 128.718   7.426  1.00 34.54     0.044 C 
HETATM   29  C27 STQ 1 619     -35.877 130.191   7.695  1.00 34.54    -0.016 C 
HETATM   30  C28 STQ 1 619     -37.116 130.648   7.837  1.00 34.54     0.003 C 
HETATM   31  C29 STQ 1 619     -37.363 132.079   8.092  1.00 34.54    -0.062 C 
HETATM   32  C30 STQ 1 619     -38.593 132.556   7.873  1.00 34.54     0.007 C 
HETATM   33  C31 STQ 1 619     -38.937 133.956   8.085  1.00 34.54     0.001 C 
HETATM   34  C32 STQ 1 619     -40.161 134.331   7.737  1.00 34.54     0.007 C 
HETATM   35  C33 STQ 1 619     -40.630 135.715   7.903  1.00 34.54    -0.062 C 
HETATM   36  C34 STQ 1 619     -41.935 135.953   7.756  1.00 34.54     0.007 C 
HETATM   37  C35 STQ 1 619     -42.490 137.289   7.895  1.00 34.54     0.001 C 
HETATM   38  C36 STQ 1 619     -34.060 128.929   9.409  1.00 34.54     0.016 C 
HETATM   39  C37 STQ 1 619     -36.131 127.579   9.564  1.00 34.54     0.016 C 
HETATM   40  C38 STQ 1 619     -35.286 129.387   4.948  1.00 34.54     0.044 C 
HETATM   41  C39 STQ 1 619     -36.260 132.975   8.576  1.00 34.54     0.048 C 
HETATM   42  C40 STQ 1 619     -39.668 136.821   8.224  1.00 34.54     0.048 C 
HETATM   43  O23 STQ 1 619     -32.562 125.850   6.743  1.00 34.54    -0.392 OA
ATOM     44  H23 STQ 1 619     -31.894 126.042   6.095  1.00  0.00     0.210 HD
ENDROOT
TORSDOF 12
