REMARK VINA RESULT:    -8.711      0.000      0.000
REMARK INTER + INTRA:         -11.253
REMARK INTER:                  -8.711
REMARK INTRA:                  -2.542
REMARK UNBOUND:                -2.542
REMARK  0 active torsions:
REMARK  status: ('A' for Active; 'I' for Inactive)
REMARK       I    between atoms: C3_3  and  O3_21 
REMARK       I    between atoms: C6_6  and  C7_7 
REMARK       I    between atoms: C8_8  and  C9_9 
REMARK       I    between atoms: C10_10  and  C11_11 
REMARK       I    between atoms: C12_12  and  C13_13 
REMARK       I    between atoms: C14_14  and  C15_15 
REMARK       I    between atoms: C23_25  and  O23_43 
REMARK       I    between atoms: C26_28  and  C27_29 
REMARK       I    between atoms: C28_30  and  C29_31 
REMARK       I    between atoms: C30_32  and  C31_33 
REMARK       I    between atoms: C32_34  and  C33_35 
REMARK       I    between atoms: C34_36  and  C35_37 
ROOT
HETATM    1  C1  STQ G6620     -34.472 127.040   6.257  1.00 19.27    -0.018 C 
HETATM    2  C2  STQ G6620     -33.919 126.425   4.957  1.00 19.58     0.045 C 
HETATM    3  C3  STQ G6620     -32.773 127.140   4.237  1.00 20.50     0.123 C 
HETATM    4  C4  STQ G6620     -31.847 127.925   5.163  1.00 19.20     0.066 C 
HETATM    5  C5  STQ G6620     -32.486 128.640   6.315  1.00 20.00    -0.074 C 
HETATM    6  C6  STQ G6620     -33.707 128.260   6.857  1.00 19.68    -0.048 C 
HETATM    7  C7  STQ G6620     -34.299 128.989   7.996  1.00 19.01     0.009 C 
HETATM    8  C8  STQ G6620     -34.925 130.186   7.954  1.00 19.94     0.007 C 
HETATM    9  C9  STQ G6620     -35.385 131.016   9.081  1.00 19.01    -0.062 C 
HETATM   10  C10 STQ G6620     -36.080 132.139   8.791  1.00 19.43     0.007 C 
HETATM   11  C11 STQ G6620     -36.639 133.094   9.720  1.00 19.88     0.001 C 
HETATM   12  C12 STQ G6620     -37.463 134.068   9.265  1.00 21.74     0.007 C 
HETATM   13  C13 STQ G6620     -38.183 135.107  10.025  1.00 22.83    -0.062 C 
HETATM   14  C14 STQ G6620     -39.045 135.894   9.346  1.00 22.84     0.007 C 
HETATM   15  C15 STQ G6620     -39.918 136.895   9.895  1.00 25.77     0.001 C 
HETATM   16  C16 STQ G6620     -34.415 125.850   7.224  1.00 16.78     0.020 C 
HETATM   17  C17 STQ G6620     -35.954 127.403   6.022  1.00 18.77     0.020 C 
HETATM   18  C18 STQ G6620     -31.573 129.747   6.709  1.00 19.84     0.044 C 
HETATM   19  C19 STQ G6620     -35.093 130.533  10.466  1.00 16.39     0.048 C 
HETATM   20  C20 STQ G6620     -37.983 135.170  11.510  1.00 20.37     0.048 C 
HETATM   21  O3  STQ G6620     -32.026 126.219   3.454  1.00 22.42    -0.395 OA
ATOM     22  H3  STQ G6620     -31.314 126.663   3.007  1.00  0.00     0.210 HD
HETATM   23  C21 STQ G6620     -49.912 144.698  12.153  1.00 36.61    -0.035 C 
HETATM   24  C22 STQ G6620     -50.786 145.644  13.012  1.00 36.79     0.045 C 
HETATM   25  C23 STQ G6620     -50.608 147.139  12.739  1.00 35.85     0.142 C 
HETATM   26  C24 STQ G6620     -49.140 147.503  12.492  1.00 35.34     0.007 C 
HETATM   27  C25 STQ G6620     -48.181 146.602  12.175  1.00 35.57    -0.077 C 
HETATM   28  C26 STQ G6620     -48.411 145.104  12.025  1.00 35.21     0.044 C 
HETATM   29  C27 STQ G6620     -47.669 144.551  10.824  1.00 34.92    -0.016 C 
HETATM   30  C28 STQ G6620     -46.719 143.586  10.936  1.00 36.13     0.003 C 
HETATM   31  C29 STQ G6620     -46.044 142.820   9.864  1.00 35.49    -0.062 C 
HETATM   32  C30 STQ G6620     -45.119 141.903  10.222  1.00 33.34     0.007 C 
HETATM   33  C31 STQ G6620     -44.367 141.052   9.347  1.00 32.12     0.001 C 
HETATM   34  C32 STQ G6620     -43.433 140.193   9.799  1.00 29.29     0.007 C 
HETATM   35  C33 STQ G6620     -42.590 139.285   9.017  1.00 28.60    -0.062 C 
HETATM   36  C34 STQ G6620     -41.692 138.526   9.683  1.00 27.50     0.007 C 
HETATM   37  C35 STQ G6620     -40.770 137.573   9.122  1.00 26.58     0.001 C 
HETATM   38  C36 STQ G6620     -50.569 144.588  10.753  1.00 35.13     0.016 C 
HETATM   39  C37 STQ G6620     -50.007 143.312  12.802  1.00 37.38     0.016 C 
HETATM   40  C38 STQ G6620     -46.828 147.203  12.003  1.00 35.37     0.044 C 
HETATM   41  C39 STQ G6620     -46.422 143.115   8.439  1.00 35.53     0.048 C 
HETATM   42  C40 STQ G6620     -42.769 139.268   7.528  1.00 26.88     0.048 C 
HETATM   43  O23 STQ G6620     -51.144 147.904  13.814  1.00 35.55    -0.392 OA
ATOM     44  H23 STQ G6620     -51.033 148.833  13.645  1.00  0.00     0.210 HD
ENDROOT
TORSDOF 12
