REMARK VINA RESULT:   -10.939      2.004     16.933
REMARK INTER + INTRA:         -11.092
REMARK INTER:                 -10.360
REMARK INTRA:                  -0.732
REMARK UNBOUND:                -0.152
REMARK  0 active torsions:
REMARK  status: ('A' for Active; 'I' for Inactive)
REMARK       I    between atoms: C3_3  and  O3_21 
REMARK       I    between atoms: C6_6  and  C7_7 
REMARK       I    between atoms: C8_8  and  C9_9 
REMARK       I    between atoms: C10_10  and  C11_11 
REMARK       I    between atoms: C12_12  and  C13_13 
REMARK       I    between atoms: C14_14  and  C15_15 
REMARK       I    between atoms: C23_25  and  O23_43 
REMARK       I    between atoms: C26_28  and  C27_29 
REMARK       I    between atoms: C28_30  and  C29_31 
REMARK       I    between atoms: C30_32  and  C31_33 
REMARK       I    between atoms: C32_34  and  C33_35 
REMARK       I    between atoms: C34_36  and  C35_37 
ROOT
HETATM    1  C1  STQ 6 317     -49.463 145.747  13.371  1.00 89.78    -0.018 C 
HETATM    2  C2  STQ 6 317     -50.007 146.075  14.765  1.00 90.48     0.045 C 
HETATM    3  C3  STQ 6 317     -49.108 146.888  15.691  1.00 89.65     0.123 C 
HETATM    4  C4  STQ 6 317     -48.318 147.916  14.906  1.00 88.26     0.066 C 
HETATM    5  C5  STQ 6 317     -47.495 147.181  13.889  1.00 86.93    -0.074 C 
HETATM    6  C6  STQ 6 317     -48.061 146.261  13.112  1.00 87.83    -0.048 C 
HETATM    7  C7  STQ 6 317     -47.294 145.717  11.971  1.00 88.05     0.009 C 
HETATM    8  C8  STQ 6 317     -46.391 144.760  12.176  1.00 88.38     0.007 C 
HETATM    9  C9  STQ 6 317     -45.602 144.186  11.071  1.00 88.50    -0.062 C 
HETATM   10  C10 STQ 6 317     -44.719 143.222  11.362  1.00 89.92     0.007 C 
HETATM   11  C11 STQ 6 317     -43.877 142.565  10.365  1.00 90.53     0.001 C 
HETATM   12  C12 STQ 6 317     -43.073 141.601  10.806  1.00 91.02     0.007 C 
HETATM   13  C13 STQ 6 317     -42.172 140.835   9.926  1.00 91.35    -0.062 C 
HETATM   14  C14 STQ 6 317     -41.609 139.725  10.426  1.00 92.63     0.007 C 
HETATM   15  C15 STQ 6 317     -40.714 138.863   9.660  1.00 93.76     0.001 C 
HETATM   16  C16 STQ 6 317     -50.403 146.340  12.329  1.00 89.80     0.020 C 
HETATM   17  C17 STQ 6 317     -49.444 144.233  13.201  1.00 89.92     0.020 C 
HETATM   18  C18 STQ 6 317     -46.223 147.862  13.481  1.00 86.44     0.044 C 
HETATM   19  C19 STQ 6 317     -45.783 144.674   9.663  1.00 87.10     0.048 C 
HETATM   20  C20 STQ 6 317     -41.895 141.290   8.525  1.00 90.38     0.048 C 
HETATM   21  O3  STQ 6 317     -49.908 147.576  16.661  1.00 90.37    -0.395 OA
ATOM     22  H3  STQ 6 317     -49.348 148.083  17.237  1.00  0.00     0.210 HD
HETATM   23  C21 STQ 6 317     -34.169 128.218   6.859  1.00 97.08    -0.035 C 
HETATM   24  C22 STQ 6 317     -33.428 127.550   5.709  1.00 98.39     0.045 C 
HETATM   25  C23 STQ 6 317     -31.911 127.632   5.834  1.00 99.72     0.142 C 
HETATM   26  C24 STQ 6 317     -31.462 129.001   6.291  1.00 98.91     0.007 C 
HETATM   27  C25 STQ 6 317     -32.244 129.807   7.024  1.00 98.05    -0.077 C 
HETATM   28  C26 STQ 6 317     -33.740 129.675   6.993  1.00 96.60     0.044 C 
HETATM   29  C27 STQ 6 317     -34.360 130.263   8.241  1.00 95.22    -0.016 C 
HETATM   30  C28 STQ 6 317     -35.163 131.311   8.088  1.00 92.77     0.003 C 
HETATM   31  C29 STQ 6 317     -35.845 131.982   9.212  1.00 90.37    -0.062 C 
HETATM   32  C30 STQ 6 317     -36.711 132.954   8.901  1.00 97.58     0.007 C 
HETATM   33  C31 STQ 6 317     -37.487 133.719   9.871  1.00 95.39     0.001 C 
HETATM   34  C32 STQ 6 317     -38.125 134.769   9.367  1.00 92.75     0.007 C 
HETATM   35  C33 STQ 6 317     -38.984 135.684  10.134  1.00 90.45    -0.062 C 
HETATM   36  C34 STQ 6 317     -39.396 136.821   9.548  1.00 98.23     0.007 C 
HETATM   37  C35 STQ 6 317     -40.272 137.753  10.249  1.00 96.59     0.001 C 
HETATM   38  C36 STQ 6 317     -33.922 127.472   8.164  1.00 96.67     0.016 C 
HETATM   39  C37 STQ 6 317     -35.661 128.171   6.552  1.00 96.89     0.016 C 
HETATM   40  C38 STQ 6 317     -31.607 130.860   7.882  1.00 98.35     0.044 C 
HETATM   41  C39 STQ 6 317     -35.585 131.590  10.637  1.00 90.75     0.048 C 
HETATM   42  C40 STQ 6 317     -39.406 135.337  11.531  1.00 90.73     0.048 C 
HETATM   43  O23 STQ 6 317     -31.327 127.353   4.555  1.00 90.07    -0.392 OA
ATOM     44  H23 STQ 6 317     -30.382 127.404   4.633  1.00  0.00     0.210 HD
ENDROOT
TORSDOF 12
