REMARK VINA RESULT:    -8.061      2.098     16.899
REMARK INTER + INTRA:         -10.438
REMARK INTER:                  -9.997
REMARK INTRA:                  -0.441
REMARK UNBOUND:                -2.377
REMARK  0 active torsions:
REMARK  status: ('A' for Active; 'I' for Inactive)
REMARK       I    between atoms: C3_3  and  O3_21 
REMARK       I    between atoms: C6_6  and  C7_7 
REMARK       I    between atoms: C8_8  and  C9_9 
REMARK       I    between atoms: C10_10  and  C11_11 
REMARK       I    between atoms: C12_12  and  C13_13 
REMARK       I    between atoms: C14_14  and  C15_15 
REMARK       I    between atoms: C23_25  and  O23_43 
REMARK       I    between atoms: C26_28  and  C27_29 
REMARK       I    between atoms: C28_30  and  C29_31 
REMARK       I    between atoms: C30_32  and  C31_33 
REMARK       I    between atoms: C32_34  and  C33_35 
REMARK       I    between atoms: C34_36  and  C35_37 
ROOT
HETATM    1  C1  STQ Z1621     -49.032 146.383  13.342  1.00 27.99    -0.018 C 
HETATM    2  C2  STQ Z1621     -49.577 146.390  14.777  1.00 27.99     0.045 C 
HETATM    3  C3  STQ Z1621     -48.600 146.864  15.844  1.00 27.99     0.123 C 
HETATM    4  C4  STQ Z1621     -47.838 148.060  15.305  1.00 27.99     0.066 C 
HETATM    5  C5  STQ Z1621     -46.998 147.526  14.182  1.00 27.99    -0.074 C 
HETATM    6  C6  STQ Z1621     -47.593 146.856  13.187  1.00 27.99    -0.048 C 
HETATM    7  C7  STQ Z1621     -46.839 146.352  12.017  1.00 27.99     0.009 C 
HETATM    8  C8  STQ Z1621     -45.602 145.883  12.225  1.00 27.99     0.007 C 
HETATM    9  C9  STQ Z1621     -44.922 145.145  11.134  1.00 27.99    -0.062 C 
HETATM   10  C10 STQ Z1621     -43.995 144.231  11.493  1.00 27.99     0.007 C 
HETATM   11  C11 STQ Z1621     -43.360 143.313  10.543  1.00 27.99     0.001 C 
HETATM   12  C12 STQ Z1621     -42.647 142.279  10.992  1.00 27.99     0.007 C 
HETATM   13  C13 STQ Z1621     -42.066 141.281  10.061  1.00 27.99    -0.062 C 
HETATM   14  C14 STQ Z1621     -41.491 140.186  10.602  1.00 27.99     0.007 C 
HETATM   15  C15 STQ Z1621     -40.893 139.097   9.823  1.00 27.99     0.001 C 
HETATM   16  C16 STQ Z1621     -49.831 147.411  12.539  1.00 27.99     0.020 C 
HETATM   17  C17 STQ Z1621     -49.238 144.989  12.755  1.00 27.99     0.020 C 
HETATM   18  C18 STQ Z1621     -45.779 148.382  13.974  1.00 27.99     0.044 C 
HETATM   19  C19 STQ Z1621     -45.354 145.365   9.703  1.00 27.99     0.048 C 
HETATM   20  C20 STQ Z1621     -42.174 141.523   8.578  1.00 27.99     0.048 C 
HETATM   21  O3  STQ Z1621     -49.306 147.221  17.040  1.00 27.99    -0.395 OA
ATOM     22  H3  STQ Z1621     -49.783 146.472  17.377  1.00  0.00     0.210 HD
HETATM   23  C21 STQ Z1621     -34.215 128.429   7.043  1.00 27.99    -0.035 C 
HETATM   24  C22 STQ Z1621     -33.429 127.613   6.033  1.00 27.99     0.045 C 
HETATM   25  C23 STQ Z1621     -31.927 127.813   6.148  1.00 27.99     0.142 C 
HETATM   26  C24 STQ Z1621     -31.547 129.258   6.391  1.00 27.99     0.007 C 
HETATM   27  C25 STQ Z1621     -32.429 130.209   6.740  1.00 27.99    -0.077 C 
HETATM   28  C26 STQ Z1621     -33.896 129.918   6.908  1.00 27.99     0.044 C 
HETATM   29  C27 STQ Z1621     -34.463 130.634   8.114  1.00 27.99    -0.016 C 
HETATM   30  C28 STQ Z1621     -35.454 131.505   7.932  1.00 27.99     0.003 C 
HETATM   31  C29 STQ Z1621     -36.057 132.242   9.060  1.00 27.99    -0.062 C 
HETATM   32  C30 STQ Z1621     -37.017 133.136   8.749  1.00 27.99     0.007 C 
HETATM   33  C31 STQ Z1621     -37.683 133.993   9.729  1.00 27.99     0.001 C 
HETATM   34  C32 STQ Z1621     -38.491 134.959   9.297  1.00 27.99     0.007 C 
HETATM   35  C33 STQ Z1621     -39.117 135.917  10.233  1.00 27.99    -0.062 C 
HETATM   36  C34 STQ Z1621     -39.744 136.981   9.687  1.00 27.99     0.007 C 
HETATM   37  C35 STQ Z1621     -40.360 138.060  10.462  1.00 27.99     0.001 C 
HETATM   38  C36 STQ Z1621     -33.928 127.889   8.442  1.00 27.99     0.016 C 
HETATM   39  C37 STQ Z1621     -35.697 128.251   6.733  1.00 27.99     0.016 C 
HETATM   40  C38 STQ Z1621     -31.929 131.613   6.941  1.00 27.99     0.044 C 
HETATM   41  C39 STQ Z1621     -35.583 131.946  10.458  1.00 27.99     0.048 C 
HETATM   42  C40 STQ Z1621     -38.972 135.695  11.715  1.00 27.99     0.048 C 
HETATM   43  O23 STQ Z1621     -31.374 127.395   4.900  1.00 27.99    -0.392 OA
ATOM     44  H23 STQ Z1621     -30.435 127.520   4.972  1.00  0.00     0.210 HD
ENDROOT
TORSDOF 12
