REMARK VINA RESULT:    -9.583      1.400     16.549
REMARK INTER + INTRA:         -10.327
REMARK INTER:                  -9.727
REMARK INTRA:                  -0.599
REMARK UNBOUND:                -0.744
REMARK  0 active torsions:
REMARK  status: ('A' for Active; 'I' for Inactive)
REMARK       I    between atoms: C3_3  and  O3_21 
REMARK       I    between atoms: C6_6  and  C7_7 
REMARK       I    between atoms: C8_8  and  C9_9 
REMARK       I    between atoms: C10_10  and  C11_11 
REMARK       I    between atoms: C12_12  and  C13_13 
REMARK       I    between atoms: C14_14  and  C15_15 
REMARK       I    between atoms: C23_25  and  O23_43 
REMARK       I    between atoms: C26_28  and  C27_29 
REMARK       I    between atoms: C28_30  and  C29_31 
REMARK       I    between atoms: C30_32  and  C31_33 
REMARK       I    between atoms: C32_34  and  C33_35 
REMARK       I    between atoms: C34_36  and  C35_37 
ROOT
HETATM    1  C1  STQ R 620     -49.870 144.692  12.211  1.00 48.79    -0.018 C 
HETATM    2  C2  STQ R 620     -50.360 144.805  13.648  1.00 49.38     0.045 C 
HETATM    3  C3  STQ R 620     -50.316 146.189  14.293  1.00 51.85     0.123 C 
HETATM    4  C4  STQ R 620     -49.024 146.940  14.019  1.00 54.16     0.066 C 
HETATM    5  C5  STQ R 620     -48.335 146.598  12.726  1.00 52.93    -0.074 C 
HETATM    6  C6  STQ R 620     -48.614 145.515  11.981  1.00 53.44    -0.048 C 
HETATM    7  C7  STQ R 620     -47.693 145.111  10.883  1.00 56.18     0.009 C 
HETATM    8  C8  STQ R 620     -46.786 144.145  11.037  1.00 54.04     0.007 C 
HETATM    9  C9  STQ R 620     -45.879 143.710   9.967  1.00 57.87    -0.062 C 
HETATM   10  C10 STQ R 620     -44.952 142.819  10.309  1.00 59.37     0.007 C 
HETATM   11  C11 STQ R 620     -43.982 142.247   9.392  1.00 54.77     0.001 C 
HETATM   12  C12 STQ R 620     -43.295 141.248   9.916  1.00 53.15     0.007 C 
HETATM   13  C13 STQ R 620     -42.286 140.484   9.185  1.00 52.91    -0.062 C 
HETATM   14  C14 STQ R 620     -41.813 139.413   9.813  1.00 56.79     0.007 C 
HETATM   15  C15 STQ R 620     -40.840 138.522   9.215  1.00 60.51     0.001 C 
HETATM   16  C16 STQ R 620     -50.975 145.127  11.260  1.00 50.92     0.020 C 
HETATM   17  C17 STQ R 620     -49.580 143.221  11.929  1.00 48.05     0.020 C 
HETATM   18  C18 STQ R 620     -46.993 147.254  12.704  1.00 55.82     0.044 C 
HETATM   19  C19 STQ R 620     -45.992 144.226   8.567  1.00 58.46     0.048 C 
HETATM   20  C20 STQ R 620     -41.836 140.867   7.809  1.00 55.54     0.048 C 
HETATM   21  O3  STQ R 620     -51.444 146.991  13.920  1.00 50.70    -0.395 OA
ATOM     22  H3  STQ R 620     -51.415 147.851  14.321  1.00  0.00     0.210 HD
HETATM   23  C21 STQ R 620     -34.211 128.492   6.741  1.00 52.92    -0.035 C 
HETATM   24  C22 STQ R 620     -33.398 127.861   5.626  1.00 50.14     0.045 C 
HETATM   25  C23 STQ R 620     -31.930 127.722   5.975  1.00 49.44     0.142 C 
HETATM   26  C24 STQ R 620     -31.367 128.993   6.556  1.00 54.43     0.007 C 
HETATM   27  C25 STQ R 620     -32.122 129.854   7.246  1.00 52.82    -0.077 C 
HETATM   28  C26 STQ R 620     -33.624 129.859   7.118  1.00 50.58     0.044 C 
HETATM   29  C27 STQ R 620     -34.269 130.373   8.382  1.00 46.60    -0.016 C 
HETATM   30  C28 STQ R 620     -34.967 131.487   8.267  1.00 44.92     0.003 C 
HETATM   31  C29 STQ R 620     -35.668 132.104   9.391  1.00 46.41    -0.062 C 
HETATM   32  C30 STQ R 620     -36.656 132.913   9.041  1.00 51.67     0.007 C 
HETATM   33  C31 STQ R 620     -37.497 133.643   9.959  1.00 48.57     0.001 C 
HETATM   34  C32 STQ R 620     -38.123 134.632   9.356  1.00 50.80     0.007 C 
HETATM   35  C33 STQ R 620     -39.038 135.523  10.057  1.00 54.69    -0.062 C 
HETATM   36  C34 STQ R 620     -39.605 136.486   9.334  1.00 55.71     0.007 C 
HETATM   37  C35 STQ R 620     -40.547 137.428   9.902  1.00 57.66     0.001 C 
HETATM   38  C36 STQ R 620     -34.304 127.554   7.944  1.00 53.57     0.016 C 
HETATM   39  C37 STQ R 620     -35.615 128.661   6.180  1.00 55.87     0.016 C 
HETATM   40  C38 STQ R 620     -31.429 130.833   8.147  1.00 57.19     0.044 C 
HETATM   41  C39 STQ R 620     -35.304 131.844  10.818  1.00 47.78     0.048 C 
HETATM   42  C40 STQ R 620     -39.288 135.347  11.521  1.00 56.30     0.048 C 
HETATM   43  O23 STQ R 620     -31.197 127.399   4.793  1.00 52.15    -0.392 OA
ATOM     44  H23 STQ R 620     -30.276 127.312   5.012  1.00  0.00     0.210 HD
ENDROOT
TORSDOF 12
