REMARK VINA RESULT:   -12.018      0.000      0.000
REMARK INTER + INTRA:         -12.506
REMARK INTER:                 -12.018
REMARK INTRA:                  -0.489
REMARK UNBOUND:                -0.489
REMARK  0 active torsions:
REMARK  status: ('A' for Active; 'I' for Inactive)
REMARK       I    between atoms: C3_3  and  O3_21 
REMARK       I    between atoms: C6_6  and  C7_7 
REMARK       I    between atoms: C8_8  and  C9_9 
REMARK       I    between atoms: C10_10  and  C11_11 
REMARK       I    between atoms: C12_12  and  C13_13 
REMARK       I    between atoms: C14_14  and  C15_15 
REMARK       I    between atoms: C23_25  and  O23_43 
REMARK       I    between atoms: C26_28  and  C27_29 
REMARK       I    between atoms: C28_30  and  C29_31 
REMARK       I    between atoms: C30_32  and  C31_33 
REMARK       I    between atoms: C32_34  and  C33_35 
REMARK       I    between atoms: C34_36  and  C35_37 
ROOT
HETATM    1  C1  STQ Z 617     -49.884 144.155  12.572  1.00 32.73    -0.018 C 
HETATM    2  C2  STQ Z 617     -50.977 144.745  13.443  1.00 32.73     0.045 C 
HETATM    3  C3  STQ Z 617     -50.405 145.416  14.669  1.00 32.73     0.123 C 
HETATM    4  C4  STQ Z 617     -49.532 146.573  14.244  1.00 32.73     0.066 C 
HETATM    5  C5  STQ Z 617     -48.552 146.193  13.163  1.00 32.73    -0.074 C 
HETATM    6  C6  STQ Z 617     -48.704 145.103  12.379  1.00 32.73    -0.048 C 
HETATM    7  C7  STQ Z 617     -47.747 144.844  11.265  1.00 32.73     0.009 C 
HETATM    8  C8  STQ Z 617     -46.591 144.182  11.418  1.00 32.73     0.007 C 
HETATM    9  C9  STQ Z 617     -45.650 143.921  10.319  1.00 32.73    -0.062 C 
HETATM   10  C10 STQ Z 617     -44.799 142.913  10.513  1.00 32.73     0.007 C 
HETATM   11  C11 STQ Z 617     -43.793 142.457   9.567  1.00 32.73     0.001 C 
HETATM   12  C12 STQ Z 617     -43.150 141.380   9.997  1.00 32.73     0.007 C 
HETATM   13  C13 STQ Z 617     -42.110 140.654   9.263  1.00 32.73    -0.062 C 
HETATM   14  C14 STQ Z 617     -41.666 139.535   9.840  1.00 32.73     0.007 C 
HETATM   15  C15 STQ Z 617     -40.675 138.665   9.235  1.00 32.73     0.001 C 
HETATM   16  C16 STQ Z 617     -50.578 143.728  11.282  1.00 32.73     0.020 C 
HETATM   17  C17 STQ Z 617     -49.336 142.905  13.240  1.00 32.73     0.020 C 
HETATM   18  C18 STQ Z 617     -47.433 147.179  12.983  1.00 32.73     0.044 C 
HETATM   19  C19 STQ Z 617     -45.638 144.759   9.077  1.00 32.73     0.048 C 
HETATM   20  C20 STQ Z 617     -41.601 141.118   7.931  1.00 32.73     0.048 C 
HETATM   21  O3  STQ Z 617     -51.466 145.917  15.485  1.00 32.73    -0.395 OA
ATOM     22  H3  STQ Z 617     -51.107 146.340  16.255  1.00  0.00     0.210 HD
HETATM   23  C21 STQ Z 617     -34.096 128.147   6.851  1.00 32.73    -0.035 C 
HETATM   24  C22 STQ Z 617     -33.301 127.549   5.698  1.00 32.73     0.045 C 
HETATM   25  C23 STQ Z 617     -31.794 127.765   5.756  1.00 32.73     0.142 C 
HETATM   26  C24 STQ Z 617     -31.418 129.114   6.321  1.00 32.73     0.007 C 
HETATM   27  C25 STQ Z 617     -32.223 129.782   7.156  1.00 32.73    -0.077 C 
HETATM   28  C26 STQ Z 617     -33.716 129.612   7.070  1.00 32.73     0.044 C 
HETATM   29  C27 STQ Z 617     -34.427 130.139   8.295  1.00 32.73    -0.016 C 
HETATM   30  C28 STQ Z 617     -35.186 131.217   8.142  1.00 32.73     0.003 C 
HETATM   31  C29 STQ Z 617     -35.951 131.816   9.243  1.00 32.73    -0.062 C 
HETATM   32  C30 STQ Z 617     -36.870 132.710   8.884  1.00 32.73     0.007 C 
HETATM   33  C31 STQ Z 617     -37.755 133.421   9.788  1.00 32.73     0.001 C 
HETATM   34  C32 STQ Z 617     -38.240 134.535   9.261  1.00 32.73     0.007 C 
HETATM   35  C33 STQ Z 617     -39.163 135.449   9.940  1.00 32.73    -0.062 C 
HETATM   36  C34 STQ Z 617     -39.584 136.511   9.248  1.00 32.73     0.007 C 
HETATM   37  C35 STQ Z 617     -40.521 137.475   9.801  1.00 32.73     0.001 C 
HETATM   38  C36 STQ Z 617     -33.909 127.324   8.125  1.00 32.73     0.016 C 
HETATM   39  C37 STQ Z 617     -35.569 128.066   6.464  1.00 32.73     0.016 C 
HETATM   40  C38 STQ Z 617     -31.610 130.706   8.163  1.00 32.73     0.044 C 
HETATM   41  C39 STQ Z 617     -35.718 131.439  10.674  1.00 32.73     0.048 C 
HETATM   42  C40 STQ Z 617     -39.601 135.199  11.351  1.00 32.73     0.048 C 
HETATM   43  O23 STQ Z 617     -31.274 127.664   4.426  1.00 32.73    -0.392 OA
ATOM     44  H23 STQ Z 617     -30.334 127.798   4.462  1.00  0.00     0.210 HD
ENDROOT
TORSDOF 12
