REMARK VINA RESULT:    -8.042      1.654     16.572
REMARK INTER + INTRA:         -10.649
REMARK INTER:                  -9.777
REMARK INTRA:                  -0.872
REMARK UNBOUND:                -2.607
REMARK  0 active torsions:
REMARK  status: ('A' for Active; 'I' for Inactive)
REMARK       I    between atoms: C3_3  and  O3_21 
REMARK       I    between atoms: C6_6  and  C7_7 
REMARK       I    between atoms: C8_8  and  C9_9 
REMARK       I    between atoms: C10_10  and  C11_11 
REMARK       I    between atoms: C12_12  and  C13_13 
REMARK       I    between atoms: C14_14  and  C15_15 
REMARK       I    between atoms: C23_25  and  O23_43 
REMARK       I    between atoms: C26_28  and  C27_29 
REMARK       I    between atoms: C28_30  and  C29_31 
REMARK       I    between atoms: C30_32  and  C31_33 
REMARK       I    between atoms: C32_34  and  C33_35 
REMARK       I    between atoms: C34_36  and  C35_37 
ROOT
HETATM    1  C1  STQ Z1620     -50.922 144.192  11.930  1.00 27.53    -0.018 C 
HETATM    2  C2  STQ Z1620     -51.479 144.219  13.352  1.00 27.53     0.045 C 
HETATM    3  C3  STQ Z1620     -50.397 144.536  14.366  1.00 27.53     0.123 C 
HETATM    4  C4  STQ Z1620     -49.911 145.926  14.027  1.00 27.53     0.066 C 
HETATM    5  C5  STQ Z1620     -49.138 145.765  12.749  1.00 27.53    -0.074 C 
HETATM    6  C6  STQ Z1620     -49.608 144.949  11.776  1.00 27.53    -0.048 C 
HETATM    7  C7  STQ Z1620     -48.765 144.599  10.614  1.00 27.53     0.009 C 
HETATM    8  C8  STQ Z1620     -47.513 144.243  10.918  1.00 27.53     0.007 C 
HETATM    9  C9  STQ Z1620     -46.614 143.678   9.889  1.00 27.53    -0.062 C 
HETATM   10  C10 STQ Z1620     -45.526 143.015  10.328  1.00 27.53     0.007 C 
HETATM   11  C11 STQ Z1620     -44.619 142.292   9.439  1.00 27.53     0.001 C 
HETATM   12  C12 STQ Z1620     -43.724 141.460   9.962  1.00 27.53     0.007 C 
HETATM   13  C13 STQ Z1620     -42.855 140.626   9.103  1.00 27.53    -0.062 C 
HETATM   14  C14 STQ Z1620     -42.169 139.643   9.715  1.00 27.53     0.007 C 
HETATM   15  C15 STQ Z1620     -41.296 138.687   9.035  1.00 27.53     0.001 C 
HETATM   16  C16 STQ Z1620     -51.924 144.895  11.016  1.00 27.53     0.020 C 
HETATM   17  C17 STQ Z1620     -50.790 142.732  11.506  1.00 27.53     0.020 C 
HETATM   18  C18 STQ Z1620     -47.926 146.656  12.612  1.00 27.53     0.044 C 
HETATM   19  C19 STQ Z1620     -46.964 143.827   8.430  1.00 27.53     0.048 C 
HETATM   20  C20 STQ Z1620     -42.817 140.884   7.620  1.00 27.53     0.048 C 
HETATM   21  O3  STQ Z1620     -50.893 144.494  15.706  1.00 27.53    -0.395 OA
ATOM     22  H3  STQ Z1620     -50.215 144.692  16.340  1.00  0.00     0.210 HD
HETATM   23  C21 STQ Z1620     -34.211 128.565   6.896  1.00 27.53    -0.035 C 
HETATM   24  C22 STQ Z1620     -33.478 127.890   5.753  1.00 27.53     0.045 C 
HETATM   25  C23 STQ Z1620     -32.000 127.703   6.068  1.00 27.53     0.142 C 
HETATM   26  C24 STQ Z1620     -31.392 128.914   6.744  1.00 27.53     0.007 C 
HETATM   27  C25 STQ Z1620     -32.118 129.941   7.218  1.00 27.53    -0.077 C 
HETATM   28  C26 STQ Z1620     -33.622 129.956   7.126  1.00 27.53     0.044 C 
HETATM   29  C27 STQ Z1620     -34.286 130.540   8.353  1.00 27.53    -0.016 C 
HETATM   30  C28 STQ Z1620     -35.151 131.528   8.157  1.00 27.53     0.003 C 
HETATM   31  C29 STQ Z1620     -35.897 132.178   9.248  1.00 27.53    -0.062 C 
HETATM   32  C30 STQ Z1620     -36.742 133.138   8.841  1.00 27.53     0.007 C 
HETATM   33  C31 STQ Z1620     -37.600 133.942   9.697  1.00 27.53     0.001 C 
HETATM   34  C32 STQ Z1620     -38.340 134.878   9.102  1.00 27.53     0.007 C 
HETATM   35  C33 STQ Z1620     -39.221 135.780   9.865  1.00 27.53    -0.062 C 
HETATM   36  C34 STQ Z1620     -39.847 136.752   9.168  1.00 27.53     0.007 C 
HETATM   37  C35 STQ Z1620     -40.731 137.744   9.778  1.00 27.53     0.001 C 
HETATM   38  C36 STQ Z1620     -34.138 127.699   8.151  1.00 27.53     0.016 C 
HETATM   39  C37 STQ Z1620     -35.679 128.710   6.501  1.00 27.53     0.016 C 
HETATM   40  C38 STQ Z1620     -31.379 131.114   7.802  1.00 27.53     0.044 C 
HETATM   41  C39 STQ Z1620     -35.717 131.739  10.675  1.00 27.53     0.048 C 
HETATM   42  C40 STQ Z1620     -39.346 135.578  11.353  1.00 27.53     0.048 C 
HETATM   43  O23 STQ Z1620     -31.286 127.463   4.850  1.00 27.53    -0.392 OA
ATOM     44  H23 STQ Z1620     -31.668 126.703   4.426  1.00  0.00     0.210 HD
ENDROOT
TORSDOF 12
