REMARK VINA RESULT:    -8.011      0.000      0.000
REMARK INTER + INTRA:         -10.674
REMARK INTER:                  -8.011
REMARK INTRA:                  -2.662
REMARK UNBOUND:                -2.662
REMARK  0 active torsions:
REMARK  status: ('A' for Active; 'I' for Inactive)
REMARK       I    between atoms: C3_3  and  O3_21 
REMARK       I    between atoms: C6_6  and  C7_7 
REMARK       I    between atoms: C8_8  and  C9_9 
REMARK       I    between atoms: C10_10  and  C11_11 
REMARK       I    between atoms: C12_12  and  C13_13 
REMARK       I    between atoms: C14_14  and  C15_15 
REMARK       I    between atoms: C23_25  and  O23_43 
REMARK       I    between atoms: C26_28  and  C27_29 
REMARK       I    between atoms: C28_30  and  C29_31 
REMARK       I    between atoms: C30_32  and  C31_33 
REMARK       I    between atoms: C32_34  and  C33_35 
REMARK       I    between atoms: C34_36  and  C35_37 
ROOT
HETATM    1  C1  STQ B1620     -34.528 126.933   6.261  1.00 19.90    -0.018 C 
HETATM    2  C2  STQ B1620     -33.984 126.187   5.027  1.00 19.41     0.045 C 
HETATM    3  C3  STQ B1620     -32.927 126.872   4.159  1.00 19.05     0.123 C 
HETATM    4  C4  STQ B1620     -31.990 127.768   4.951  1.00 17.84     0.066 C 
HETATM    5  C5  STQ B1620     -32.551 128.546   6.095  1.00 19.18    -0.074 C 
HETATM    6  C6  STQ B1620     -33.726 128.187   6.726  1.00 19.92    -0.048 C 
HETATM    7  C7  STQ B1620     -34.250 128.977   7.856  1.00 19.37     0.009 C 
HETATM    8  C8  STQ B1620     -34.890 130.158   7.773  1.00 19.11     0.007 C 
HETATM    9  C9  STQ B1620     -35.309 131.018   8.874  1.00 19.13    -0.062 C 
HETATM   10  C10 STQ B1620     -36.042 132.111   8.569  1.00 19.42     0.007 C 
HETATM   11  C11 STQ B1620     -36.589 133.077   9.495  1.00 18.74     0.001 C 
HETATM   12  C12 STQ B1620     -37.461 134.016   9.081  1.00 16.12     0.007 C 
HETATM   13  C13 STQ B1620     -38.157 135.015   9.902  1.00 17.85    -0.062 C 
HETATM   14  C14 STQ B1620     -39.080 135.783   9.285  1.00 17.76     0.007 C 
HETATM   15  C15 STQ B1620     -39.953 136.758   9.873  1.00 19.16     0.001 C 
HETATM   16  C16 STQ B1620     -34.514 125.850   7.355  1.00 18.85     0.020 C 
HETATM   17  C17 STQ B1620     -35.996 127.314   5.991  1.00 18.57     0.020 C 
HETATM   18  C18 STQ B1620     -31.629 129.683   6.374  1.00 19.26     0.044 C 
HETATM   19  C19 STQ B1620     -34.949 130.591  10.275  1.00 17.89     0.048 C 
HETATM   20  C20 STQ B1620     -37.856 135.062  11.381  1.00 13.12     0.048 C 
HETATM   21  O3  STQ B1620     -32.180 125.908   3.431  1.00 18.20    -0.395 OA
ATOM     22  H3  STQ B1620     -31.524 126.333   2.892  1.00  0.00     0.210 HD
HETATM   23  C21 STQ B1620     -49.923 144.543  12.364  1.00 29.70    -0.035 C 
HETATM   24  C22 STQ B1620     -50.753 145.470  13.278  1.00 30.79     0.045 C 
HETATM   25  C23 STQ B1620     -50.593 146.970  13.020  1.00 30.74     0.142 C 
HETATM   26  C24 STQ B1620     -49.138 147.350  12.690  1.00 30.90     0.007 C 
HETATM   27  C25 STQ B1620     -48.190 146.444  12.348  1.00 30.64    -0.077 C 
HETATM   28  C26 STQ B1620     -48.418 144.940  12.251  1.00 29.60     0.044 C 
HETATM   29  C27 STQ B1620     -47.674 144.354  11.056  1.00 29.66    -0.016 C 
HETATM   30  C28 STQ B1620     -46.729 143.381  11.142  1.00 27.31     0.003 C 
HETATM   31  C29 STQ B1620     -46.083 142.646  10.036  1.00 26.15    -0.062 C 
HETATM   32  C30 STQ B1620     -45.158 141.712  10.346  1.00 25.30     0.007 C 
HETATM   33  C31 STQ B1620     -44.448 140.866   9.424  1.00 24.49     0.001 C 
HETATM   34  C32 STQ B1620     -43.505 140.000   9.823  1.00 22.91     0.007 C 
HETATM   35  C33 STQ B1620     -42.682 139.091   9.011  1.00 24.18    -0.062 C 
HETATM   36  C34 STQ B1620     -41.760 138.343   9.654  1.00 22.61     0.007 C 
HETATM   37  C35 STQ B1620     -40.838 137.402   9.098  1.00 22.05     0.001 C 
HETATM   38  C36 STQ B1620     -50.589 144.521  10.960  1.00 27.97     0.016 C 
HETATM   39  C37 STQ B1620     -50.045 143.135  12.960  1.00 29.56     0.016 C 
HETATM   40  C38 STQ B1620     -46.847 147.030  12.086  1.00 30.97     0.044 C 
HETATM   41  C39 STQ B1620     -46.485 142.989   8.629  1.00 22.70     0.048 C 
HETATM   42  C40 STQ B1620     -42.903 139.079   7.526  1.00 23.56     0.048 C 
HETATM   43  O23 STQ B1620     -51.072 147.712  14.135  1.00 29.81    -0.392 OA
ATOM     44  H23 STQ B1620     -50.973 148.642  13.975  1.00  0.00     0.210 HD
ENDROOT
TORSDOF 12
