REMARK VINA RESULT:   -10.300      0.000      0.000
REMARK INTER + INTRA:         -10.594
REMARK INTER:                 -10.300
REMARK INTRA:                  -0.295
REMARK UNBOUND:                -0.295
REMARK  0 active torsions:
REMARK  status: ('A' for Active; 'I' for Inactive)
REMARK       I    between atoms: C3_3  and  O3_21 
REMARK       I    between atoms: C6_6  and  C7_7 
REMARK       I    between atoms: C8_8  and  C9_9 
REMARK       I    between atoms: C10_10  and  C11_11 
REMARK       I    between atoms: C12_12  and  C13_13 
REMARK       I    between atoms: C14_14  and  C15_15 
REMARK       I    between atoms: C23_25  and  O23_43 
REMARK       I    between atoms: C26_28  and  C27_29 
REMARK       I    between atoms: C28_30  and  C29_31 
REMARK       I    between atoms: C30_32  and  C31_33 
REMARK       I    between atoms: C32_34  and  C33_35 
REMARK       I    between atoms: C34_36  and  C35_37 
ROOT
HETATM    1  C1  STQ 3 621     -34.049 128.038   6.940  1.00 19.54    -0.018 C 
HETATM    2  C2  STQ 3 621     -33.160 127.336   5.917  1.00 19.54     0.045 C 
HETATM    3  C3  STQ 3 621     -32.011 128.109   5.300  1.00 19.54     0.123 C 
HETATM    4  C4  STQ 3 621     -31.274 128.867   6.377  1.00 19.54     0.066 C 
HETATM    5  C5  STQ 3 621     -32.222 129.714   7.187  1.00 19.54    -0.074 C 
HETATM    6  C6  STQ 3 621     -33.448 129.294   7.544  1.00 19.54    -0.048 C 
HETATM    7  C7  STQ 3 621     -34.231 130.027   8.584  1.00 19.54     0.009 C 
HETATM    8  C8  STQ 3 621     -35.007 131.087   8.322  1.00 19.54     0.007 C 
HETATM    9  C9  STQ 3 621     -35.788 131.813   9.343  1.00 19.54    -0.062 C 
HETATM   10  C10 STQ 3 621     -36.533 132.847   8.922  1.00 19.54     0.007 C 
HETATM   11  C11 STQ 3 621     -37.375 133.689   9.765  1.00 19.54     0.001 C 
HETATM   12  C12 STQ 3 621     -37.961 134.706   9.141  1.00 19.54     0.007 C 
HETATM   13  C13 STQ 3 621     -38.870 135.667   9.788  1.00 19.54    -0.062 C 
HETATM   14  C14 STQ 3 621     -39.700 136.352   8.989  1.00 19.54     0.007 C 
HETATM   15  C15 STQ 3 621     -40.675 137.316   9.484  1.00 19.54     0.001 C 
HETATM   16  C16 STQ 3 621     -34.373 126.987   7.995  1.00 19.54     0.020 C 
HETATM   17  C17 STQ 3 621     -35.345 128.458   6.263  1.00 19.54     0.020 C 
HETATM   18  C18 STQ 3 621     -31.506 130.787   7.946  1.00 19.54     0.044 C 
HETATM   19  C19 STQ 3 621     -35.734 131.422  10.789  1.00 19.54     0.048 C 
HETATM   20  C20 STQ 3 621     -38.866 135.872  11.273  1.00 19.54     0.048 C 
HETATM   21  O3  STQ 3 621     -31.102 127.179   4.707  1.00 19.54    -0.395 OA
ATOM     22  H3  STQ 3 621     -30.381 127.664   4.320  1.00  0.00     0.210 HD
HETATM   23  C21 STQ 3 621     -50.660 144.885  10.249  1.00 19.54    -0.035 C 
HETATM   24  C22 STQ 3 621     -51.608 145.647  11.166  1.00 19.54     0.045 C 
HETATM   25  C23 STQ 3 621     -51.443 147.158  11.116  1.00 19.54     0.142 C 
HETATM   26  C24 STQ 3 621     -49.985 147.543  11.156  1.00 19.54     0.007 C 
HETATM   27  C25 STQ 3 621     -49.029 146.775  10.612  1.00 19.54    -0.077 C 
HETATM   28  C26 STQ 3 621     -49.199 145.284  10.485  1.00 19.54     0.044 C 
HETATM   29  C27 STQ 3 621     -48.315 144.719   9.389  1.00 19.54    -0.016 C 
HETATM   30  C28 STQ 3 621     -47.373 143.843   9.721  1.00 19.54     0.003 C 
HETATM   31  C29 STQ 3 621     -46.480 143.231   8.726  1.00 19.54    -0.062 C 
HETATM   32  C30 STQ 3 621     -45.924 142.060   9.040  1.00 19.54     0.007 C 
HETATM   33  C31 STQ 3 621     -45.019 141.317   8.172  1.00 19.54     0.001 C 
HETATM   34  C32 STQ 3 621     -44.272 140.425   8.805  1.00 19.54     0.007 C 
HETATM   35  C33 STQ 3 621     -43.283 139.526   8.196  1.00 19.54    -0.062 C 
HETATM   36  C34 STQ 3 621     -42.512 138.827   9.043  1.00 19.54     0.007 C 
HETATM   37  C35 STQ 3 621     -41.500 137.878   8.602  1.00 19.54     0.001 C 
HETATM   38  C36 STQ 3 621     -51.072 145.089   8.792  1.00 19.54     0.016 C 
HETATM   39  C37 STQ 3 621     -50.825 143.407  10.581  1.00 19.54     0.016 C 
HETATM   40  C38 STQ 3 621     -47.771 147.434  10.133  1.00 19.54     0.044 C 
HETATM   41  C39 STQ 3 621     -46.198 143.888   7.417  1.00 19.54     0.048 C 
HETATM   42  C40 STQ 3 621     -43.156 139.402   6.711  1.00 19.54     0.048 C 
HETATM   43  O23 STQ 3 621     -52.106 147.726  12.249  1.00 19.54    -0.392 OA
ATOM     44  H23 STQ 3 621     -52.002 148.671  12.217  1.00  0.00     0.210 HD
ENDROOT
TORSDOF 12
