REMARK VINA RESULT:    -6.596      1.543      2.106
REMARK INTER + INTRA:          -8.894
REMARK INTER:                  -4.048
REMARK INTRA:                  -4.846
REMARK UNBOUND:                -2.298
REMARK  0 active torsions:
REMARK  status: ('A' for Active; 'I' for Inactive)
REMARK       I    between atoms: C3_3  and  O3_21 
REMARK       I    between atoms: C6_6  and  C7_7 
REMARK       I    between atoms: C8_8  and  C9_9 
REMARK       I    between atoms: C10_10  and  C11_11 
REMARK       I    between atoms: C12_12  and  C13_13 
REMARK       I    between atoms: C14_14  and  C15_15 
REMARK       I    between atoms: C23_25  and  O23_43 
REMARK       I    between atoms: C26_28  and  C27_29 
REMARK       I    between atoms: C28_30  and  C29_31 
REMARK       I    between atoms: C30_32  and  C31_33 
REMARK       I    between atoms: C32_34  and  C33_35 
REMARK       I    between atoms: C34_36  and  C35_37 
ROOT
HETATM    1  C1  STQ 7 622     -48.317 147.507   9.934  1.00 13.75    -0.018 C 
HETATM    2  C2  STQ 7 622     -49.737 148.046  10.014  1.00 13.75     0.045 C 
HETATM    3  C3  STQ 7 622     -50.470 147.629  11.269  1.00 13.75     0.123 C 
HETATM    4  C4  STQ 7 622     -49.669 148.082  12.460  1.00 13.75     0.066 C 
HETATM    5  C5  STQ 7 622     -48.314 147.438  12.426  1.00 13.75    -0.074 C 
HETATM    6  C6  STQ 7 622     -47.654 147.229  11.274  1.00 13.75    -0.048 C 
HETATM    7  C7  STQ 7 622     -46.236 146.771  11.228  1.00 13.75     0.009 C 
HETATM    8  C8  STQ 7 622     -45.829 145.507  11.404  1.00 13.75     0.007 C 
HETATM    9  C9  STQ 7 622     -44.406 145.125  11.310  1.00 13.75    -0.062 C 
HETATM   10  C10 STQ 7 622     -44.129 143.824  11.152  1.00 13.75     0.007 C 
HETATM   11  C11 STQ 7 622     -42.794 143.253  11.007  1.00 13.75     0.001 C 
HETATM   12  C12 STQ 7 622     -42.780 142.011  10.538  1.00 13.75     0.007 C 
HETATM   13  C13 STQ 7 622     -41.589 141.191  10.263  1.00 13.75    -0.062 C 
HETATM   14  C14 STQ 7 622     -41.783 139.888  10.002  1.00 13.75     0.007 C 
HETATM   15  C15 STQ 7 622     -40.701 138.974   9.674  1.00 13.75     0.001 C 
HETATM   16  C16 STQ 7 622     -47.521 148.523   9.128  1.00 13.75     0.020 C 
HETATM   17  C17 STQ 7 622     -48.361 146.187   9.180  1.00 13.75     0.020 C 
HETATM   18  C18 STQ 7 622     -47.672 147.343  13.770  1.00 13.75     0.044 C 
HETATM   19  C19 STQ 7 622     -43.322 146.157  11.379  1.00 13.75     0.048 C 
HETATM   20  C20 STQ 7 622     -40.216 141.792  10.232  1.00 13.75     0.048 C 
HETATM   21  O3  STQ 7 622     -51.756 148.249  11.307  1.00 13.75    -0.395 OA
ATOM     22  H3  STQ 7 622     -52.261 147.963  10.556  1.00  0.00     0.210 HD
HETATM   23  C21 STQ 7 622     -34.504 128.416   5.708  1.00 13.75    -0.035 C 
HETATM   24  C22 STQ 7 622     -33.117 127.969   5.270  1.00 13.75     0.045 C 
HETATM   25  C23 STQ 7 622     -32.197 127.581   6.419  1.00 13.75     0.142 C 
HETATM   26  C24 STQ 7 622     -32.289 128.549   7.570  1.00 13.75     0.007 C 
HETATM   27  C25 STQ 7 622     -33.370 129.299   7.805  1.00 13.75    -0.077 C 
HETATM   28  C26 STQ 7 622     -34.414 129.546   6.745  1.00 13.75     0.044 C 
HETATM   29  C27 STQ 7 622     -35.775 129.823   7.355  1.00 13.75    -0.016 C 
HETATM   30  C28 STQ 7 622     -36.272 131.045   7.203  1.00 13.75     0.003 C 
HETATM   31  C29 STQ 7 622     -37.584 131.473   7.711  1.00 13.75    -0.062 C 
HETATM   32  C30 STQ 7 622     -37.885 132.768   7.560  1.00 13.75     0.007 C 
HETATM   33  C31 STQ 7 622     -39.138 133.385   7.973  1.00 13.75     0.001 C 
HETATM   34  C32 STQ 7 622     -39.077 134.689   8.204  1.00 13.75     0.007 C 
HETATM   35  C33 STQ 7 622     -40.223 135.516   8.611  1.00 13.75    -0.062 C 
HETATM   36  C34 STQ 7 622     -39.981 136.804   8.891  1.00 13.75     0.007 C 
HETATM   37  C35 STQ 7 622     -41.023 137.747   9.272  1.00 13.75     0.001 C 
HETATM   38  C36 STQ 7 622     -35.308 127.225   6.221  1.00 13.75     0.016 C 
HETATM   39  C37 STQ 7 622     -35.217 128.931   4.464  1.00 13.75     0.016 C 
HETATM   40  C38 STQ 7 622     -33.498 129.914   9.165  1.00 13.75     0.044 C 
HETATM   41  C39 STQ 7 622     -38.534 130.506   8.343  1.00 13.75     0.048 C 
HETATM   42  C40 STQ 7 622     -41.604 134.943   8.692  1.00 13.75     0.048 C 
HETATM   43  O23 STQ 7 622     -30.841 127.560   5.964  1.00 13.75    -0.392 OA
ATOM     44  H23 STQ 7 622     -30.267 127.318   6.681  1.00  0.00     0.210 HD
ENDROOT
TORSDOF 12
