REMARK VINA RESULT:    -7.633      2.164     16.718
REMARK INTER + INTRA:          -8.004
REMARK INTER:                  -3.477
REMARK INTRA:                  -4.527
REMARK UNBOUND:                -0.371
REMARK  0 active torsions:
REMARK  status: ('A' for Active; 'I' for Inactive)
REMARK       I    between atoms: C3_3  and  O3_21 
REMARK       I    between atoms: C6_6  and  C7_7 
REMARK       I    between atoms: C8_8  and  C9_9 
REMARK       I    between atoms: C10_10  and  C11_11 
REMARK       I    between atoms: C12_12  and  C13_13 
REMARK       I    between atoms: C14_14  and  C15_15 
REMARK       I    between atoms: C23_25  and  O23_43 
REMARK       I    between atoms: C26_28  and  C27_29 
REMARK       I    between atoms: C28_30  and  C29_31 
REMARK       I    between atoms: C30_32  and  C31_33 
REMARK       I    between atoms: C32_34  and  C33_35 
REMARK       I    between atoms: C34_36  and  C35_37 
ROOT
HETATM    1  C1  STQ S1620     -34.655 128.782   6.467  1.00 71.46    -0.018 C 
HETATM    2  C2  STQ S1620     -33.557 128.241   5.568  1.00 75.98     0.045 C 
HETATM    3  C3  STQ S1620     -32.193 128.887   5.664  1.00 84.37     0.123 C 
HETATM    4  C4  STQ S1620     -31.786 129.077   7.098  1.00 79.68     0.066 C 
HETATM    5  C5  STQ S1620     -32.840 129.859   7.820  1.00 81.86    -0.074 C 
HETATM    6  C6  STQ S1620     -34.149 129.633   7.624  1.00 72.92    -0.048 C 
HETATM    7  C7  STQ S1620     -35.141 130.191   8.575  1.00 76.42     0.009 C 
HETATM    8  C8  STQ S1620     -35.582 131.442   8.459  1.00 69.46     0.007 C 
HETATM    9  C9  STQ S1620     -36.556 132.010   9.383  1.00 72.46    -0.062 C 
HETATM   10  C10 STQ S1620     -36.910 133.272   9.154  1.00 79.08     0.007 C 
HETATM   11  C11 STQ S1620     -37.871 133.983   9.967  1.00 85.60     0.001 C 
HETATM   12  C12 STQ S1620     -38.418 135.015   9.356  1.00 91.82     0.007 C 
HETATM   13  C13 STQ S1620     -39.445 135.847   9.980  1.00 91.68    -0.062 C 
HETATM   14  C14 STQ S1620     -39.936 136.848   9.253  1.00 95.81     0.007 C 
HETATM   15  C15 STQ S1620     -40.988 137.717   9.743  1.00 93.57     0.001 C 
HETATM   16  C16 STQ S1620     -35.448 127.565   6.919  1.00 75.59     0.020 C 
HETATM   17  C17 STQ S1620     -35.594 129.632   5.625  1.00 74.59     0.020 C 
HETATM   18  C18 STQ S1620     -32.298 130.427   9.096  1.00 90.73     0.044 C 
HETATM   19  C19 STQ S1620     -37.070 131.211  10.537  1.00 83.09     0.048 C 
HETATM   20  C20 STQ S1620     -39.939 135.545  11.360  1.00 93.53     0.048 C 
HETATM   21  O3  STQ S1620     -31.240 128.019   5.052  1.00 94.57    -0.395 OA
ATOM     22  H3  STQ S1620     -31.497 127.899   4.146  1.00  0.00     0.210 HD
HETATM   23  C21 STQ S1620     -50.647 145.809   8.489  1.00 93.68    -0.035 C 
HETATM   24  C22 STQ S1620     -51.858 146.353   9.237  1.00 91.14     0.045 C 
HETATM   25  C23 STQ S1620     -51.713 147.763   9.796  1.00 98.01     0.142 C 
HETATM   26  C24 STQ S1620     -50.302 148.093  10.231  1.00 91.63     0.007 C 
HETATM   27  C25 STQ S1620     -49.232 147.386   9.854  1.00 90.78    -0.077 C 
HETATM   28  C26 STQ S1620     -49.378 145.982   9.332  1.00 96.81     0.044 C 
HETATM   29  C27 STQ S1620     -48.181 145.556   8.514  1.00 98.92    -0.016 C 
HETATM   30  C28 STQ S1620     -47.416 144.579   8.982  1.00 95.46     0.003 C 
HETATM   31  C29 STQ S1620     -46.248 144.084   8.244  1.00 98.36    -0.062 C 
HETATM   32  C30 STQ S1620     -45.645 143.000   8.733  1.00 99.37     0.007 C 
HETATM   33  C31 STQ S1620     -44.491 142.354   8.132  1.00 94.54     0.001 C 
HETATM   34  C32 STQ S1620     -44.058 141.297   8.800  1.00 98.74     0.007 C 
HETATM   35  C33 STQ S1620     -42.927 140.460   8.384  1.00 97.67    -0.062 C 
HETATM   36  C34 STQ S1620     -42.555 139.481   9.213  1.00 93.99     0.007 C 
HETATM   37  C35 STQ S1620     -41.475 138.578   8.864  1.00 93.68     0.001 C 
HETATM   38  C36 STQ S1620     -50.514 146.455   7.110  1.00 98.37     0.016 C 
HETATM   39  C37 STQ S1620     -50.910 144.324   8.258  1.00 91.95     0.016 C 
HETATM   40  C38 STQ S1620     -47.883 148.025   9.976  1.00 91.00     0.044 C 
HETATM   41  C39 STQ S1620     -45.773 144.760   6.996  1.00 97.56     0.048 C 
HETATM   42  C40 STQ S1620     -42.240 140.679   7.071  1.00 95.91     0.048 C 
HETATM   43  O23 STQ S1620     -52.599 147.913  10.914  1.00 99.71    -0.392 OA
ATOM     44  H23 STQ S1620     -52.509 148.792  11.263  1.00  0.00     0.210 HD
ENDROOT
TORSDOF 12
