REMARK VINA RESULT:    -6.117      2.370     16.770
REMARK INTER + INTRA:          -8.507
REMARK INTER:                  -4.110
REMARK INTRA:                  -4.397
REMARK UNBOUND:                -2.390
REMARK  0 active torsions:
REMARK  status: ('A' for Active; 'I' for Inactive)
REMARK       I    between atoms: C3_3  and  O3_21 
REMARK       I    between atoms: C6_6  and  C7_7 
REMARK       I    between atoms: C8_8  and  C9_9 
REMARK       I    between atoms: C10_10  and  C11_11 
REMARK       I    between atoms: C12_12  and  C13_13 
REMARK       I    between atoms: C14_14  and  C15_15 
REMARK       I    between atoms: C23_25  and  O23_43 
REMARK       I    between atoms: C26_28  and  C27_29 
REMARK       I    between atoms: C28_30  and  C29_31 
REMARK       I    between atoms: C30_32  and  C31_33 
REMARK       I    between atoms: C32_34  and  C33_35 
REMARK       I    between atoms: C34_36  and  C35_37 
ROOT
HETATM    1  C1  STQ 2 619     -49.989 149.946   7.011  1.00 46.63    -0.018 C 
HETATM    2  C2  STQ 2 619     -50.562 149.083   5.888  1.00 46.63     0.045 C 
HETATM    3  C3  STQ 2 619     -51.625 148.084   6.328  1.00 46.63     0.123 C 
HETATM    4  C4  STQ 2 619     -52.453 148.679   7.453  1.00 46.63     0.066 C 
HETATM    5  C5  STQ 2 619     -51.530 148.899   8.620  1.00 46.63    -0.074 C 
HETATM    6  C6  STQ 2 619     -50.326 149.430   8.385  1.00 46.63    -0.048 C 
HETATM    7  C7  STQ 2 619     -49.223 149.199   9.314  1.00 46.63     0.009 C 
HETATM    8  C8  STQ 2 619     -48.911 147.901   9.235  1.00 46.63     0.007 C 
HETATM    9  C9  STQ 2 619     -47.735 147.323   9.930  1.00 46.63    -0.062 C 
HETATM   10  C10 STQ 2 619     -47.356 146.078   9.586  1.00 46.63     0.007 C 
HETATM   11  C11 STQ 2 619     -46.179 145.401  10.133  1.00 46.63     0.001 C 
HETATM   12  C12 STQ 2 619     -45.832 144.202   9.678  1.00 46.63     0.007 C 
HETATM   13  C13 STQ 2 619     -44.631 143.503  10.179  1.00 46.63    -0.062 C 
HETATM   14  C14 STQ 2 619     -44.322 142.341   9.579  1.00 46.63     0.007 C 
HETATM   15  C15 STQ 2 619     -43.177 141.496   9.906  1.00 46.63     0.001 C 
HETATM   16  C16 STQ 2 619     -50.571 151.350   6.917  1.00 46.63     0.020 C 
HETATM   17  C17 STQ 2 619     -48.474 150.013   6.885  1.00 46.63     0.020 C 
HETATM   18  C18 STQ 2 619     -51.935 148.298   9.940  1.00 46.63     0.044 C 
HETATM   19  C19 STQ 2 619     -46.988 148.137  10.951  1.00 46.63     0.048 C 
HETATM   20  C20 STQ 2 619     -43.829 144.102  11.299  1.00 46.63     0.048 C 
HETATM   21  O3  STQ 2 619     -52.484 147.779   5.226  1.00 46.63    -0.395 OA
ATOM     22  H3  STQ 2 619     -53.146 147.155   5.500  1.00  0.00     0.210 HD
HETATM   23  C21 STQ 2 619     -34.507 132.444   8.807  1.00 46.63    -0.035 C 
HETATM   24  C22 STQ 2 619     -33.200 132.060   9.464  1.00 46.63     0.045 C 
HETATM   25  C23 STQ 2 619     -33.284 130.694  10.113  1.00 46.63     0.142 C 
HETATM   26  C24 STQ 2 619     -34.608 130.452  10.806  1.00 46.63     0.007 C 
HETATM   27  C25 STQ 2 619     -35.656 131.281  10.703  1.00 46.63    -0.077 C 
HETATM   28  C26 STQ 2 619     -35.598 132.523   9.866  1.00 46.63     0.044 C 
HETATM   29  C27 STQ 2 619     -36.893 132.827   9.155  1.00 46.63    -0.016 C 
HETATM   30  C28 STQ 2 619     -37.498 133.964   9.457  1.00 46.63     0.003 C 
HETATM   31  C29 STQ 2 619     -38.735 134.402   8.801  1.00 46.63    -0.062 C 
HETATM   32  C30 STQ 2 619     -39.163 135.611   9.183  1.00 46.63     0.007 C 
HETATM   33  C31 STQ 2 619     -40.343 136.290   8.675  1.00 46.63     0.001 C 
HETATM   34  C32 STQ 2 619     -40.588 137.488   9.194  1.00 46.63     0.007 C 
HETATM   35  C33 STQ 2 619     -41.744 138.307   8.803  1.00 46.63    -0.062 C 
HETATM   36  C34 STQ 2 619     -41.919 139.469   9.458  1.00 46.63     0.007 C 
HETATM   37  C35 STQ 2 619     -43.028 140.383   9.201  1.00 46.63     0.001 C 
HETATM   38  C36 STQ 2 619     -34.846 131.437   7.716  1.00 46.63     0.016 C 
HETATM   39  C37 STQ 2 619     -34.334 133.808   8.156  1.00 46.63     0.016 C 
HETATM   40  C38 STQ 2 619     -36.891 130.970  11.491  1.00 46.63     0.044 C 
HETATM   41  C39 STQ 2 619     -39.391 133.550   7.757  1.00 46.63     0.048 C 
HETATM   42  C40 STQ 2 619     -42.643 137.794   7.715  1.00 46.63     0.048 C 
HETATM   43  O23 STQ 2 619     -32.243 130.631  11.087  1.00 46.63    -0.392 OA
ATOM     44  H23 STQ 2 619     -31.412 130.782  10.652  1.00  0.00     0.210 HD
ENDROOT
TORSDOF 12
