REMARK VINA RESULT:   -10.594      0.000      0.000
REMARK INTER + INTRA:         -11.031
REMARK INTER:                 -10.594
REMARK INTRA:                  -0.437
REMARK UNBOUND:                -0.437
REMARK  0 active torsions:
REMARK  status: ('A' for Active; 'I' for Inactive)
REMARK       I    between atoms: C3_3  and  O3_21 
REMARK       I    between atoms: C6_6  and  C7_7 
REMARK       I    between atoms: C8_8  and  C9_9 
REMARK       I    between atoms: C10_10  and  C11_11 
REMARK       I    between atoms: C12_12  and  C13_13 
REMARK       I    between atoms: C14_14  and  C15_15 
REMARK       I    between atoms: C23_25  and  O23_43 
REMARK       I    between atoms: C26_28  and  C27_29 
REMARK       I    between atoms: C28_30  and  C29_31 
REMARK       I    between atoms: C30_32  and  C31_33 
REMARK       I    between atoms: C32_34  and  C33_35 
REMARK       I    between atoms: C34_36  and  C35_37 
ROOT
HETATM    1  C1  STQ G1620     -49.969 144.830  12.870  1.00 59.27    -0.018 C 
HETATM    2  C2  STQ G1620     -50.764 145.347  14.058  1.00 64.60     0.045 C 
HETATM    3  C3  STQ G1620     -49.950 146.095  15.092  1.00 63.28     0.123 C 
HETATM    4  C4  STQ G1620     -49.189 147.216  14.435  1.00 61.00     0.066 C 
HETATM    5  C5  STQ G1620     -48.329 146.677  13.327  1.00 64.87    -0.074 C 
HETATM    6  C6  STQ G1620     -48.694 145.611  12.585  1.00 63.96    -0.048 C 
HETATM    7  C7  STQ G1620     -47.877 145.182  11.418  1.00 64.82     0.009 C 
HETATM    8  C8  STQ G1620     -46.817 144.376  11.534  1.00 58.91     0.007 C 
HETATM    9  C9  STQ G1620     -46.022 143.945  10.384  1.00 59.76    -0.062 C 
HETATM   10  C10 STQ G1620     -45.047 143.072  10.652  1.00 59.44     0.007 C 
HETATM   11  C11 STQ G1620     -44.136 142.490   9.684  1.00 53.66     0.001 C 
HETATM   12  C12 STQ G1620     -43.396 141.518  10.192  1.00 59.47     0.007 C 
HETATM   13  C13 STQ G1620     -42.419 140.753   9.412  1.00 64.69    -0.062 C 
HETATM   14  C14 STQ G1620     -41.863 139.692  10.001  1.00 66.67     0.007 C 
HETATM   15  C15 STQ G1620     -40.908 138.835   9.315  1.00 73.65     0.001 C 
HETATM   16  C16 STQ G1620     -50.943 144.834  11.696  1.00 56.55     0.020 C 
HETATM   17  C17 STQ G1620     -49.548 143.396  13.157  1.00 59.14     0.020 C 
HETATM   18  C18 STQ G1620     -47.122 147.519  13.022  1.00 61.00     0.044 C 
HETATM   19  C19 STQ G1620     -46.297 144.483   9.013  1.00 55.95     0.048 C 
HETATM   20  C20 STQ G1620     -42.081 141.149   8.008  1.00 67.83     0.048 C 
HETATM   21  O3  STQ G1620     -50.834 146.645  16.072  1.00 73.40    -0.395 OA
ATOM     22  H3  STQ G1620     -50.324 147.115  16.722  1.00  0.00     0.210 HD
HETATM   23  C21 STQ G1620     -34.189 128.268   7.043  1.00 98.57    -0.035 C 
HETATM   24  C22 STQ G1620     -33.423 127.549   5.946  1.00 99.41     0.045 C 
HETATM   25  C23 STQ G1620     -31.920 127.757   5.978  1.00 97.16     0.142 C 
HETATM   26  C24 STQ G1620     -31.546 129.188   6.257  1.00 98.31     0.007 C 
HETATM   27  C25 STQ G1620     -32.368 130.037   6.882  1.00 99.68    -0.077 C 
HETATM   28  C26 STQ G1620     -33.839 129.762   7.056  1.00 95.76     0.044 C 
HETATM   29  C27 STQ G1620     -34.377 130.411   8.313  1.00 93.26    -0.016 C 
HETATM   30  C28 STQ G1620     -35.249 131.394   8.141  1.00 94.82     0.003 C 
HETATM   31  C29 STQ G1620     -35.891 132.124   9.235  1.00 93.82    -0.062 C 
HETATM   32  C30 STQ G1620     -36.764 133.056   8.857  1.00 83.29     0.007 C 
HETATM   33  C31 STQ G1620     -37.540 133.877   9.764  1.00 75.18     0.001 C 
HETATM   34  C32 STQ G1620     -38.217 134.847   9.175  1.00 71.38     0.007 C 
HETATM   35  C33 STQ G1620     -39.091 135.754   9.924  1.00 70.67    -0.062 C 
HETATM   36  C34 STQ G1620     -39.656 136.769   9.261  1.00 74.09     0.007 C 
HETATM   37  C35 STQ G1620     -40.572 137.695   9.908  1.00 74.87     0.001 C 
HETATM   38  C36 STQ G1620     -33.930 127.603   8.392  1.00 91.33     0.016 C 
HETATM   39  C37 STQ G1620     -35.667 128.102   6.712  1.00 94.51     0.016 C 
HETATM   40  C38 STQ G1620     -31.779 131.312   7.393  1.00 94.89     0.044 C 
HETATM   41  C39 STQ G1620     -35.595 131.833  10.675  1.00 99.93     0.048 C 
HETATM   42  C40 STQ G1620     -39.353 135.514  11.375  1.00 65.73     0.048 C 
HETATM   43  O23 STQ G1620     -31.413 127.404   4.690  1.00 98.59    -0.392 OA
ATOM     44  H23 STQ G1620     -30.472 127.534   4.710  1.00  0.00     0.210 HD
ENDROOT
TORSDOF 12
