REMARK VINA RESULT:    -7.901      0.000      0.000
REMARK INTER + INTRA:         -10.984
REMARK INTER:                  -7.901
REMARK INTRA:                  -3.083
REMARK UNBOUND:                -3.083
REMARK  0 active torsions:
REMARK  status: ('A' for Active; 'I' for Inactive)
REMARK       I    between atoms: C3_3  and  O3_21 
REMARK       I    between atoms: C6_6  and  C7_7 
REMARK       I    between atoms: C8_8  and  C9_9 
REMARK       I    between atoms: C10_10  and  C11_11 
REMARK       I    between atoms: C12_12  and  C13_13 
REMARK       I    between atoms: C14_14  and  C15_15 
REMARK       I    between atoms: C23_25  and  O23_43 
REMARK       I    between atoms: C26_28  and  C27_29 
REMARK       I    between atoms: C28_30  and  C29_31 
REMARK       I    between atoms: C30_32  and  C31_33 
REMARK       I    between atoms: C32_34  and  C33_35 
REMARK       I    between atoms: C34_36  and  C35_37 
ROOT
HETATM    1  C1  STQ 2 617     -49.795 147.577  11.763  1.00 73.56    -0.018 C 
HETATM    2  C2  STQ 2 617     -49.748 148.656  12.847  1.00 73.56     0.045 C 
HETATM    3  C3  STQ 2 617     -49.009 149.957  12.544  1.00 73.56     0.123 C 
HETATM    4  C4  STQ 2 617     -49.075 150.304  11.064  1.00 73.56     0.066 C 
HETATM    5  C5  STQ 2 617     -48.514 149.135  10.302  1.00 73.56    -0.074 C 
HETATM    6  C6  STQ 2 617     -48.995 147.904  10.511  1.00 73.56    -0.048 C 
HETATM    7  C7  STQ 2 617     -48.782 146.841   9.498  1.00 73.56     0.009 C 
HETATM    8  C8  STQ 2 617     -47.670 146.103   9.448  1.00 73.56     0.007 C 
HETATM    9  C9  STQ 2 617     -47.491 145.052   8.429  1.00 73.56    -0.062 C 
HETATM   10  C10 STQ 2 617     -46.499 144.165   8.591  1.00 73.56     0.007 C 
HETATM   11  C11 STQ 2 617     -46.225 143.086   7.645  1.00 73.56     0.001 C 
HETATM   12  C12 STQ 2 617     -45.059 142.455   7.758  1.00 73.56     0.007 C 
HETATM   13  C13 STQ 2 617     -44.657 141.341   6.878  1.00 73.56    -0.062 C 
HETATM   14  C14 STQ 2 617     -43.698 140.518   7.323  1.00 73.56     0.007 C 
HETATM   15  C15 STQ 2 617     -43.210 139.362   6.579  1.00 73.56     0.001 C 
HETATM   16  C16 STQ 2 617     -51.264 147.333  11.422  1.00 73.56     0.020 C 
HETATM   17  C17 STQ 2 617     -49.208 146.294  12.340  1.00 73.56     0.020 C 
HETATM   18  C18 STQ 2 617     -48.121 149.602   8.929  1.00 73.56     0.044 C 
HETATM   19  C19 STQ 2 617     -48.399 144.983   7.239  1.00 73.56     0.048 C 
HETATM   20  C20 STQ 2 617     -45.295 141.139   5.535  1.00 73.56     0.048 C 
HETATM   21  O3  STQ 2 617     -49.601 151.017  13.304  1.00 73.56    -0.395 OA
ATOM     22  H3  STQ 2 617     -49.141 151.827  13.115  1.00  0.00     0.210 HD
HETATM   23  C21 STQ 2 617     -36.966 127.883   8.129  1.00 73.56    -0.035 C 
HETATM   24  C22 STQ 2 617     -36.548 126.656   7.315  1.00 73.56     0.045 C 
HETATM   25  C23 STQ 2 617     -35.172 126.730   6.650  1.00 73.56     0.142 C 
HETATM   26  C24 STQ 2 617     -34.829 128.129   6.185  1.00 73.56     0.007 C 
HETATM   27  C25 STQ 2 617     -35.300 129.189   6.855  1.00 73.56    -0.077 C 
HETATM   28  C26 STQ 2 617     -36.725 129.163   7.328  1.00 73.56     0.044 C 
HETATM   29  C27 STQ 2 617     -37.087 130.399   8.127  1.00 73.56    -0.016 C 
HETATM   30  C28 STQ 2 617     -37.923 131.258   7.549  1.00 73.56     0.003 C 
HETATM   31  C29 STQ 2 617     -38.381 132.507   8.185  1.00 73.56    -0.062 C 
HETATM   32  C30 STQ 2 617     -39.209 133.291   7.482  1.00 73.56     0.007 C 
HETATM   33  C31 STQ 2 617     -39.750 134.551   7.981  1.00 73.56     0.001 C 
HETATM   34  C32 STQ 2 617     -40.533 135.262   7.171  1.00 73.56     0.007 C 
HETATM   35  C33 STQ 2 617     -41.128 136.537   7.607  1.00 73.56    -0.062 C 
HETATM   36  C34 STQ 2 617     -41.931 137.249   6.795  1.00 73.56     0.007 C 
HETATM   37  C35 STQ 2 617     -42.507 138.496   7.301  1.00 73.56     0.001 C 
HETATM   38  C36 STQ 2 617     -36.230 127.929   9.465  1.00 73.56     0.016 C 
HETATM   39  C37 STQ 2 617     -38.459 127.765   8.419  1.00 73.56     0.016 C 
HETATM   40  C38 STQ 2 617     -34.402 130.357   7.138  1.00 73.56     0.044 C 
HETATM   41  C39 STQ 2 617     -37.935 132.883   9.566  1.00 73.56     0.048 C 
HETATM   42  C40 STQ 2 617     -40.825 137.027   8.989  1.00 73.56     0.048 C 
HETATM   43  O23 STQ 2 617     -35.150 125.850   5.520  1.00 73.56    -0.392 OA
ATOM     44  H23 STQ 2 617     -34.296 125.896   5.107  1.00  0.00     0.210 HD
ENDROOT
TORSDOF 12
