REMARK VINA RESULT:    -5.657      2.023     16.513
REMARK INTER + INTRA:          -8.224
REMARK INTER:                  -3.979
REMARK INTRA:                  -4.245
REMARK UNBOUND:                -2.568
REMARK  0 active torsions:
REMARK  status: ('A' for Active; 'I' for Inactive)
REMARK       I    between atoms: C3_3  and  O3_21 
REMARK       I    between atoms: C6_6  and  C7_7 
REMARK       I    between atoms: C8_8  and  C9_9 
REMARK       I    between atoms: C10_10  and  C11_11 
REMARK       I    between atoms: C12_12  and  C13_13 
REMARK       I    between atoms: C14_14  and  C15_15 
REMARK       I    between atoms: C23_25  and  O23_43 
REMARK       I    between atoms: C26_28  and  C27_29 
REMARK       I    between atoms: C28_30  and  C29_31 
REMARK       I    between atoms: C30_32  and  C31_33 
REMARK       I    between atoms: C32_34  and  C33_35 
REMARK       I    between atoms: C34_36  and  C35_37 
ROOT
HETATM    1  C1  STQ 7 619     -49.988 149.949   6.602  1.00 33.87    -0.018 C 
HETATM    2  C2  STQ 7 619     -50.372 148.998   5.477  1.00 33.87     0.045 C 
HETATM    3  C3  STQ 7 619     -51.464 148.008   5.849  1.00 33.87     0.123 C 
HETATM    4  C4  STQ 7 619     -52.441 148.648   6.817  1.00 33.87     0.066 C 
HETATM    5  C5  STQ 7 619     -51.700 148.995   8.078  1.00 33.87    -0.074 C 
HETATM    6  C6  STQ 7 619     -50.458 149.477   7.952  1.00 33.87    -0.048 C 
HETATM    7  C7  STQ 7 619     -49.430 149.253   8.964  1.00 33.87     0.009 C 
HETATM    8  C8  STQ 7 619     -49.190 147.938   9.015  1.00 33.87     0.007 C 
HETATM    9  C9  STQ 7 619     -48.076 147.370   9.805  1.00 33.87    -0.062 C 
HETATM   10  C10 STQ 7 619     -47.728 146.095   9.544  1.00 33.87     0.007 C 
HETATM   11  C11 STQ 7 619     -46.589 145.409  10.157  1.00 33.87     0.001 C 
HETATM   12  C12 STQ 7 619     -46.247 144.198   9.727  1.00 33.87     0.007 C 
HETATM   13  C13 STQ 7 619     -45.065 143.482  10.245  1.00 33.87    -0.062 C 
HETATM   14  C14 STQ 7 619     -44.720 142.359   9.596  1.00 33.87     0.007 C 
HETATM   15  C15 STQ 7 619     -43.567 141.520   9.910  1.00 33.87     0.001 C 
HETATM   16  C16 STQ 7 619     -50.642 151.307   6.374  1.00 33.87     0.020 C 
HETATM   17  C17 STQ 7 619     -48.475 150.111   6.650  1.00 33.87     0.020 C 
HETATM   18  C18 STQ 7 619     -52.237 148.296   9.297  1.00 33.87     0.044 C 
HETATM   19  C19 STQ 7 619     -47.355 148.227  10.809  1.00 33.87     0.048 C 
HETATM   20  C20 STQ 7 619     -44.298 144.035  11.411  1.00 33.87     0.048 C 
HETATM   21  O3  STQ 7 619     -52.173 147.623   4.669  1.00 33.87    -0.395 OA
ATOM     22  H3  STQ 7 619     -52.855 147.004   4.901  1.00  0.00     0.210 HD
HETATM   23  C21 STQ 7 619     -34.782 132.634   9.005  1.00 33.87    -0.035 C 
HETATM   24  C22 STQ 7 619     -33.535 132.021   9.588  1.00 33.87     0.045 C 
HETATM   25  C23 STQ 7 619     -33.754 130.568   9.942  1.00 33.87     0.142 C 
HETATM   26  C24 STQ 7 619     -35.044 130.377  10.698  1.00 33.87     0.007 C 
HETATM   27  C25 STQ 7 619     -36.016 131.295  10.740  1.00 33.87    -0.077 C 
HETATM   28  C26 STQ 7 619     -35.907 132.608  10.029  1.00 33.87     0.044 C 
HETATM   29  C27 STQ 7 619     -37.171 132.961   9.290  1.00 33.87    -0.016 C 
HETATM   30  C28 STQ 7 619     -37.725 134.135   9.539  1.00 33.87     0.003 C 
HETATM   31  C29 STQ 7 619     -38.932 134.590   8.843  1.00 33.87    -0.062 C 
HETATM   32  C30 STQ 7 619     -39.346 135.822   9.162  1.00 33.87     0.007 C 
HETATM   33  C31 STQ 7 619     -40.517 136.483   8.607  1.00 33.87     0.001 C 
HETATM   34  C32 STQ 7 619     -40.806 137.671   9.110  1.00 33.87     0.007 C 
HETATM   35  C33 STQ 7 619     -41.977 138.455   8.699  1.00 33.87    -0.062 C 
HETATM   36  C34 STQ 7 619     -42.229 139.573   9.402  1.00 33.87     0.007 C 
HETATM   37  C35 STQ 7 619     -43.362 140.456   9.149  1.00 33.87     0.001 C 
HETATM   38  C36 STQ 7 619     -35.160 131.892   7.733  1.00 33.87     0.016 C 
HETATM   39  C37 STQ 7 619     -34.468 134.077   8.650  1.00 33.87     0.016 C 
HETATM   40  C38 STQ 7 619     -37.235 131.010  11.556  1.00 33.87     0.044 C 
HETATM   41  C39 STQ 7 619     -39.585 133.714   7.819  1.00 33.87     0.048 C 
HETATM   42  C40 STQ 7 619     -42.818 137.949   7.566  1.00 33.87     0.048 C 
HETATM   43  O23 STQ 7 619     -32.667 130.188  10.779  1.00 33.87    -0.392 OA
ATOM     44  H23 STQ 7 619     -32.805 129.275  11.001  1.00  0.00     0.210 HD
ENDROOT
TORSDOF 12
