REMARK VINA RESULT:    -5.536      3.386      5.076
REMARK INTER + INTRA:          -6.544
REMARK INTER:                  -2.288
REMARK INTRA:                  -4.256
REMARK UNBOUND:                -1.008
REMARK  0 active torsions:
REMARK  status: ('A' for Active; 'I' for Inactive)
REMARK       I    between atoms: C3_3  and  O3_21 
REMARK       I    between atoms: C6_6  and  C7_7 
REMARK       I    between atoms: C8_8  and  C9_9 
REMARK       I    between atoms: C10_10  and  C11_11 
REMARK       I    between atoms: C12_12  and  C13_13 
REMARK       I    between atoms: C14_14  and  C15_15 
REMARK       I    between atoms: C23_25  and  O23_43 
REMARK       I    between atoms: C26_28  and  C27_29 
REMARK       I    between atoms: C28_30  and  C29_31 
REMARK       I    between atoms: C30_32  and  C31_33 
REMARK       I    between atoms: C32_34  and  C33_35 
REMARK       I    between atoms: C34_36  and  C35_37 
ROOT
HETATM    1  C1  STQ 5 620     -49.582 149.980   6.920  1.00 42.32    -0.018 C 
HETATM    2  C2  STQ 5 620     -49.957 148.891   5.919  1.00 42.32     0.045 C 
HETATM    3  C3  STQ 5 620     -51.075 147.961   6.377  1.00 42.32     0.123 C 
HETATM    4  C4  STQ 5 620     -52.085 148.722   7.216  1.00 42.32     0.066 C 
HETATM    5  C5  STQ 5 620     -51.381 149.265   8.429  1.00 42.32    -0.074 C 
HETATM    6  C6  STQ 5 620     -50.125 149.693   8.300  1.00 42.32    -0.048 C 
HETATM    7  C7  STQ 5 620     -49.148 149.500   9.375  1.00 42.32     0.009 C 
HETATM    8  C8  STQ 5 620     -48.759 148.218   9.298  1.00 42.32     0.007 C 
HETATM    9  C9  STQ 5 620     -47.730 147.615  10.182  1.00 42.32    -0.062 C 
HETATM   10  C10 STQ 5 620     -47.357 146.345   9.920  1.00 42.32     0.007 C 
HETATM   11  C11 STQ 5 620     -46.311 145.628  10.650  1.00 42.32     0.001 C 
HETATM   12  C12 STQ 5 620     -45.925 144.432  10.225  1.00 42.32     0.007 C 
HETATM   13  C13 STQ 5 620     -44.817 143.705  10.869  1.00 42.32    -0.062 C 
HETATM   14  C14 STQ 5 620     -44.400 142.605  10.230  1.00 42.32     0.007 C 
HETATM   15  C15 STQ 5 620     -43.292 141.743  10.623  1.00 42.32     0.001 C 
HETATM   16  C16 STQ 5 620     -50.121 151.310   6.410  1.00 42.32     0.020 C 
HETATM   17  C17 STQ 5 620     -48.066 150.054   7.034  1.00 42.32     0.020 C 
HETATM   18  C18 STQ 5 620     -51.925 148.640   9.681  1.00 42.32     0.044 C 
HETATM   19  C19 STQ 5 620     -47.128 148.410  11.308  1.00 42.32     0.048 C 
HETATM   20  C20 STQ 5 620     -44.185 144.230  12.125  1.00 42.32     0.048 C 
HETATM   21  O3  STQ 5 620     -51.745 147.423   5.232  1.00 42.32    -0.395 OA
ATOM     22  H3  STQ 5 620     -52.442 146.844   5.516  1.00  0.00     0.210 HD
HETATM   23  C21 STQ 5 620     -34.786 132.739   8.955  1.00 42.32    -0.035 C 
HETATM   24  C22 STQ 5 620     -33.485 132.267   9.556  1.00 42.32     0.045 C 
HETATM   25  C23 STQ 5 620     -33.572 130.812   9.955  1.00 42.32     0.142 C 
HETATM   26  C24 STQ 5 620     -34.844 130.531  10.717  1.00 42.32     0.007 C 
HETATM   27  C25 STQ 5 620     -35.892 131.370  10.742  1.00 42.32    -0.077 C 
HETATM   28  C26 STQ 5 620     -35.894 132.672   9.999  1.00 42.32     0.044 C 
HETATM   29  C27 STQ 5 620     -37.170 133.011   9.261  1.00 42.32    -0.016 C 
HETATM   30  C28 STQ 5 620     -37.804 134.105   9.644  1.00 42.32     0.003 C 
HETATM   31  C29 STQ 5 620     -39.001 134.625   8.978  1.00 42.32    -0.062 C 
HETATM   32  C30 STQ 5 620     -39.384 135.822   9.435  1.00 42.32     0.007 C 
HETATM   33  C31 STQ 5 620     -40.505 136.609   8.950  1.00 42.32     0.001 C 
HETATM   34  C32 STQ 5 620     -40.698 137.768   9.567  1.00 42.32     0.007 C 
HETATM   35  C33 STQ 5 620     -41.790 138.686   9.227  1.00 42.32    -0.062 C 
HETATM   36  C34 STQ 5 620     -41.981 139.757  10.025  1.00 42.32     0.007 C 
HETATM   37  C35 STQ 5 620     -43.050 140.727   9.804  1.00 42.32     0.001 C 
HETATM   38  C36 STQ 5 620     -35.113 131.896   7.732  1.00 42.32     0.016 C 
HETATM   39  C37 STQ 5 620     -34.611 134.181   8.508  1.00 42.32     0.016 C 
HETATM   40  C38 STQ 5 620     -37.060 131.024  11.605  1.00 42.32     0.044 C 
HETATM   41  C39 STQ 5 620     -39.640 133.891   7.837  1.00 42.32     0.048 C 
HETATM   42  C40 STQ 5 620     -42.615 138.360   8.019  1.00 42.32     0.048 C 
HETATM   43  O23 STQ 5 620     -32.442 130.544  10.785  1.00 42.32    -0.392 OA
ATOM     44  H23 STQ 5 620     -32.497 129.629  11.036  1.00  0.00     0.210 HD
ENDROOT
TORSDOF 12
