REMARK VINA RESULT:    -8.672      0.000      0.000
REMARK INTER + INTRA:         -12.225
REMARK INTER:                  -8.672
REMARK INTRA:                  -3.552
REMARK UNBOUND:                -3.552
REMARK  0 active torsions:
REMARK  status: ('A' for Active; 'I' for Inactive)
REMARK       I    between atoms: C3_3  and  O3_21 
REMARK       I    between atoms: C6_6  and  C7_7 
REMARK       I    between atoms: C8_8  and  C9_9 
REMARK       I    between atoms: C10_10  and  C11_11 
REMARK       I    between atoms: C12_12  and  C13_13 
REMARK       I    between atoms: C14_14  and  C15_15 
REMARK       I    between atoms: C23_25  and  O23_43 
REMARK       I    between atoms: C26_28  and  C27_29 
REMARK       I    between atoms: C28_30  and  C29_31 
REMARK       I    between atoms: C30_32  and  C31_33 
REMARK       I    between atoms: C32_34  and  C33_35 
REMARK       I    between atoms: C34_36  and  C35_37 
ROOT
HETATM    1  C1  STQ 3 622     -34.583 127.559   5.899  1.00 17.54    -0.018 C 
HETATM    2  C2  STQ 3 622     -34.153 127.454   4.446  1.00 17.54     0.045 C 
HETATM    3  C3  STQ 3 622     -32.669 127.255   4.151  1.00 17.54     0.123 C 
HETATM    4  C4  STQ 3 622     -31.723 127.867   5.175  1.00 17.54     0.066 C 
HETATM    5  C5  STQ 3 622     -32.412 128.716   6.212  1.00 17.54    -0.074 C 
HETATM    6  C6  STQ 3 622     -33.679 128.533   6.611  1.00 17.54    -0.048 C 
HETATM    7  C7  STQ 3 622     -34.201 129.264   7.791  1.00 17.54     0.009 C 
HETATM    8  C8  STQ 3 622     -34.886 130.400   7.694  1.00 17.54     0.007 C 
HETATM    9  C9  STQ 3 622     -35.378 131.088   8.901  1.00 17.54    -0.062 C 
HETATM   10  C10 STQ 3 622     -36.064 132.225   8.741  1.00 17.54     0.007 C 
HETATM   11  C11 STQ 3 622     -36.620 133.020   9.835  1.00 17.54     0.001 C 
HETATM   12  C12 STQ 3 622     -37.461 133.972   9.450  1.00 17.54     0.007 C 
HETATM   13  C13 STQ 3 622     -38.185 134.932  10.299  1.00 17.54    -0.062 C 
HETATM   14  C14 STQ 3 622     -38.844 135.906   9.658  1.00 17.54     0.007 C 
HETATM   15  C15 STQ 3 622     -39.626 136.927  10.335  1.00 17.54     0.001 C 
HETATM   16  C16 STQ 3 622     -34.610 126.198   6.593  1.00 17.54     0.020 C 
HETATM   17  C17 STQ 3 622     -36.005 128.087   5.900  1.00 17.54     0.020 C 
HETATM   18  C18 STQ 3 622     -31.467 129.532   7.022  1.00 17.54     0.044 C 
HETATM   19  C19 STQ 3 622     -35.114 130.521  10.261  1.00 17.54     0.048 C 
HETATM   20  C20 STQ 3 622     -38.198 134.836  11.794  1.00 17.54     0.048 C 
HETATM   21  O3  STQ 3 622     -32.411 125.850   4.064  1.00 17.54    -0.395 OA
ATOM     22  H3  STQ 3 622     -31.487 125.726   3.880  1.00  0.00     0.210 HD
HETATM   23  C21 STQ 3 622     -47.363 146.592  13.305  1.00 17.54    -0.035 C 
HETATM   24  C22 STQ 3 622     -48.060 147.291  14.466  1.00 17.54     0.045 C 
HETATM   25  C23 STQ 3 622     -47.306 148.481  15.038  1.00 17.54     0.142 C 
HETATM   26  C24 STQ 3 622     -45.820 148.232  15.124  1.00 17.54     0.007 C 
HETATM   27  C25 STQ 3 622     -45.189 147.325  14.368  1.00 17.54    -0.077 C 
HETATM   28  C26 STQ 3 622     -45.925 146.208  13.676  1.00 17.54     0.044 C 
HETATM   29  C27 STQ 3 622     -45.170 145.743  12.446  1.00 17.54    -0.016 C 
HETATM   30  C28 STQ 3 622     -44.713 144.497  12.415  1.00 17.54     0.003 C 
HETATM   31  C29 STQ 3 622     -43.980 143.958  11.260  1.00 17.54    -0.062 C 
HETATM   32  C30 STQ 3 622     -43.622 142.674  11.323  1.00 17.54     0.007 C 
HETATM   33  C31 STQ 3 622     -42.894 141.967  10.281  1.00 17.54     0.001 C 
HETATM   34  C32 STQ 3 622     -42.320 140.838  10.668  1.00 17.54     0.007 C 
HETATM   35  C33 STQ 3 622     -41.535 139.964   9.783  1.00 17.54    -0.062 C 
HETATM   36  C34 STQ 3 622     -41.042 138.845  10.328  1.00 17.54     0.007 C 
HETATM   37  C35 STQ 3 622     -40.245 137.857   9.617  1.00 17.54     0.001 C 
HETATM   38  C36 STQ 3 622     -47.409 147.448  12.042  1.00 17.54     0.016 C 
HETATM   39  C37 STQ 3 622     -48.153 145.322  13.024  1.00 17.54     0.016 C 
HETATM   40  C38 STQ 3 622     -43.700 147.437  14.233  1.00 17.54     0.044 C 
HETATM   41  C39 STQ 3 622     -43.663 144.818  10.075  1.00 17.54     0.048 C 
HETATM   42  C40 STQ 3 622     -41.298 140.321   8.350  1.00 17.54     0.048 C 
HETATM   43  O23 STQ 3 622     -47.786 148.752  16.359  1.00 17.54    -0.392 OA
ATOM     44  H23 STQ 3 622     -47.315 149.495  16.716  1.00  0.00     0.210 HD
ENDROOT
TORSDOF 12
