REMARK VINA RESULT:    -8.708      0.000      0.000
REMARK INTER + INTRA:         -11.516
REMARK INTER:                  -8.708
REMARK INTRA:                  -2.808
REMARK UNBOUND:                -2.808
REMARK  0 active torsions:
REMARK  status: ('A' for Active; 'I' for Inactive)
REMARK       I    between atoms: C3_3  and  O3_21 
REMARK       I    between atoms: C6_6  and  C7_7 
REMARK       I    between atoms: C8_8  and  C9_9 
REMARK       I    between atoms: C10_10  and  C11_11 
REMARK       I    between atoms: C12_12  and  C13_13 
REMARK       I    between atoms: C14_14  and  C15_15 
REMARK       I    between atoms: C23_25  and  O23_43 
REMARK       I    between atoms: C26_28  and  C27_29 
REMARK       I    between atoms: C28_30  and  C29_31 
REMARK       I    between atoms: C30_32  and  C31_33 
REMARK       I    between atoms: C32_34  and  C33_35 
REMARK       I    between atoms: C34_36  and  C35_37 
ROOT
HETATM    1  C1  STQ F5620     -34.540 126.981   6.259  1.00 19.30    -0.018 C 
HETATM    2  C2  STQ F5620     -34.155 126.313   4.925  1.00 17.68     0.045 C 
HETATM    3  C3  STQ F5620     -33.014 126.910   4.109  1.00 17.79     0.123 C 
HETATM    4  C4  STQ F5620     -32.042 127.797   4.888  1.00 18.50     0.066 C 
HETATM    5  C5  STQ F5620     -32.557 128.588   6.046  1.00 19.40    -0.074 C 
HETATM    6  C6  STQ F5620     -33.719 128.233   6.703  1.00 19.02    -0.048 C 
HETATM    7  C7  STQ F5620     -34.236 129.020   7.832  1.00 18.60     0.009 C 
HETATM    8  C8  STQ F5620     -34.899 130.194   7.762  1.00 18.09     0.007 C 
HETATM    9  C9  STQ F5620     -35.314 131.043   8.883  1.00 18.23    -0.062 C 
HETATM   10  C10 STQ F5620     -36.061 132.133   8.603  1.00 15.81     0.007 C 
HETATM   11  C11 STQ F5620     -36.586 133.082   9.546  1.00 18.00     0.001 C 
HETATM   12  C12 STQ F5620     -37.463 134.011   9.133  1.00 18.12     0.007 C 
HETATM   13  C13 STQ F5620     -38.159 135.032   9.905  1.00 18.88    -0.062 C 
HETATM   14  C14 STQ F5620     -39.081 135.775   9.256  1.00 21.10     0.007 C 
HETATM   15  C15 STQ F5620     -39.956 136.776   9.807  1.00 24.06     0.001 C 
HETATM   16  C16 STQ F5620     -34.358 125.850   7.287  1.00 17.17     0.020 C 
HETATM   17  C17 STQ F5620     -36.047 127.314   6.181  1.00 16.95     0.020 C 
HETATM   18  C18 STQ F5620     -31.630 129.734   6.299  1.00 19.80     0.044 C 
HETATM   19  C19 STQ F5620     -34.919 130.613  10.278  1.00 17.09     0.048 C 
HETATM   20  C20 STQ F5620     -37.862 135.136  11.369  1.00 16.35     0.048 C 
HETATM   21  O3  STQ F5620     -32.303 125.884   3.441  1.00 17.38    -0.395 OA
ATOM     22  H3  STQ F5620     -31.591 126.255   2.932  1.00  0.00     0.210 HD
HETATM   23  C21 STQ F5620     -49.820 144.465  12.550  1.00 25.60    -0.035 C 
HETATM   24  C22 STQ F5620     -50.660 145.420  13.432  1.00 24.99     0.045 C 
HETATM   25  C23 STQ F5620     -50.535 146.900  13.053  1.00 24.73     0.142 C 
HETATM   26  C24 STQ F5620     -49.093 147.296  12.723  1.00 25.13     0.007 C 
HETATM   27  C25 STQ F5620     -48.132 146.399  12.416  1.00 24.82    -0.077 C 
HETATM   28  C26 STQ F5620     -48.331 144.895  12.358  1.00 24.32     0.044 C 
HETATM   29  C27 STQ F5620     -47.636 144.339  11.130  1.00 25.62    -0.016 C 
HETATM   30  C28 STQ F5620     -46.685 143.380  11.184  1.00 26.25     0.003 C 
HETATM   31  C29 STQ F5620     -46.063 142.666  10.062  1.00 26.61    -0.062 C 
HETATM   32  C30 STQ F5620     -45.127 141.736  10.345  1.00 25.24     0.007 C 
HETATM   33  C31 STQ F5620     -44.440 140.897   9.408  1.00 26.40     0.001 C 
HETATM   34  C32 STQ F5620     -43.487 140.032   9.805  1.00 26.29     0.007 C 
HETATM   35  C33 STQ F5620     -42.683 139.119   8.987  1.00 26.99    -0.062 C 
HETATM   36  C34 STQ F5620     -41.753 138.370   9.619  1.00 26.65     0.007 C 
HETATM   37  C35 STQ F5620     -40.847 137.417   9.042  1.00 25.43     0.001 C 
HETATM   38  C36 STQ F5620     -50.536 144.344  11.172  1.00 22.69     0.016 C 
HETATM   39  C37 STQ F5620     -49.867 143.083  13.217  1.00 23.76     0.016 C 
HETATM   40  C38 STQ F5620     -46.798 147.003  12.150  1.00 26.09     0.044 C 
HETATM   41  C39 STQ F5620     -46.505 143.019   8.663  1.00 26.87     0.048 C 
HETATM   42  C40 STQ F5620     -42.931 139.099   7.507  1.00 24.17     0.048 C 
HETATM   43  O23 STQ F5620     -51.055 147.719  14.091  1.00 24.51    -0.392 OA
ATOM     44  H23 STQ F5620     -50.978 148.637  13.856  1.00  0.00     0.210 HD
ENDROOT
TORSDOF 12
