REMARK VINA RESULT:    -8.343      1.794     17.126
REMARK INTER + INTRA:          -9.019
REMARK INTER:                  -9.018
REMARK INTRA:                  -0.000
REMARK UNBOUND:                -0.676
REMARK  0 active torsions:
REMARK  status: ('A' for Active; 'I' for Inactive)
REMARK       I    between atoms: C3_3  and  O3_21 
REMARK       I    between atoms: C6_6  and  C7_7 
REMARK       I    between atoms: C8_8  and  C9_9 
REMARK       I    between atoms: C10_10  and  C11_11 
REMARK       I    between atoms: C12_12  and  C13_13 
REMARK       I    between atoms: C14_14  and  C15_15 
REMARK       I    between atoms: C23_25  and  O23_43 
REMARK       I    between atoms: C26_28  and  C27_29 
REMARK       I    between atoms: C28_30  and  C29_31 
REMARK       I    between atoms: C30_32  and  C31_33 
REMARK       I    between atoms: C32_34  and  C33_35 
REMARK       I    between atoms: C34_36  and  C35_37 
ROOT
HETATM    1  C1  STQ 6 321     -34.109 128.003   7.256  1.00 93.31    -0.018 C 
HETATM    2  C2  STQ 6 321     -33.199 127.267   6.272  1.00 93.93     0.045 C 
HETATM    3  C3  STQ 6 321     -32.388 128.148   5.332  1.00 93.98     0.123 C 
HETATM    4  C4  STQ 6 321     -31.697 129.243   6.125  1.00 93.16     0.066 C 
HETATM    5  C5  STQ 6 321     -32.728 130.055   6.861  1.00 92.19    -0.074 C 
HETATM    6  C6  STQ 6 321     -33.794 129.478   7.427  1.00 91.50    -0.048 C 
HETATM    7  C7  STQ 6 321     -34.703 130.294   8.266  1.00 98.60     0.009 C 
HETATM    8  C8  STQ 6 321     -35.674 131.043   7.736  1.00 95.09     0.007 C 
HETATM    9  C9  STQ 6 321     -36.567 131.849   8.594  1.00 91.76    -0.062 C 
HETATM   10  C10 STQ 6 321     -37.400 132.731   8.025  1.00 98.95     0.007 C 
HETATM   11  C11 STQ 6 321     -38.308 133.554   8.822  1.00 96.41     0.001 C 
HETATM   12  C12 STQ 6 321     -39.104 134.419   8.199  1.00 94.60     0.007 C 
HETATM   13  C13 STQ 6 321     -40.042 135.272   8.952  1.00 93.62    -0.062 C 
HETATM   14  C14 STQ 6 321     -40.861 136.108   8.295  1.00 93.18     0.007 C 
HETATM   15  C15 STQ 6 321     -41.796 136.951   9.036  1.00 93.10     0.001 C 
HETATM   16  C16 STQ 6 321     -34.010 127.314   8.612  1.00 93.81     0.020 C 
HETATM   17  C17 STQ 6 321     -35.545 127.899   6.750  1.00 92.50     0.020 C 
HETATM   18  C18 STQ 6 321     -32.368 131.478   7.176  1.00 91.81     0.044 C 
HETATM   19  C19 STQ 6 321     -36.544 131.680  10.085  1.00 91.57     0.048 C 
HETATM   20  C20 STQ 6 321     -40.080 135.199  10.450  1.00 93.41     0.048 C 
HETATM   21  O3  STQ 6 321     -31.398 127.352   4.670  1.00 94.06    -0.395 OA
ATOM     22  H3  STQ 6 321     -30.892 127.902   4.084  1.00  0.00     0.210 HD
HETATM   23  C21 STQ 6 321     -51.862 144.099  12.328  1.00 98.56    -0.035 C 
HETATM   24  C22 STQ 6 321     -52.521 144.764  13.530  1.00 98.19     0.045 C 
HETATM   25  C23 STQ 6 321     -52.371 146.285  13.561  1.00 98.22     0.142 C 
HETATM   26  C24 STQ 6 321     -50.993 146.726  13.124  1.00 99.27     0.007 C 
HETATM   27  C25 STQ 6 321     -50.231 145.990  12.304  1.00 99.66    -0.077 C 
HETATM   28  C26 STQ 6 321     -50.391 144.497  12.234  1.00 99.84     0.044 C 
HETATM   29  C27 STQ 6 321     -49.776 143.966  10.955  1.00 90.68    -0.016 C 
HETATM   30  C28 STQ 6 321     -48.712 143.174  11.062  1.00 92.00     0.003 C 
HETATM   31  C29 STQ 6 321     -48.013 142.585   9.903  1.00 92.38    -0.062 C 
HETATM   32  C30 STQ 6 321     -46.972 141.777  10.154  1.00 92.82     0.007 C 
HETATM   33  C31 STQ 6 321     -46.181 141.116   9.119  1.00 93.26     0.001 C 
HETATM   34  C32 STQ 6 321     -45.235 140.283   9.546  1.00 94.43     0.007 C 
HETATM   35  C33 STQ 6 321     -44.346 139.521   8.647  1.00 94.12    -0.062 C 
HETATM   36  C34 STQ 6 321     -43.509 138.627   9.197  1.00 93.68     0.007 C 
HETATM   37  C35 STQ 6 321     -42.591 137.815   8.405  1.00 93.36     0.001 C 
HETATM   38  C36 STQ 6 321     -52.600 144.463  11.044  1.00 97.63     0.016 C 
HETATM   39  C37 STQ 6 321     -51.944 142.589  12.516  1.00 98.72     0.016 C 
HETATM   40  C38 STQ 6 321     -49.206 146.672  11.446  1.00 99.28     0.044 C 
HETATM   41  C39 STQ 6 321     -48.451 142.881   8.498  1.00 91.58     0.048 C 
HETATM   42  C40 STQ 6 321     -44.381 139.742   7.163  1.00 93.59     0.048 C 
HETATM   43  O23 STQ 6 321     -52.600 146.749  14.897  1.00 97.53    -0.392 OA
ATOM     44  H23 STQ 6 321     -52.506 147.695  14.916  1.00  0.00     0.210 HD
ENDROOT
TORSDOF 12
