REMARK VINA RESULT:    -8.283      1.395     17.321
REMARK INTER + INTRA:          -8.783
REMARK INTER:                  -7.850
REMARK INTRA:                  -0.933
REMARK UNBOUND:                -0.500
REMARK  0 active torsions:
REMARK  status: ('A' for Active; 'I' for Inactive)
REMARK       I    between atoms: C3_3  and  O3_21 
REMARK       I    between atoms: C6_6  and  C7_7 
REMARK       I    between atoms: C8_8  and  C9_9 
REMARK       I    between atoms: C10_10  and  C11_11 
REMARK       I    between atoms: C12_12  and  C13_13 
REMARK       I    between atoms: C14_14  and  C15_15 
REMARK       I    between atoms: C23_25  and  O23_43 
REMARK       I    between atoms: C26_28  and  C27_29 
REMARK       I    between atoms: C28_30  and  C29_31 
REMARK       I    between atoms: C30_32  and  C31_33 
REMARK       I    between atoms: C32_34  and  C33_35 
REMARK       I    between atoms: C34_36  and  C35_37 
ROOT
HETATM    1  C1  STQ C2621     -49.791 146.564  12.422  1.00 21.49    -0.018 C 
HETATM    2  C2  STQ C2621     -50.753 147.052  13.519  1.00 20.69     0.045 C 
HETATM    3  C3  STQ C2621     -50.278 148.022  14.600  1.00 22.34     0.123 C 
HETATM    4  C4  STQ C2621     -48.867 148.608  14.395  1.00 20.89     0.066 C 
HETATM    5  C5  STQ C2621     -47.955 148.085  13.324  1.00 22.34    -0.074 C 
HETATM    6  C6  STQ C2621     -48.334 147.149  12.388  1.00 21.76    -0.048 C 
HETATM    7  C7  STQ C2621     -47.456 146.612  11.307  1.00 21.22     0.009 C 
HETATM    8  C8  STQ C2621     -46.522 145.623  11.445  1.00 19.00     0.007 C 
HETATM    9  C9  STQ C2621     -45.623 145.081  10.419  1.00 18.63    -0.062 C 
HETATM   10  C10 STQ C2621     -44.869 144.006  10.740  1.00 17.22     0.007 C 
HETATM   11  C11 STQ C2621     -43.990 143.274   9.853  1.00 17.28     0.001 C 
HETATM   12  C12 STQ C2621     -43.345 142.150  10.247  1.00 18.91     0.007 C 
HETATM   13  C13 STQ C2621     -42.482 141.242   9.451  1.00 19.02    -0.062 C 
HETATM   14  C14 STQ C2621     -41.975 140.151  10.069  1.00 19.35     0.007 C 
HETATM   15  C15 STQ C2621     -41.151 139.104   9.496  1.00 19.45     0.001 C 
HETATM   16  C16 STQ C2621     -50.549 146.923  11.123  1.00 20.30     0.020 C 
HETATM   17  C17 STQ C2621     -49.747 145.031  12.530  1.00 19.22     0.020 C 
HETATM   18  C18 STQ C2621     -46.636 148.756  13.426  1.00 22.01     0.044 C 
HETATM   19  C19 STQ C2621     -45.661 145.713   9.054  1.00 17.51     0.048 C 
HETATM   20  C20 STQ C2621     -42.255 141.576   8.003  1.00 16.64     0.048 C 
HETATM   21  O3  STQ C2621     -51.231 149.063  14.791  1.00 21.61    -0.395 OA
ATOM     22  H3  STQ C2621     -52.101 148.702  14.918  1.00  0.00     0.210 HD
HETATM   23  C21 STQ C2621     -34.162 128.596   6.932  1.00 19.74    -0.035 C 
HETATM   24  C22 STQ C2621     -33.378 127.615   6.029  1.00 17.55     0.045 C 
HETATM   25  C23 STQ C2621     -31.852 127.694   6.131  1.00 19.51     0.142 C 
HETATM   26  C24 STQ C2621     -31.312 129.112   6.453  1.00 19.59     0.007 C 
HETATM   27  C25 STQ C2621     -32.113 130.150   6.813  1.00 19.92    -0.077 C 
HETATM   28  C26 STQ C2621     -33.632 130.069   6.940  1.00 18.67     0.044 C 
HETATM   29  C27 STQ C2621     -34.159 130.914   8.105  1.00 17.95    -0.016 C 
HETATM   30  C28 STQ C2621     -35.176 131.821   8.029  1.00 18.06     0.003 C 
HETATM   31  C29 STQ C2621     -35.926 132.405   9.155  1.00 18.23    -0.062 C 
HETATM   32  C30 STQ C2621     -36.873 133.332   8.892  1.00 17.68     0.007 C 
HETATM   33  C31 STQ C2621     -37.683 134.034   9.871  1.00 17.41     0.001 C 
HETATM   34  C32 STQ C2621     -38.449 135.087   9.494  1.00 17.19     0.007 C 
HETATM   35  C33 STQ C2621     -39.286 135.991  10.299  1.00 16.24    -0.062 C 
HETATM   36  C34 STQ C2621     -39.868 137.034   9.666  1.00 17.04     0.007 C 
HETATM   37  C35 STQ C2621     -40.687 138.079  10.237  1.00 18.96     0.001 C 
HETATM   38  C36 STQ C2621     -34.131 127.999   8.376  1.00 17.68     0.016 C 
HETATM   39  C37 STQ C2621     -35.626 128.584   6.430  1.00 17.82     0.016 C 
HETATM   40  C38 STQ C2621     -31.433 131.445   7.080  1.00 18.56     0.044 C 
HETATM   41  C39 STQ C2621     -35.536 131.992  10.540  1.00 19.51     0.048 C 
HETATM   42  C40 STQ C2621     -39.378 135.737  11.765  1.00 13.63     0.048 C 
HETATM   43  O23 STQ C2621     -31.261 127.180   4.942  1.00 19.91    -0.392 OA
ATOM     44  H23 STQ C2621     -30.315 127.229   5.006  1.00  0.00     0.210 HD
ENDROOT
TORSDOF 12
