REMARK VINA RESULT:    -7.808      1.778     16.389
REMARK INTER + INTRA:          -9.823
REMARK INTER:                  -9.630
REMARK INTRA:                  -0.193
REMARK UNBOUND:                -2.015
REMARK  0 active torsions:
REMARK  status: ('A' for Active; 'I' for Inactive)
REMARK       I    between atoms: C3_3  and  O3_21 
REMARK       I    between atoms: C6_6  and  C7_7 
REMARK       I    between atoms: C8_8  and  C9_9 
REMARK       I    between atoms: C10_10  and  C11_11 
REMARK       I    between atoms: C12_12  and  C13_13 
REMARK       I    between atoms: C14_14  and  C15_15 
REMARK       I    between atoms: C23_25  and  O23_43 
REMARK       I    between atoms: C26_28  and  C27_29 
REMARK       I    between atoms: C28_30  and  C29_31 
REMARK       I    between atoms: C30_32  and  C31_33 
REMARK       I    between atoms: C32_34  and  C33_35 
REMARK       I    between atoms: C34_36  and  C35_37 
ROOT
HETATM    1  C1  STQ 6 619     -51.060 144.122  11.597  1.00 45.52    -0.018 C 
HETATM    2  C2  STQ 6 619     -51.065 143.282  12.872  1.00 45.52     0.045 C 
HETATM    3  C3  STQ 6 619     -50.075 143.748  13.931  1.00 45.52     0.123 C 
HETATM    4  C4  STQ 6 619     -49.924 145.256  13.858  1.00 45.52     0.066 C 
HETATM    5  C5  STQ 6 619     -49.299 145.562  12.527  1.00 45.52    -0.074 C 
HETATM    6  C6  STQ 6 619     -49.812 144.953  11.449  1.00 45.52    -0.048 C 
HETATM    7  C7  STQ 6 619     -49.031 144.826  10.216  1.00 45.52     0.009 C 
HETATM    8  C8  STQ 6 619     -47.909 144.153  10.485  1.00 45.52     0.007 C 
HETATM    9  C9  STQ 6 619     -46.968 143.711   9.433  1.00 45.52    -0.062 C 
HETATM   10  C10 STQ 6 619     -46.027 142.835   9.812  1.00 45.52     0.007 C 
HETATM   11  C11 STQ 6 619     -45.060 142.223   8.904  1.00 45.52     0.001 C 
HETATM   12  C12 STQ 6 619     -44.273 141.267   9.374  1.00 45.52     0.007 C 
HETATM   13  C13 STQ 6 619     -43.313 140.547   8.527  1.00 45.52    -0.062 C 
HETATM   14  C14 STQ 6 619     -42.713 139.498   9.103  1.00 45.52     0.007 C 
HETATM   15  C15 STQ 6 619     -41.752 138.617   8.455  1.00 45.52     0.001 C 
HETATM   16  C16 STQ 6 619     -52.229 145.100  11.631  1.00 45.52     0.020 C 
HETATM   17  C17 STQ 6 619     -51.186 143.227  10.374  1.00 45.52     0.020 C 
HETATM   18  C18 STQ 6 619     -48.043 146.398  12.526  1.00 45.52     0.044 C 
HETATM   19  C19 STQ 6 619     -47.107 144.218   8.024  1.00 45.52     0.048 C 
HETATM   20  C20 STQ 6 619     -43.064 140.997   7.118  1.00 45.52     0.048 C 
HETATM   21  O3  STQ 6 619     -50.543 143.387  15.234  1.00 45.52    -0.395 OA
ATOM     22  H3  STQ 6 619     -49.925 143.678  15.894  1.00  0.00     0.210 HD
HETATM   23  C21 STQ 6 619     -34.241 128.225   7.042  1.00 45.52    -0.035 C 
HETATM   24  C22 STQ 6 619     -33.439 127.618   5.910  1.00 45.52     0.045 C 
HETATM   25  C23 STQ 6 619     -31.964 127.989   5.929  1.00 45.52     0.142 C 
HETATM   26  C24 STQ 6 619     -31.653 129.282   6.657  1.00 45.52     0.007 C 
HETATM   27  C25 STQ 6 619     -32.587 130.072   7.208  1.00 45.52    -0.077 C 
HETATM   28  C26 STQ 6 619     -34.042 129.733   7.064  1.00 45.52     0.044 C 
HETATM   29  C27 STQ 6 619     -34.925 130.304   8.147  1.00 45.52    -0.016 C 
HETATM   30  C28 STQ 6 619     -35.688 131.342   7.836  1.00 45.52     0.003 C 
HETATM   31  C29 STQ 6 619     -36.602 131.951   8.809  1.00 45.52    -0.062 C 
HETATM   32  C30 STQ 6 619     -37.323 132.987   8.363  1.00 45.52     0.007 C 
HETATM   33  C31 STQ 6 619     -38.286 133.735   9.157  1.00 45.52     0.001 C 
HETATM   34  C32 STQ 6 619     -38.885 134.761   8.573  1.00 45.52     0.007 C 
HETATM   35  C33 STQ 6 619     -39.853 135.605   9.283  1.00 45.52    -0.062 C 
HETATM   36  C34 STQ 6 619     -40.340 136.661   8.610  1.00 45.52     0.007 C 
HETATM   37  C35 STQ 6 619     -41.299 137.603   9.174  1.00 45.52     0.001 C 
HETATM   38  C36 STQ 6 619     -33.863 127.580   8.370  1.00 45.52     0.016 C 
HETATM   39  C37 STQ 6 619     -35.706 127.928   6.758  1.00 45.52     0.016 C 
HETATM   40  C38 STQ 6 619     -32.143 131.296   7.955  1.00 45.52     0.044 C 
HETATM   41  C39 STQ 6 619     -36.701 131.379  10.192  1.00 45.52     0.048 C 
HETATM   42  C40 STQ 6 619     -40.214 135.250  10.697  1.00 45.52     0.048 C 
HETATM   43  O23 STQ 6 619     -31.501 128.063   4.575  1.00 45.52    -0.392 OA
ATOM     44  H23 STQ 6 619     -30.580 128.295   4.587  1.00  0.00     0.210 HD
ENDROOT
TORSDOF 12
