REMARK VINA RESULT:    -9.151      0.000      0.000
REMARK INTER + INTRA:         -11.516
REMARK INTER:                  -9.151
REMARK INTRA:                  -2.364
REMARK UNBOUND:                -2.364
REMARK  0 active torsions:
REMARK  status: ('A' for Active; 'I' for Inactive)
REMARK       I    between atoms: C3_3  and  O3_21 
REMARK       I    between atoms: C6_6  and  C7_7 
REMARK       I    between atoms: C8_8  and  C9_9 
REMARK       I    between atoms: C10_10  and  C11_11 
REMARK       I    between atoms: C12_12  and  C13_13 
REMARK       I    between atoms: C14_14  and  C15_15 
REMARK       I    between atoms: C23_25  and  O23_43 
REMARK       I    between atoms: C26_28  and  C27_29 
REMARK       I    between atoms: C28_30  and  C29_31 
REMARK       I    between atoms: C30_32  and  C31_33 
REMARK       I    between atoms: C32_34  and  C33_35 
REMARK       I    between atoms: C34_36  and  C35_37 
ROOT
HETATM    1  C1  STQ V1620     -34.286 127.209   6.667  1.00 15.23    -0.018 C 
HETATM    2  C2  STQ V1620     -34.091 127.280   5.165  1.00 15.23     0.045 C 
HETATM    3  C3  STQ V1620     -33.197 128.398   4.699  1.00 15.23     0.123 C 
HETATM    4  C4  STQ V1620     -31.969 128.391   5.560  1.00 15.23     0.066 C 
HETATM    5  C5  STQ V1620     -32.330 128.663   6.987  1.00 15.23    -0.074 C 
HETATM    6  C6  STQ V1620     -33.483 128.196   7.474  1.00 15.23    -0.048 C 
HETATM    7  C7  STQ V1620     -34.149 128.826   8.618  1.00 15.23     0.009 C 
HETATM    8  C8  STQ V1620     -34.348 130.132   8.422  1.00 15.23     0.007 C 
HETATM    9  C9  STQ V1620     -35.180 130.934   9.339  1.00 15.23    -0.062 C 
HETATM   10  C10 STQ V1620     -35.593 132.129   8.894  1.00 15.23     0.007 C 
HETATM   11  C11 STQ V1620     -36.525 132.980   9.621  1.00 15.23     0.001 C 
HETATM   12  C12 STQ V1620     -37.075 134.013   9.002  1.00 15.23     0.007 C 
HETATM   13  C13 STQ V1620     -38.099 134.842   9.653  1.00 15.23    -0.062 C 
HETATM   14  C14 STQ V1620     -38.754 135.720   8.887  1.00 15.23     0.007 C 
HETATM   15  C15 STQ V1620     -39.832 136.580   9.363  1.00 15.23     0.001 C 
HETATM   16  C16 STQ V1620     -33.770 125.850   7.100  1.00 15.23     0.020 C 
HETATM   17  C17 STQ V1620     -35.769 127.347   6.958  1.00 15.23     0.020 C 
HETATM   18  C18 STQ V1620     -31.502 129.728   7.642  1.00 15.23     0.044 C 
HETATM   19  C19 STQ V1620     -35.564 130.384  10.683  1.00 15.23     0.048 C 
HETATM   20  C20 STQ V1620     -38.389 134.636  11.102  1.00 15.23     0.048 C 
HETATM   21  O3  STQ V1620     -32.771 128.135   3.367  1.00 15.23    -0.395 OA
ATOM     22  H3  STQ V1620     -33.549 128.140   2.821  1.00  0.00     0.210 HD
HETATM   23  C21 STQ V1620     -49.685 144.299   9.820  1.00 15.23    -0.035 C 
HETATM   24  C22 STQ V1620     -50.648 145.027  10.723  1.00 15.23     0.045 C 
HETATM   25  C23 STQ V1620     -50.620 146.514  10.472  1.00 15.23     0.142 C 
HETATM   26  C24 STQ V1620     -49.216 147.029  10.330  1.00 15.23     0.007 C 
HETATM   27  C25 STQ V1620     -48.156 146.244  10.152  1.00 15.23    -0.077 C 
HETATM   28  C26 STQ V1620     -48.255 144.757  10.082  1.00 15.23     0.044 C 
HETATM   29  C27 STQ V1620     -47.326 144.233   9.019  1.00 15.23    -0.016 C 
HETATM   30  C28 STQ V1620     -46.479 143.275   9.360  1.00 15.23     0.003 C 
HETATM   31  C29 STQ V1620     -45.545 142.667   8.408  1.00 15.23    -0.062 C 
HETATM   32  C30 STQ V1620     -44.850 141.631   8.882  1.00 15.23     0.007 C 
HETATM   33  C31 STQ V1620     -43.868 140.860   8.140  1.00 15.23     0.001 C 
HETATM   34  C32 STQ V1620     -43.223 139.906   8.799  1.00 15.23     0.007 C 
HETATM   35  C33 STQ V1620     -42.181 139.092   8.169  1.00 15.23    -0.062 C 
HETATM   36  C34 STQ V1620     -41.521 138.231   8.956  1.00 15.23     0.007 C 
HETATM   37  C35 STQ V1620     -40.441 137.370   8.497  1.00 15.23     0.001 C 
HETATM   38  C36 STQ V1620     -50.079 144.506   8.370  1.00 15.23     0.016 C 
HETATM   39  C37 STQ V1620     -49.827 142.825  10.128  1.00 15.23     0.016 C 
HETATM   40  C38 STQ V1620     -46.821 146.902  10.053  1.00 15.23     0.044 C 
HETATM   41  C39 STQ V1620     -45.461 143.182   7.006  1.00 15.23     0.048 C 
HETATM   42  C40 STQ V1620     -41.908 139.291   6.715  1.00 15.23     0.048 C 
HETATM   43  O23 STQ V1620     -51.219 147.134  11.602  1.00 15.23    -0.392 OA
ATOM     44  H23 STQ V1620     -52.107 146.809  11.692  1.00  0.00     0.210 HD
ENDROOT
TORSDOF 12
