REMARK VINA RESULT:   -11.691      0.000      0.000
REMARK INTER + INTRA:         -12.435
REMARK INTER:                 -11.691
REMARK INTRA:                  -0.744
REMARK UNBOUND:                -0.744
REMARK  0 active torsions:
REMARK  status: ('A' for Active; 'I' for Inactive)
REMARK       I    between atoms: C3_3  and  O3_21 
REMARK       I    between atoms: C6_6  and  C7_7 
REMARK       I    between atoms: C8_8  and  C9_9 
REMARK       I    between atoms: C10_10  and  C11_11 
REMARK       I    between atoms: C12_12  and  C13_13 
REMARK       I    between atoms: C14_14  and  C15_15 
REMARK       I    between atoms: C23_25  and  O23_43 
REMARK       I    between atoms: C26_28  and  C27_29 
REMARK       I    between atoms: C28_30  and  C29_31 
REMARK       I    between atoms: C30_32  and  C31_33 
REMARK       I    between atoms: C32_34  and  C33_35 
REMARK       I    between atoms: C34_36  and  C35_37 
ROOT
HETATM    1  C1  STQ R 620     -34.210 128.353   6.928  1.00 48.79    -0.018 C 
HETATM    2  C2  STQ R 620     -33.549 128.161   5.570  1.00 49.38     0.045 C 
HETATM    3  C3  STQ R 620     -32.022 128.138   5.534  1.00 51.85     0.123 C 
HETATM    4  C4  STQ R 620     -31.383 129.221   6.386  1.00 54.16     0.066 C 
HETATM    5  C5  STQ R 620     -32.184 129.669   7.578  1.00 52.93    -0.074 C 
HETATM    6  C6  STQ R 620     -33.489 129.401   7.759  1.00 53.44    -0.048 C 
HETATM    7  C7  STQ R 620     -34.256 130.122   8.811  1.00 56.18     0.009 C 
HETATM    8  C8  STQ R 620     -35.030 131.172   8.532  1.00 54.04     0.007 C 
HETATM    9  C9  STQ R 620     -35.815 131.890   9.543  1.00 57.87    -0.062 C 
HETATM   10  C10 STQ R 620     -36.444 132.987   9.129  1.00 59.37     0.007 C 
HETATM   11  C11 STQ R 620     -37.289 133.818   9.969  1.00 54.77     0.001 C 
HETATM   12  C12 STQ R 620     -37.955 134.736   9.292  1.00 53.15     0.007 C 
HETATM   13  C13 STQ R 620     -38.898 135.671   9.902  1.00 52.91    -0.062 C 
HETATM   14  C14 STQ R 620     -39.598 136.415   9.052  1.00 56.79     0.007 C 
HETATM   15  C15 STQ R 620     -40.605 137.361   9.486  1.00 60.51     0.001 C 
HETATM   16  C16 STQ R 620     -34.253 127.024   7.667  1.00 50.92     0.020 C 
HETATM   17  C17 STQ R 620     -35.652 128.789   6.690  1.00 48.05     0.020 C 
HETATM   18  C18 STQ R 620     -31.527 130.867   8.182  1.00 55.82     0.044 C 
HETATM   19  C19 STQ R 620     -35.917 131.415  10.958  1.00 58.46     0.048 C 
HETATM   20  C20 STQ R 620     -39.083 135.765  11.385  1.00 55.54     0.048 C 
HETATM   21  O3  STQ R 620     -31.497 126.853   5.892  1.00 50.70    -0.395 OA
ATOM     22  H3  STQ R 620     -30.548 126.839   5.870  1.00  0.00     0.210 HD
HETATM   23  C21 STQ R 620     -50.433 144.714   9.511  1.00 52.92    -0.035 C 
HETATM   24  C22 STQ R 620     -51.420 145.361  10.465  1.00 50.14     0.045 C 
HETATM   25  C23 STQ R 620     -51.332 146.873  10.466  1.00 49.44     0.142 C 
HETATM   26  C24 STQ R 620     -49.908 147.354  10.574  1.00 54.43     0.007 C 
HETATM   27  C25 STQ R 620     -48.881 146.643  10.100  1.00 52.82    -0.077 C 
HETATM   28  C26 STQ R 620     -49.003 145.162   9.843  1.00 50.58     0.044 C 
HETATM   29  C27 STQ R 620     -48.055 144.727   8.753  1.00 46.60    -0.016 C 
HETATM   30  C28 STQ R 620     -47.119 143.866   9.107  1.00 44.92     0.003 C 
HETATM   31  C29 STQ R 620     -46.135 143.332   8.167  1.00 46.41    -0.062 C 
HETATM   32  C30 STQ R 620     -45.587 142.186   8.542  1.00 51.67     0.007 C 
HETATM   33  C31 STQ R 620     -44.591 141.457   7.794  1.00 48.57     0.001 C 
HETATM   34  C32 STQ R 620     -43.964 140.583   8.553  1.00 50.80     0.007 C 
HETATM   35  C33 STQ R 620     -42.912 139.714   8.041  1.00 54.69    -0.062 C 
HETATM   36  C34 STQ R 620     -42.353 138.876   8.911  1.00 55.71     0.007 C 
HETATM   37  C35 STQ R 620     -41.311 137.946   8.531  1.00 57.66     0.001 C 
HETATM   38  C36 STQ R 620     -50.807 145.010   8.059  1.00 53.57     0.016 C 
HETATM   39  C37 STQ R 620     -50.576 143.215   9.727  1.00 55.87     0.016 C 
HETATM   40  C38 STQ R 620     -47.588 147.358   9.844  1.00 57.19     0.044 C 
HETATM   41  C39 STQ R 620     -45.776 144.018   6.888  1.00 47.78     0.048 C 
HETATM   42  C40 STQ R 620     -42.492 139.802   6.608  1.00 56.30     0.048 C 
HETATM   43  O23 STQ R 620     -52.070 147.384  11.578  1.00 52.15    -0.392 OA
ATOM     44  H23 STQ R 620     -52.014 148.333  11.578  1.00  0.00     0.210 HD
ENDROOT
TORSDOF 12
