REMARK VINA RESULT:    -9.414      1.926      2.478
REMARK INTER + INTRA:          -9.624
REMARK INTER:                  -7.140
REMARK INTRA:                  -2.483
REMARK UNBOUND:                -0.210
REMARK  0 active torsions:
REMARK  status: ('A' for Active; 'I' for Inactive)
REMARK       I    between atoms: C3_3  and  O3_21 
REMARK       I    between atoms: C6_6  and  C7_7 
REMARK       I    between atoms: C8_8  and  C9_9 
REMARK       I    between atoms: C10_10  and  C11_11 
REMARK       I    between atoms: C12_12  and  C13_13 
REMARK       I    between atoms: C14_14  and  C15_15 
REMARK       I    between atoms: C23_25  and  O23_43 
REMARK       I    between atoms: C26_28  and  C27_29 
REMARK       I    between atoms: C28_30  and  C29_31 
REMARK       I    between atoms: C30_32  and  C31_33 
REMARK       I    between atoms: C32_34  and  C33_35 
REMARK       I    between atoms: C34_36  and  C35_37 
ROOT
HETATM    1  C1  STQ G6621     -34.588 127.362   6.193  1.00 23.69    -0.018 C 
HETATM    2  C2  STQ G6621     -34.151 126.599   4.933  1.00 24.09     0.045 C 
HETATM    3  C3  STQ G6621     -32.881 127.007   4.190  1.00 24.28     0.123 C 
HETATM    4  C4  STQ G6621     -31.959 127.955   4.971  1.00 23.79     0.066 C 
HETATM    5  C5  STQ G6621     -32.459 128.730   6.152  1.00 23.83    -0.074 C 
HETATM    6  C6  STQ G6621     -33.663 128.485   6.757  1.00 23.66    -0.048 C 
HETATM    7  C7  STQ G6621     -34.199 129.201   7.946  1.00 22.83     0.009 C 
HETATM    8  C8  STQ G6621     -34.785 130.424   7.923  1.00 20.24     0.007 C 
HETATM    9  C9  STQ G6621     -35.338 131.190   9.048  1.00 21.52    -0.062 C 
HETATM   10  C10 STQ G6621     -35.994 132.337   8.761  1.00 20.57     0.007 C 
HETATM   11  C11 STQ G6621     -36.697 133.177   9.700  1.00 19.35     0.001 C 
HETATM   12  C12 STQ G6621     -37.416 134.256   9.324  1.00 20.67     0.007 C 
HETATM   13  C13 STQ G6621     -38.251 135.115  10.185  1.00 22.18    -0.062 C 
HETATM   14  C14 STQ G6621     -38.918 136.140   9.608  1.00 21.93     0.007 C 
HETATM   15  C15 STQ G6621     -39.810 137.072  10.256  1.00 21.89     0.001 C 
HETATM   16  C16 STQ G6621     -34.731 126.216   7.218  1.00 22.02     0.020 C 
HETATM   17  C17 STQ G6621     -35.987 127.931   5.882  1.00 22.09     0.020 C 
HETATM   18  C18 STQ G6621     -31.433 129.720   6.572  1.00 25.09     0.044 C 
HETATM   19  C19 STQ G6621     -35.214 130.598  10.433  1.00 16.21     0.048 C 
HETATM   20  C20 STQ G6621     -38.331 134.779  11.648  1.00 20.93     0.048 C 
HETATM   21  O3  STQ G6621     -32.168 125.850   3.764  1.00 23.32    -0.395 OA
ATOM     22  H3  STQ G6621     -31.378 126.104   3.301  1.00  0.00     0.210 HD
HETATM   23  C21 STQ G6621     -48.167 146.468  13.153  1.00 19.02    -0.035 C 
HETATM   24  C22 STQ G6621     -49.019 147.335  14.104  1.00 18.22     0.045 C 
HETATM   25  C23 STQ G6621     -48.445 148.731  14.365  1.00 19.51     0.142 C 
HETATM   26  C24 STQ G6621     -46.917 148.741  14.552  1.00 18.29     0.007 C 
HETATM   27  C25 STQ G6621     -46.142 147.693  14.171  1.00 19.71    -0.077 C 
HETATM   28  C26 STQ G6621     -46.658 146.400  13.537  1.00 19.08     0.044 C 
HETATM   29  C27 STQ G6621     -45.775 145.935  12.391  1.00 19.58    -0.016 C 
HETATM   30  C28 STQ G6621     -45.256 144.696  12.306  1.00 20.67     0.003 C 
HETATM   31  C29 STQ G6621     -44.551 144.099  11.178  1.00 21.92    -0.062 C 
HETATM   32  C30 STQ G6621     -44.063 142.847  11.320  1.00 23.00     0.007 C 
HETATM   33  C31 STQ G6621     -43.320 142.100  10.333  1.00 23.88     0.001 C 
HETATM   34  C32 STQ G6621     -42.711 140.923  10.613  1.00 22.59     0.007 C 
HETATM   35  C33 STQ G6621     -41.896 140.089   9.723  1.00 21.40    -0.062 C 
HETATM   36  C34 STQ G6621     -41.294 139.004  10.258  1.00 20.55     0.007 C 
HETATM   37  C35 STQ G6621     -40.407 138.079   9.602  1.00 21.49     0.001 C 
HETATM   38  C36 STQ G6621     -48.333 147.031  11.710  1.00 19.20     0.016 C 
HETATM   39  C37 STQ G6621     -48.771 145.055  13.174  1.00 16.30     0.016 C 
HETATM   40  C38 STQ G6621     -44.684 147.850  14.429  1.00 16.85     0.044 C 
HETATM   41  C39 STQ G6621     -44.350 144.946   9.957  1.00 23.01     0.048 C 
HETATM   42  C40 STQ G6621     -41.730 140.541   8.302  1.00 20.32     0.048 C 
HETATM   43  O23 STQ G6621     -49.099 149.322  15.481  1.00 20.61    -0.392 OA
ATOM     44  H23 STQ G6621     -50.043 149.316  15.366  1.00  0.00     0.210 HD
ENDROOT
TORSDOF 12
