REMARK VINA RESULT:    -6.110      1.536      2.011
REMARK INTER + INTRA:          -6.544
REMARK INTER:                  -2.065
REMARK INTRA:                  -4.479
REMARK UNBOUND:                -0.434
REMARK  0 active torsions:
REMARK  status: ('A' for Active; 'I' for Inactive)
REMARK       I    between atoms: C3_3  and  O3_21 
REMARK       I    between atoms: C6_6  and  C7_7 
REMARK       I    between atoms: C8_8  and  C9_9 
REMARK       I    between atoms: C10_10  and  C11_11 
REMARK       I    between atoms: C12_12  and  C13_13 
REMARK       I    between atoms: C14_14  and  C15_15 
REMARK       I    between atoms: C23_25  and  O23_43 
REMARK       I    between atoms: C26_28  and  C27_29 
REMARK       I    between atoms: C28_30  and  C29_31 
REMARK       I    between atoms: C30_32  and  C31_33 
REMARK       I    between atoms: C32_34  and  C33_35 
REMARK       I    between atoms: C34_36  and  C35_37 
ROOT
HETATM    1  C1  STQ 2 616     -49.649 147.250  10.212  1.00 78.53    -0.022 C 
HETATM    2  C2  STQ 2 616     -51.107 147.576  10.550  1.00 78.53     0.045 C 
HETATM    3  C3  STQ 2 616     -51.533 147.539  12.018  1.00 78.53     0.119 C 
HETATM    4  C4  STQ 2 616     -50.383 147.890  12.948  1.00 78.53     0.040 C 
HETATM    5  C5  STQ 2 616     -49.277 146.923  12.642  1.00 78.53     0.013 C 
HETATM    6  C6  STQ 2 616     -48.787 146.884  11.406  1.00 78.53    -0.068 C 
HETATM    7  C7  STQ 2 616     -47.371 146.516  11.178  1.00 78.53     0.004 C 
HETATM    8  C8  STQ 2 616     -46.938 145.256  11.253  1.00 78.53     0.007 C 
HETATM    9  C9  STQ 2 616     -45.517 144.956  11.005  1.00 78.53    -0.062 C 
HETATM   10  C10 STQ 2 616     -45.131 143.674  10.906  1.00 78.53     0.007 C 
HETATM   11  C11 STQ 2 616     -43.757 143.242  10.652  1.00 78.53     0.001 C 
HETATM   12  C12 STQ 2 616     -43.537 141.927  10.634  1.00 78.53     0.007 C 
HETATM   13  C13 STQ 2 616     -42.222 141.308  10.370  1.00 78.53    -0.062 C 
HETATM   14  C14 STQ 2 616     -42.184 139.985  10.155  1.00 78.53     0.007 C 
HETATM   15  C15 STQ 2 616     -40.951 139.267   9.847  1.00 78.53     0.001 C 
HETATM   16  C16 STQ 2 616     -49.061 148.461   9.496  1.00 78.53     0.019 C 
HETATM   17  C17 STQ 2 616     -49.622 146.055   9.267  1.00 78.53     0.019 C 
HETATM   18  C18 STQ 2 616     -48.410 147.231  13.829  1.00 78.53     0.015 C 
HETATM   19  C19 STQ 2 616     -44.549 146.090  10.884  1.00 78.53     0.048 C 
HETATM   20  C20 STQ 2 616     -40.963 142.121  10.337  1.00 78.53     0.048 C 
HETATM   21  O3  STQ 2 616     -52.600 148.473  12.223  1.00 78.53    -0.396 OA
ATOM     22  H3  STQ 2 616     -52.865 148.450  13.136  1.00  0.00     0.210 HD
HETATM   23  C21 STQ 2 616     -34.655 128.565   5.898  1.00 78.53    -0.035 C 
HETATM   24  C22 STQ 2 616     -33.358 127.933   5.401  1.00 78.53     0.045 C 
HETATM   25  C23 STQ 2 616     -32.460 127.389   6.509  1.00 78.53     0.142 C 
HETATM   26  C24 STQ 2 616     -32.370 128.360   7.661  1.00 78.53     0.007 C 
HETATM   27  C25 STQ 2 616     -33.406 129.140   8.007  1.00 78.53    -0.077 C 
HETATM   28  C26 STQ 2 616     -34.387 129.629   6.971  1.00 78.53     0.044 C 
HETATM   29  C27 STQ 2 616     -35.701 130.068   7.590  1.00 78.53    -0.016 C 
HETATM   30  C28 STQ 2 616     -36.036 131.357   7.566  1.00 78.53     0.003 C 
HETATM   31  C29 STQ 2 616     -37.308 131.850   8.129  1.00 78.53    -0.062 C 
HETATM   32  C30 STQ 2 616     -37.609 133.139   7.936  1.00 78.53     0.007 C 
HETATM   33  C31 STQ 2 616     -38.833 133.780   8.398  1.00 78.53     0.001 C 
HETATM   34  C32 STQ 2 616     -38.833 135.107   8.444  1.00 78.53     0.007 C 
HETATM   35  C33 STQ 2 616     -40.016 135.880   8.857  1.00 78.53    -0.062 C 
HETATM   36  C34 STQ 2 616     -39.887 137.186   9.145  1.00 78.53     0.007 C 
HETATM   37  C35 STQ 2 616     -41.053 137.984   9.513  1.00 78.53     0.001 C 
HETATM   38  C36 STQ 2 616     -35.602 127.479   6.408  1.00 78.53     0.016 C 
HETATM   39  C37 STQ 2 616     -35.322 129.238   4.706  1.00 78.53     0.016 C 
HETATM   40  C38 STQ 2 616     -33.569 129.519   9.450  1.00 78.53     0.044 C 
HETATM   41  C39 STQ 2 616     -38.231 130.938   8.883  1.00 78.53     0.048 C 
HETATM   42  C40 STQ 2 616     -41.351 135.203   8.918  1.00 78.53     0.048 C 
HETATM   43  O23 STQ 2 616     -31.146 127.173   5.979  1.00 78.53    -0.392 OA
ATOM     44  H23 STQ 2 616     -30.587 126.834   6.668  1.00  0.00     0.210 HD
ENDROOT
TORSDOF 12
