REMARK VINA RESULT:    -6.201      1.919      2.461
REMARK INTER + INTRA:          -9.729
REMARK INTER:                  -9.228
REMARK INTRA:                  -0.502
REMARK UNBOUND:                -3.529
REMARK  0 active torsions:
REMARK  status: ('A' for Active; 'I' for Inactive)
REMARK       I    between atoms: C3_3  and  O3_21 
REMARK       I    between atoms: C6_6  and  C7_7 
REMARK       I    between atoms: C8_8  and  C9_9 
REMARK       I    between atoms: C10_10  and  C11_11 
REMARK       I    between atoms: C12_12  and  C13_13 
REMARK       I    between atoms: C14_14  and  C15_15 
REMARK       I    between atoms: C23_25  and  O23_43 
REMARK       I    between atoms: C26_28  and  C27_29 
REMARK       I    between atoms: C28_30  and  C29_31 
REMARK       I    between atoms: C30_32  and  C31_33 
REMARK       I    between atoms: C32_34  and  C33_35 
REMARK       I    between atoms: C34_36  and  C35_37 
ROOT
HETATM    1  C1  STQ B1621     -34.098 128.186   6.943  1.00 16.49    -0.018 C 
HETATM    2  C2  STQ B1621     -33.320 127.408   5.864  1.00 14.93     0.045 C 
HETATM    3  C3  STQ B1621     -32.052 128.008   5.263  1.00 15.86     0.123 C 
HETATM    4  C4  STQ B1621     -31.372 129.088   6.128  1.00 14.41     0.066 C 
HETATM    5  C5  STQ B1621     -32.159 129.834   7.171  1.00 15.44    -0.074 C 
HETATM    6  C6  STQ B1621     -33.417 129.438   7.583  1.00 14.73    -0.048 C 
HETATM    7  C7  STQ B1621     -34.203 130.121   8.640  1.00 14.04     0.009 C 
HETATM    8  C8  STQ B1621     -34.951 131.235   8.455  1.00 12.72     0.007 C 
HETATM    9  C9  STQ B1621     -35.711 132.009   9.441  1.00 12.70    -0.062 C 
HETATM   10  C10 STQ B1621     -36.491 133.012   8.975  1.00 13.26     0.007 C 
HETATM   11  C11 STQ B1621     -37.399 133.840   9.735  1.00 13.12     0.001 C 
HETATM   12  C12 STQ B1621     -38.176 134.771   9.134  1.00 12.34     0.007 C 
HETATM   13  C13 STQ B1621     -39.229 135.590   9.765  1.00 12.89    -0.062 C 
HETATM   14  C14 STQ B1621     -39.918 136.456   8.986  1.00 12.03     0.007 C 
HETATM   15  C15 STQ B1621     -41.016 137.310   9.390  1.00 13.59     0.001 C 
HETATM   16  C16 STQ B1621     -34.338 127.085   8.008  1.00 14.27     0.020 C 
HETATM   17  C17 STQ B1621     -35.460 128.589   6.321  1.00 12.26     0.020 C 
HETATM   18  C18 STQ B1621     -31.370 130.971   7.732  1.00 13.78     0.044 C 
HETATM   19  C19 STQ B1621     -35.629 131.591  10.879  1.00  8.79     0.048 C 
HETATM   20  C20 STQ B1621     -39.487 135.377  11.239  1.00  8.63     0.048 C 
HETATM   21  O3  STQ B1621     -31.130 126.977   4.937  1.00 14.46    -0.395 OA
ATOM     22  H3  STQ B1621     -30.341 127.351   4.563  1.00  0.00     0.210 HD
HETATM   23  C21 STQ B1621     -50.952 145.642  10.012  1.00 23.83    -0.035 C 
HETATM   24  C22 STQ B1621     -52.060 146.471  10.681  1.00 23.69     0.045 C 
HETATM   25  C23 STQ B1621     -51.726 147.934  10.973  1.00 23.55     0.142 C 
HETATM   26  C24 STQ B1621     -50.260 148.166  11.365  1.00 24.29     0.007 C 
HETATM   27  C25 STQ B1621     -49.304 147.216  11.217  1.00 24.98    -0.077 C 
HETATM   28  C26 STQ B1621     -49.540 145.810  10.662  1.00 23.38     0.044 C 
HETATM   29  C27 STQ B1621     -48.389 145.358   9.763  1.00 22.25    -0.016 C 
HETATM   30  C28 STQ B1621     -47.720 144.180   9.873  1.00 21.46     0.003 C 
HETATM   31  C29 STQ B1621     -46.748 143.627   8.910  1.00 21.33    -0.062 C 
HETATM   32  C30 STQ B1621     -46.132 142.461   9.205  1.00 19.38     0.007 C 
HETATM   33  C31 STQ B1621     -45.147 141.789   8.390  1.00 19.44     0.001 C 
HETATM   34  C32 STQ B1621     -44.440 140.733   8.876  1.00 17.56     0.007 C 
HETATM   35  C33 STQ B1621     -43.359 139.967   8.236  1.00 14.52    -0.062 C 
HETATM   36  C34 STQ B1621     -42.733 139.021   8.971  1.00 13.82     0.007 C 
HETATM   37  C35 STQ B1621     -41.621 138.179   8.559  1.00 15.60     0.001 C 
HETATM   38  C36 STQ B1621     -50.922 146.057   8.516  1.00 23.39     0.016 C 
HETATM   39  C37 STQ B1621     -51.387 144.168  10.077  1.00 21.57     0.016 C 
HETATM   40  C38 STQ B1621     -47.957 147.662  11.672  1.00 23.84     0.044 C 
HETATM   41  C39 STQ B1621     -46.442 144.441   7.692  1.00 21.43     0.048 C 
HETATM   42  C40 STQ B1621     -42.984 140.334   6.837  1.00 13.28     0.048 C 
HETATM   43  O23 STQ B1621     -52.600 148.431  11.975  1.00 25.61    -0.392 OA
ATOM     44  H23 STQ B1621     -53.508 148.287  11.732  1.00  0.00     0.210 HD
ENDROOT
TORSDOF 12
