REMARK VINA RESULT:   -10.360      0.000      0.000
REMARK INTER + INTRA:         -12.807
REMARK INTER:                 -10.360
REMARK INTRA:                  -2.448
REMARK UNBOUND:                -2.448
REMARK  0 active torsions:
REMARK  status: ('A' for Active; 'I' for Inactive)
REMARK       I    between atoms: C3_3  and  O3_21 
REMARK       I    between atoms: C6_6  and  C7_7 
REMARK       I    between atoms: C8_8  and  C9_9 
REMARK       I    between atoms: C10_10  and  C11_11 
REMARK       I    between atoms: C12_12  and  C13_13 
REMARK       I    between atoms: C14_14  and  C15_15 
REMARK       I    between atoms: C23_25  and  O23_43 
REMARK       I    between atoms: C26_28  and  C27_29 
REMARK       I    between atoms: C28_30  and  C29_31 
REMARK       I    between atoms: C30_32  and  C31_33 
REMARK       I    between atoms: C32_34  and  C33_35 
REMARK       I    between atoms: C34_36  and  C35_37 
ROOT
HETATM    1  C1  STQ V1621     -34.213 127.032   6.728  1.00 16.22    -0.018 C 
HETATM    2  C2  STQ V1621     -34.017 126.767   5.251  1.00 16.22     0.045 C 
HETATM    3  C3  STQ V1621     -33.095 127.728   4.560  1.00 16.22     0.123 C 
HETATM    4  C4  STQ V1621     -31.901 127.908   5.459  1.00 16.22     0.066 C 
HETATM    5  C5  STQ V1621     -32.410 128.668   6.641  1.00 16.22    -0.074 C 
HETATM    6  C6  STQ V1621     -33.478 128.213   7.290  1.00 16.22    -0.048 C 
HETATM    7  C7  STQ V1621     -34.137 128.932   8.389  1.00 16.22     0.009 C 
HETATM    8  C8  STQ V1621     -34.301 130.237   8.204  1.00 16.22     0.007 C 
HETATM    9  C9  STQ V1621     -35.171 130.994   9.121  1.00 16.22    -0.062 C 
HETATM   10  C10 STQ V1621     -35.766 132.090   8.632  1.00 16.22     0.007 C 
HETATM   11  C11 STQ V1621     -36.768 132.860   9.360  1.00 16.22     0.001 C 
HETATM   12  C12 STQ V1621     -37.438 133.820   8.733  1.00 16.22     0.007 C 
HETATM   13  C13 STQ V1621     -38.506 134.581   9.404  1.00 16.22    -0.062 C 
HETATM   14  C14 STQ V1621     -39.215 135.452   8.669  1.00 16.22     0.007 C 
HETATM   15  C15 STQ V1621     -40.312 136.263   9.193  1.00 16.22     0.001 C 
HETATM   16  C16 STQ V1621     -33.659 125.850   7.504  1.00 16.22     0.020 C 
HETATM   17  C17 STQ V1621     -35.694 127.188   6.931  1.00 16.22     0.020 C 
HETATM   18  C18 STQ V1621     -31.436 129.626   7.242  1.00 16.22     0.044 C 
HETATM   19  C19 STQ V1621     -35.438 130.474  10.503  1.00 16.22     0.048 C 
HETATM   20  C20 STQ V1621     -38.760 134.327  10.857  1.00 16.22     0.048 C 
HETATM   21  O3  STQ V1621     -32.741 127.125   3.321  1.00 16.22    -0.395 OA
ATOM     22  H3  STQ V1621     -32.157 127.734   2.883  1.00  0.00     0.210 HD
HETATM   23  C21 STQ V1621     -49.759 144.844   9.936  1.00 16.22    -0.035 C 
HETATM   24  C22 STQ V1621     -50.697 145.740  10.710  1.00 16.22     0.045 C 
HETATM   25  C23 STQ V1621     -50.287 147.190  10.634  1.00 16.22     0.142 C 
HETATM   26  C24 STQ V1621     -48.816 147.350  10.894  1.00 16.22     0.007 C 
HETATM   27  C25 STQ V1621     -47.948 146.343  10.798  1.00 16.22    -0.077 C 
HETATM   28  C26 STQ V1621     -48.339 144.944  10.463  1.00 16.22     0.044 C 
HETATM   29  C27 STQ V1621     -47.395 144.351   9.447  1.00 16.22    -0.016 C 
HETATM   30  C28 STQ V1621     -46.765 143.223   9.746  1.00 16.22     0.003 C 
HETATM   31  C29 STQ V1621     -45.851 142.559   8.809  1.00 16.22    -0.062 C 
HETATM   32  C30 STQ V1621     -45.305 141.399   9.204  1.00 16.22     0.007 C 
HETATM   33  C31 STQ V1621     -44.356 140.628   8.415  1.00 16.22     0.001 C 
HETATM   34  C32 STQ V1621     -43.748 139.589   8.971  1.00 16.22     0.007 C 
HETATM   35  C33 STQ V1621     -42.723 138.825   8.244  1.00 16.22    -0.062 C 
HETATM   36  C34 STQ V1621     -42.036 137.902   8.933  1.00 16.22     0.007 C 
HETATM   37  C35 STQ V1621     -40.953 137.091   8.388  1.00 16.22     0.001 C 
HETATM   38  C36 STQ V1621     -49.830 145.201   8.468  1.00 16.22     0.016 C 
HETATM   39  C37 STQ V1621     -50.218 143.411  10.091  1.00 16.22     0.016 C 
HETATM   40  C38 STQ V1621     -46.508 146.613  11.043  1.00 16.22     0.044 C 
HETATM   41  C39 STQ V1621     -45.632 143.188   7.471  1.00 16.22     0.048 C 
HETATM   42  C40 STQ V1621     -42.475 139.149   6.803  1.00 16.22     0.048 C 
HETATM   43  O23 STQ V1621     -51.005 147.864  11.655  1.00 16.22    -0.392 OA
ATOM     44  H23 STQ V1621     -50.747 148.777  11.608  1.00  0.00     0.210 HD
ENDROOT
TORSDOF 12
