REMARK VINA RESULT:    -8.046      0.792     17.282
REMARK INTER + INTRA:          -8.521
REMARK INTER:                  -7.451
REMARK INTRA:                  -1.069
REMARK UNBOUND:                -0.474
REMARK  0 active torsions:
REMARK  status: ('A' for Active; 'I' for Inactive)
REMARK       I    between atoms: C3_3  and  O3_21 
REMARK       I    between atoms: C6_6  and  C7_7 
REMARK       I    between atoms: C8_8  and  C9_9 
REMARK       I    between atoms: C10_10  and  C11_11 
REMARK       I    between atoms: C12_12  and  C13_13 
REMARK       I    between atoms: C14_14  and  C15_15 
REMARK       I    between atoms: C23_25  and  O23_43 
REMARK       I    between atoms: C26_28  and  C27_29 
REMARK       I    between atoms: C28_30  and  C29_31 
REMARK       I    between atoms: C30_32  and  C31_33 
REMARK       I    between atoms: C32_34  and  C33_35 
REMARK       I    between atoms: C34_36  and  C35_37 
ROOT
HETATM    1  C1  STQ A 621     -51.098 145.557  11.032  1.00 21.58    -0.018 C 
HETATM    2  C2  STQ A 621     -52.005 146.021  12.191  1.00 21.20     0.045 C 
HETATM    3  C3  STQ A 621     -51.544 147.140  13.130  1.00 20.61     0.123 C 
HETATM    4  C4  STQ A 621     -50.263 147.874  12.704  1.00 19.82     0.066 C 
HETATM    5  C5  STQ A 621     -49.353 147.316  11.654  1.00 19.81    -0.074 C 
HETATM    6  C6  STQ A 621     -49.692 146.250  10.846  1.00 19.95    -0.048 C 
HETATM    7  C7  STQ A 621     -48.817 145.691   9.774  1.00 17.10     0.009 C 
HETATM    8  C8  STQ A 621     -47.793 144.837   9.993  1.00 17.58     0.007 C 
HETATM    9  C9  STQ A 621     -46.853 144.219   9.050  1.00 19.11    -0.062 C 
HETATM   10  C10 STQ A 621     -46.001 143.288   9.535  1.00 18.37     0.007 C 
HETATM   11  C11 STQ A 621     -45.078 142.504   8.763  1.00 18.85     0.001 C 
HETATM   12  C12 STQ A 621     -44.322 141.520   9.288  1.00 19.83     0.007 C 
HETATM   13  C13 STQ A 621     -43.437 140.605   8.537  1.00 21.26    -0.062 C 
HETATM   14  C14 STQ A 621     -42.790 139.641   9.231  1.00 20.79     0.007 C 
HETATM   15  C15 STQ A 621     -41.923 138.610   8.714  1.00 20.26     0.001 C 
HETATM   16  C16 STQ A 621     -51.997 145.806   9.799  1.00 19.38     0.020 C 
HETATM   17  C17 STQ A 621     -50.923 144.029  11.194  1.00 19.65     0.020 C 
HETATM   18  C18 STQ A 621     -48.114 148.136  11.627  1.00 20.06     0.044 C 
HETATM   19  C19 STQ A 621     -46.957 144.596   7.599  1.00 17.70     0.048 C 
HETATM   20  C20 STQ A 621     -43.351 140.781   7.048  1.00 18.78     0.048 C 
HETATM   21  O3  STQ A 621     -52.594 148.072  13.337  1.00 18.88    -0.395 OA
ATOM     22  H3  STQ A 621     -53.386 147.619  13.601  1.00  0.00     0.210 HD
HETATM   23  C21 STQ A 621     -34.078 128.509   7.041  1.00 22.85    -0.035 C 
HETATM   24  C22 STQ A 621     -33.175 127.604   6.184  1.00 23.17     0.045 C 
HETATM   25  C23 STQ A 621     -31.680 127.814   6.421  1.00 24.17     0.142 C 
HETATM   26  C24 STQ A 621     -31.299 129.304   6.480  1.00 23.54     0.007 C 
HETATM   27  C25 STQ A 621     -32.234 130.269   6.695  1.00 24.17    -0.077 C 
HETATM   28  C26 STQ A 621     -33.733 130.020   6.888  1.00 23.23     0.044 C 
HETATM   29  C27 STQ A 621     -34.325 130.891   7.996  1.00 24.75    -0.016 C 
HETATM   30  C28 STQ A 621     -35.414 131.699   7.883  1.00 25.59     0.003 C 
HETATM   31  C29 STQ A 621     -36.125 132.386   8.985  1.00 26.46    -0.062 C 
HETATM   32  C30 STQ A 621     -37.167 133.192   8.677  1.00 24.31     0.007 C 
HETATM   33  C31 STQ A 621     -37.985 133.952   9.595  1.00 21.85     0.001 C 
HETATM   34  C32 STQ A 621     -38.861 134.864   9.111  1.00 20.83     0.007 C 
HETATM   35  C33 STQ A 621     -39.752 135.804   9.814  1.00 21.05    -0.062 C 
HETATM   36  C34 STQ A 621     -40.450 136.685   9.065  1.00 19.63     0.007 C 
HETATM   37  C35 STQ A 621     -41.327 137.727   9.536  1.00 20.78     0.001 C 
HETATM   38  C36 STQ A 621     -33.948 128.055   8.530  1.00 21.00     0.016 C 
HETATM   39  C37 STQ A 621     -35.521 128.256   6.585  1.00 22.25     0.016 C 
HETATM   40  C38 STQ A 621     -31.698 131.654   6.713  1.00 21.23     0.044 C 
HETATM   41  C39 STQ A 621     -35.592 132.200  10.378  1.00 25.84     0.048 C 
HETATM   42  C40 STQ A 621     -39.768 135.771  11.317  1.00 18.97     0.048 C 
HETATM   43  O23 STQ A 621     -30.932 127.126   5.427  1.00 25.06    -0.392 OA
ATOM     44  H23 STQ A 621     -31.166 126.207   5.390  1.00  0.00     0.210 HD
ENDROOT
TORSDOF 12
