REMARK VINA RESULT:    -8.096      0.000      0.000
REMARK INTER + INTRA:         -11.634
REMARK INTER:                  -8.096
REMARK INTRA:                  -3.538
REMARK UNBOUND:                -3.538
REMARK  0 active torsions:
REMARK  status: ('A' for Active; 'I' for Inactive)
REMARK       I    between atoms: C3_3  and  O3_21 
REMARK       I    between atoms: C6_6  and  C7_7 
REMARK       I    between atoms: C8_8  and  C9_9 
REMARK       I    between atoms: C10_10  and  C11_11 
REMARK       I    between atoms: C12_12  and  C13_13 
REMARK       I    between atoms: C14_14  and  C15_15 
REMARK       I    between atoms: C23_25  and  O23_43 
REMARK       I    between atoms: C26_28  and  C27_29 
REMARK       I    between atoms: C28_30  and  C29_31 
REMARK       I    between atoms: C30_32  and  C31_33 
REMARK       I    between atoms: C32_34  and  C33_35 
REMARK       I    between atoms: C34_36  and  C35_37 
ROOT
HETATM    1  C1  STQ Z 618     -34.554 126.958   5.905  1.00 27.67    -0.018 C 
HETATM    2  C2  STQ Z 618     -34.107 126.304   4.600  1.00 27.67     0.045 C 
HETATM    3  C3  STQ Z 618     -32.857 126.864   3.937  1.00 27.67     0.123 C 
HETATM    4  C4  STQ Z 618     -31.830 127.262   4.974  1.00 27.67     0.066 C 
HETATM    5  C5  STQ Z 618     -32.466 128.308   5.839  1.00 27.67    -0.074 C 
HETATM    6  C6  STQ Z 618     -33.652 128.073   6.405  1.00 27.67    -0.048 C 
HETATM    7  C7  STQ Z 618     -34.117 128.877   7.562  1.00 27.67     0.009 C 
HETATM    8  C8  STQ Z 618     -34.661 130.086   7.413  1.00 27.67     0.007 C 
HETATM    9  C9  STQ Z 618     -35.136 130.865   8.564  1.00 27.67    -0.062 C 
HETATM   10  C10 STQ Z 618     -36.030 131.824   8.311  1.00 27.67     0.007 C 
HETATM   11  C11 STQ Z 618     -36.649 132.688   9.309  1.00 27.67     0.001 C 
HETATM   12  C12 STQ Z 618     -37.616 133.440   8.801  1.00 27.67     0.007 C 
HETATM   13  C13 STQ Z 618     -38.469 134.387   9.532  1.00 27.67    -0.062 C 
HETATM   14  C14 STQ Z 618     -39.361 135.078   8.809  1.00 27.67     0.007 C 
HETATM   15  C15 STQ Z 618     -40.308 136.007   9.406  1.00 27.67     0.001 C 
HETATM   16  C16 STQ Z 618     -34.683 125.850   6.947  1.00 27.67     0.020 C 
HETATM   17  C17 STQ Z 618     -35.930 127.568   5.678  1.00 27.67     0.020 C 
HETATM   18  C18 STQ Z 618     -31.389 129.095   6.522  1.00 27.67     0.044 C 
HETATM   19  C19 STQ Z 618     -34.633 130.590   9.947  1.00 27.67     0.048 C 
HETATM   20  C20 STQ Z 618     -38.366 134.547  11.017  1.00 27.67     0.048 C 
HETATM   21  O3  STQ Z 618     -32.301 125.865   3.082  1.00 27.67    -0.395 OA
ATOM     22  H3  STQ Z 618     -32.947 125.615   2.431  1.00  0.00     0.210 HD
HETATM   23  C21 STQ Z 618     -49.881 144.471  10.936  1.00 27.67    -0.035 C 
HETATM   24  C22 STQ Z 618     -50.725 145.214  11.966  1.00 27.67     0.045 C 
HETATM   25  C23 STQ Z 618     -50.034 146.408  12.605  1.00 27.67     0.142 C 
HETATM   26  C24 STQ Z 618     -48.643 146.046  13.038  1.00 27.67     0.007 C 
HETATM   27  C25 STQ Z 618     -47.891 145.225  12.305  1.00 27.67    -0.077 C 
HETATM   28  C26 STQ Z 618     -48.497 144.112  11.492  1.00 27.67     0.044 C 
HETATM   29  C27 STQ Z 618     -47.555 143.690  10.384  1.00 27.67    -0.016 C 
HETATM   30  C28 STQ Z 618     -47.030 142.472  10.439  1.00 27.67     0.003 C 
HETATM   31  C29 STQ Z 618     -46.106 141.954   9.418  1.00 27.67    -0.062 C 
HETATM   32  C30 STQ Z 618     -45.664 140.702   9.574  1.00 27.67     0.007 C 
HETATM   33  C31 STQ Z 618     -44.750 140.029   8.662  1.00 27.67     0.001 C 
HETATM   34  C32 STQ Z 618     -43.864 139.224   9.238  1.00 27.67     0.007 C 
HETATM   35  C33 STQ Z 618     -42.861 138.437   8.506  1.00 27.67    -0.062 C 
HETATM   36  C34 STQ Z 618     -42.130 137.565   9.211  1.00 27.67     0.007 C 
HETATM   37  C35 STQ Z 618     -41.136 136.683   8.614  1.00 27.67     0.001 C 
HETATM   38  C36 STQ Z 618     -49.791 145.307   9.667  1.00 27.67     0.016 C 
HETATM   39  C37 STQ Z 618     -50.612 143.183  10.587  1.00 27.67     0.016 C 
HETATM   40  C38 STQ Z 618     -46.414 145.445  12.318  1.00 27.67     0.044 C 
HETATM   41  C39 STQ Z 618     -45.683 142.803   8.258  1.00 27.67     0.048 C 
HETATM   42  C40 STQ Z 618     -42.658 138.606   7.034  1.00 27.67     0.048 C 
HETATM   43  O23 STQ Z 618     -50.769 146.826  13.757  1.00 27.67    -0.392 OA
ATOM     44  H23 STQ Z 618     -50.337 147.572  14.156  1.00  0.00     0.210 HD
ENDROOT
TORSDOF 12
