REMARK VINA RESULT:    -7.968      1.936     16.557
REMARK INTER + INTRA:         -10.706
REMARK INTER:                 -10.318
REMARK INTRA:                  -0.388
REMARK UNBOUND:                -2.738
REMARK  0 active torsions:
REMARK  status: ('A' for Active; 'I' for Inactive)
REMARK       I    between atoms: C3_3  and  O3_21 
REMARK       I    between atoms: C6_6  and  C7_7 
REMARK       I    between atoms: C8_8  and  C9_9 
REMARK       I    between atoms: C10_10  and  C11_11 
REMARK       I    between atoms: C12_12  and  C13_13 
REMARK       I    between atoms: C14_14  and  C15_15 
REMARK       I    between atoms: C23_25  and  O23_43 
REMARK       I    between atoms: C26_28  and  C27_29 
REMARK       I    between atoms: C28_30  and  C29_31 
REMARK       I    between atoms: C30_32  and  C31_33 
REMARK       I    between atoms: C32_34  and  C33_35 
REMARK       I    between atoms: C34_36  and  C35_37 
ROOT
HETATM    1  C1  STQ 21620     -50.311 144.004  12.967  1.00 97.95    -0.018 C 
HETATM    2  C2  STQ 21620     -50.689 144.344  14.404  1.00 97.95     0.045 C 
HETATM    3  C3  STQ 21620     -49.988 145.528  15.049  1.00 97.95     0.123 C 
HETATM    4  C4  STQ 21620     -49.745 146.641  14.055  1.00 97.95     0.066 C 
HETATM    5  C5  STQ 21620     -48.959 146.099  12.900  1.00 97.95    -0.074 C 
HETATM    6  C6  STQ 21620     -49.239 144.900  12.376  1.00 97.95    -0.048 C 
HETATM    7  C7  STQ 21620     -48.502 144.408  11.188  1.00 97.95     0.009 C 
HETATM    8  C8  STQ 21620     -47.372 143.713  11.312  1.00 97.95     0.007 C 
HETATM    9  C9  STQ 21620     -46.632 143.200  10.157  1.00 97.95    -0.062 C 
HETATM   10  C10 STQ 21620     -45.569 142.445  10.420  1.00 97.95     0.007 C 
HETATM   11  C11 STQ 21620     -44.737 141.847   9.392  1.00 97.95     0.001 C 
HETATM   12  C12 STQ 21620     -43.724 141.140   9.865  1.00 97.95     0.007 C 
HETATM   13  C13 STQ 21620     -42.771 140.421   9.014  1.00 97.95    -0.062 C 
HETATM   14  C14 STQ 21620     -42.029 139.505   9.636  1.00 97.95     0.007 C 
HETATM   15  C15 STQ 21620     -41.064 138.666   8.954  1.00 97.95     0.001 C 
HETATM   16  C16 STQ 21620     -51.597 144.057  12.147  1.00 97.95     0.020 C 
HETATM   17  C17 STQ 21620     -49.776 142.578  12.944  1.00 97.95     0.020 C 
HETATM   18  C18 STQ 21620     -47.948 147.034  12.305  1.00 97.95     0.044 C 
HETATM   19  C19 STQ 21620     -47.061 143.511   8.756  1.00 97.95     0.048 C 
HETATM   20  C20 STQ 21620     -42.649 140.683   7.544  1.00 97.95     0.048 C 
HETATM   21  O3  STQ 21620     -50.814 146.043  16.099  1.00 97.95    -0.395 OA
ATOM     22  H3  STQ 21620     -50.375 146.783  16.502  1.00  0.00     0.210 HD
HETATM   23  C21 STQ 21620     -34.170 128.321   6.964  1.00 97.95    -0.035 C 
HETATM   24  C22 STQ 21620     -33.332 127.681   5.868  1.00 97.95     0.045 C 
HETATM   25  C23 STQ 21620     -31.833 127.795   6.090  1.00 97.95     0.142 C 
HETATM   26  C24 STQ 21620     -31.444 129.191   6.511  1.00 97.95     0.007 C 
HETATM   27  C25 STQ 21620     -32.274 129.968   7.221  1.00 97.95    -0.077 C 
HETATM   28  C26 STQ 21620     -33.768 129.788   7.142  1.00 97.95     0.044 C 
HETATM   29  C27 STQ 21620     -34.446 130.357   8.364  1.00 97.95    -0.016 C 
HETATM   30  C28 STQ 21620     -35.252 131.389   8.168  1.00 97.95     0.003 C 
HETATM   31  C29 STQ 21620     -35.996 132.040   9.248  1.00 97.95    -0.062 C 
HETATM   32  C30 STQ 21620     -36.775 133.048   8.872  1.00 97.95     0.007 C 
HETATM   33  C31 STQ 21620     -37.612 133.831   9.759  1.00 97.95     0.001 C 
HETATM   34  C32 STQ 21620     -38.270 134.782   9.118  1.00 97.95     0.007 C 
HETATM   35  C33 STQ 21620     -39.190 135.701   9.782  1.00 97.95    -0.062 C 
HETATM   36  C34 STQ 21620     -39.773 136.630   9.025  1.00 97.95     0.007 C 
HETATM   37  C35 STQ 21620     -40.712 137.570   9.608  1.00 97.95     0.001 C 
HETATM   38  C36 STQ 21620     -34.048 127.538   8.267  1.00 97.95     0.016 C 
HETATM   39  C37 STQ 21620     -35.622 128.232   6.511  1.00 97.95     0.016 C 
HETATM   40  C38 STQ 21620     -31.674 131.031   8.093  1.00 97.95     0.044 C 
HETATM   41  C39 STQ 21620     -35.892 131.591  10.674  1.00 97.95     0.048 C 
HETATM   42  C40 STQ 21620     -39.455 135.593  11.251  1.00 97.95     0.048 C 
HETATM   43  O23 STQ 21620     -31.177 127.487   4.860  1.00 97.95    -0.392 OA
ATOM     44  H23 STQ 21620     -31.421 126.608   4.595  1.00  0.00     0.210 HD
ENDROOT
TORSDOF 12
