REMARK VINA RESULT:   -11.571      0.000      0.000
REMARK INTER + INTRA:         -11.985
REMARK INTER:                 -11.571
REMARK INTRA:                  -0.414
REMARK UNBOUND:                -0.414
REMARK  0 active torsions:
REMARK  status: ('A' for Active; 'I' for Inactive)
REMARK       I    between atoms: C3_3  and  O3_21 
REMARK       I    between atoms: C6_6  and  C7_7 
REMARK       I    between atoms: C8_8  and  C9_9 
REMARK       I    between atoms: C10_10  and  C11_11 
REMARK       I    between atoms: C12_12  and  C13_13 
REMARK       I    between atoms: C14_14  and  C15_15 
REMARK       I    between atoms: C23_25  and  O23_43 
REMARK       I    between atoms: C26_28  and  C27_29 
REMARK       I    between atoms: C28_30  and  C29_31 
REMARK       I    between atoms: C30_32  and  C31_33 
REMARK       I    between atoms: C32_34  and  C33_35 
REMARK       I    between atoms: C34_36  and  C35_37 
ROOT
HETATM    1  C1  STQ 8 617     -34.140 128.135   6.902  1.00 16.39    -0.018 C 
HETATM    2  C2  STQ 8 617     -33.395 127.595   5.688  1.00 16.39     0.045 C 
HETATM    3  C3  STQ 8 617     -32.082 128.253   5.294  1.00 16.39     0.123 C 
HETATM    4  C4  STQ 8 617     -31.343 128.820   6.485  1.00 16.39     0.066 C 
HETATM    5  C5  STQ 8 617     -32.262 129.744   7.222  1.00 16.39    -0.074 C 
HETATM    6  C6  STQ 8 617     -33.499 129.357   7.537  1.00 16.39    -0.048 C 
HETATM    7  C7  STQ 8 617     -34.254 130.110   8.564  1.00 16.39     0.009 C 
HETATM    8  C8  STQ 8 617     -35.024 131.160   8.275  1.00 16.39     0.007 C 
HETATM    9  C9  STQ 8 617     -35.748 131.873   9.337  1.00 16.39    -0.062 C 
HETATM   10  C10 STQ 8 617     -36.484 132.946   8.988  1.00 16.39     0.007 C 
HETATM   11  C11 STQ 8 617     -37.281 133.801   9.864  1.00 16.39     0.001 C 
HETATM   12  C12 STQ 8 617     -37.968 134.764   9.259  1.00 16.39     0.007 C 
HETATM   13  C13 STQ 8 617     -38.881 135.720   9.912  1.00 16.39    -0.062 C 
HETATM   14  C14 STQ 8 617     -39.583 136.527   9.113  1.00 16.39     0.007 C 
HETATM   15  C15 STQ 8 617     -40.563 137.468   9.629  1.00 16.39     0.001 C 
HETATM   16  C16 STQ 8 617     -34.275 126.984   7.890  1.00 16.39     0.020 C 
HETATM   17  C17 STQ 8 617     -35.531 128.554   6.452  1.00 16.39     0.020 C 
HETATM   18  C18 STQ 8 617     -31.492 130.709   8.073  1.00 16.39     0.044 C 
HETATM   19  C19 STQ 8 617     -35.616 131.377  10.739  1.00 16.39     0.048 C 
HETATM   20  C20 STQ 8 617     -39.063 135.775  11.396  1.00 16.39     0.048 C 
HETATM   21  O3  STQ 8 617     -31.252 127.276   4.663  1.00 16.39    -0.395 OA
ATOM     22  H3  STQ 8 617     -30.431 127.686   4.417  1.00  0.00     0.210 HD
HETATM   23  C21 STQ 8 617     -50.506 145.490   8.857  1.00 16.39    -0.035 C 
HETATM   24  C22 STQ 8 617     -51.585 146.112   9.729  1.00 16.39     0.045 C 
HETATM   25  C23 STQ 8 617     -51.273 147.522  10.200  1.00 16.39     0.142 C 
HETATM   26  C24 STQ 8 617     -49.846 147.642  10.674  1.00 16.39     0.007 C 
HETATM   27  C25 STQ 8 617     -48.861 146.887  10.176  1.00 16.39    -0.077 C 
HETATM   28  C26 STQ 8 617     -49.143 145.541   9.559  1.00 16.39     0.044 C 
HETATM   29  C27 STQ 8 617     -48.042 145.111   8.614  1.00 16.39    -0.016 C 
HETATM   30  C28 STQ 8 617     -47.340 144.047   8.984  1.00 16.39     0.003 C 
HETATM   31  C29 STQ 8 617     -46.251 143.458   8.197  1.00 16.39    -0.062 C 
HETATM   32  C30 STQ 8 617     -45.741 142.331   8.682  1.00 16.39     0.007 C 
HETATM   33  C31 STQ 8 617     -44.682 141.564   8.054  1.00 16.39     0.001 C 
HETATM   34  C32 STQ 8 617     -44.046 140.705   8.834  1.00 16.39     0.007 C 
HETATM   35  C33 STQ 8 617     -42.975 139.845   8.325  1.00 16.39    -0.062 C 
HETATM   36  C34 STQ 8 617     -42.319 139.064   9.189  1.00 16.39     0.007 C 
HETATM   37  C35 STQ 8 617     -41.277 138.153   8.746  1.00 16.39     0.001 C 
HETATM   38  C36 STQ 8 617     -50.470 146.173   7.494  1.00 16.39     0.016 C 
HETATM   39  C37 STQ 8 617     -50.905 144.036   8.631  1.00 16.39     0.016 C 
HETATM   40  C38 STQ 8 617     -47.459 147.409  10.264  1.00 16.39     0.044 C 
HETATM   41  C39 STQ 8 617     -45.751 144.061   6.919  1.00 16.39     0.048 C 
HETATM   42  C40 STQ 8 617     -42.648 139.865   6.866  1.00 16.39     0.048 C 
HETATM   43  O23 STQ 8 617     -52.141 147.835  11.293  1.00 16.39    -0.392 OA
ATOM     44  H23 STQ 8 617     -51.946 148.717  11.587  1.00  0.00     0.210 HD
ENDROOT
TORSDOF 12
