REMARK VINA RESULT:    -6.921      2.124      2.624
REMARK INTER + INTRA:          -6.825
REMARK INTER:                  -4.614
REMARK INTRA:                  -2.212
REMARK UNBOUND:                 0.096
REMARK  0 active torsions:
REMARK  status: ('A' for Active; 'I' for Inactive)
REMARK       I    between atoms: C3_3  and  O3_21 
REMARK       I    between atoms: C6_6  and  C7_7 
REMARK       I    between atoms: C8_8  and  C9_9 
REMARK       I    between atoms: C10_10  and  C11_11 
REMARK       I    between atoms: C12_12  and  C13_13 
REMARK       I    between atoms: C14_14  and  C15_15 
REMARK       I    between atoms: C23_25  and  O23_43 
REMARK       I    between atoms: C26_28  and  C27_29 
REMARK       I    between atoms: C28_30  and  C29_31 
REMARK       I    between atoms: C30_32  and  C31_33 
REMARK       I    between atoms: C32_34  and  C33_35 
REMARK       I    between atoms: C34_36  and  C35_37 
ROOT
HETATM    1  C1  STQ E4621     -34.718 127.613   5.984  1.00 16.11    -0.017 A 
HETATM    2  C2  STQ E4621     -34.166 126.884   4.748  1.00 15.05     0.049 A 
HETATM    3  C3  STQ E4621     -32.717 127.092   4.322  1.00 18.47     0.142 A 
HETATM    4  C4  STQ E4621     -31.924 128.132   5.129  1.00 15.72     0.012 A 
HETATM    5  C5  STQ E4621     -32.510 128.852   6.296  1.00 14.51    -0.056 A 
HETATM    6  C6  STQ E4621     -33.792 128.645   6.717  1.00 15.74    -0.044 A 
HETATM    7  C7  STQ E4621     -34.415 129.350   7.867  1.00 14.17     0.009 C 
HETATM    8  C8  STQ E4621     -34.940 130.585   7.892  1.00 12.66     0.007 C 
HETATM    9  C9  STQ E4621     -35.500 131.272   9.049  1.00 13.35    -0.062 C 
HETATM   10  C10 STQ E4621     -36.112 132.457   8.834  1.00 14.12     0.007 C 
HETATM   11  C11 STQ E4621     -36.811 133.258   9.811  1.00 17.35     0.001 C 
HETATM   12  C12 STQ E4621     -37.480 134.383   9.455  1.00 16.42     0.007 C 
HETATM   13  C13 STQ E4621     -38.297 135.248  10.311  1.00 15.51    -0.062 C 
HETATM   14  C14 STQ E4621     -38.918 136.303   9.739  1.00 14.68     0.007 C 
HETATM   15  C15 STQ E4621     -39.802 137.233  10.373  1.00 15.30     0.001 C 
HETATM   16  C16 STQ E4621     -35.075 126.447   6.934  1.00 14.06     0.020 C 
HETATM   17  C17 STQ E4621     -36.035 128.294   5.538  1.00 11.15     0.020 C 
HETATM   18  C18 STQ E4621     -31.512 129.783   6.875  1.00 14.35     0.048 C 
HETATM   19  C19 STQ E4621     -35.433 130.576  10.383  1.00 12.51     0.048 C 
HETATM   20  C20 STQ E4621     -38.420 134.879  11.759  1.00 15.42     0.048 C 
HETATM   21  O3  STQ E4621     -32.026 125.850   4.308  1.00 20.70    -0.392 OA
ATOM     22  H3  STQ E4621     -31.123 125.979   4.042  1.00  0.00     0.210 HD
HETATM   23  C21 STQ E4621     -48.115 146.753  13.376  1.00 21.70    -0.035 C 
HETATM   24  C22 STQ E4621     -48.991 147.541  14.365  1.00 19.94     0.045 C 
HETATM   25  C23 STQ E4621     -48.395 148.883  14.779  1.00 22.24     0.142 C 
HETATM   26  C24 STQ E4621     -46.873 148.824  15.029  1.00 22.23     0.007 C 
HETATM   27  C25 STQ E4621     -46.108 147.782  14.607  1.00 22.92    -0.077 C 
HETATM   28  C26 STQ E4621     -46.646 146.562  13.864  1.00 22.02     0.044 C 
HETATM   29  C27 STQ E4621     -45.668 146.095  12.778  1.00 21.48    -0.016 C 
HETATM   30  C28 STQ E4621     -45.183 144.830  12.637  1.00 19.73     0.003 C 
HETATM   31  C29 STQ E4621     -44.389 144.307  11.510  1.00 19.82    -0.062 C 
HETATM   32  C30 STQ E4621     -43.957 143.027  11.560  1.00 18.83     0.007 C 
HETATM   33  C31 STQ E4621     -43.194 142.340  10.542  1.00 18.73     0.001 C 
HETATM   34  C32 STQ E4621     -42.628 141.124  10.774  1.00 18.34     0.007 C 
HETATM   35  C33 STQ E4621     -41.787 140.299   9.890  1.00 16.35    -0.062 C 
HETATM   36  C34 STQ E4621     -41.243 139.178  10.406  1.00 13.70     0.007 C 
HETATM   37  C35 STQ E4621     -40.346 138.270   9.731  1.00 15.99     0.001 C 
HETATM   38  C36 STQ E4621     -48.136 147.484  11.996  1.00 20.64     0.016 C 
HETATM   39  C37 STQ E4621     -48.795 145.390  13.204  1.00 21.18     0.016 C 
HETATM   40  C38 STQ E4621     -44.652 147.873  14.926  1.00 23.47     0.044 C 
HETATM   41  C39 STQ E4621     -44.042 145.255  10.395  1.00 19.63     0.048 C 
HETATM   42  C40 STQ E4621     -41.524 140.798   8.499  1.00 14.68     0.048 C 
HETATM   43  O23 STQ E4621     -49.085 149.394  15.911  1.00 24.71    -0.392 OA
ATOM     44  H23 STQ E4621     -50.022 149.430  15.757  1.00  0.00     0.210 HD
ENDROOT
TORSDOF 12
