REMARK VINA RESULT:    -9.033      0.000      0.000
REMARK INTER + INTRA:         -12.120
REMARK INTER:                  -9.033
REMARK INTRA:                  -3.087
REMARK UNBOUND:                -3.087
REMARK  0 active torsions:
REMARK  status: ('A' for Active; 'I' for Inactive)
REMARK       I    between atoms: C3_3  and  O3_21 
REMARK       I    between atoms: C6_6  and  C7_7 
REMARK       I    between atoms: C8_8  and  C9_9 
REMARK       I    between atoms: C10_10  and  C11_11 
REMARK       I    between atoms: C12_12  and  C13_13 
REMARK       I    between atoms: C14_14  and  C15_15 
REMARK       I    between atoms: C23_25  and  O23_43 
REMARK       I    between atoms: C26_28  and  C27_29 
REMARK       I    between atoms: C28_30  and  C29_31 
REMARK       I    between atoms: C30_32  and  C31_33 
REMARK       I    between atoms: C32_34  and  C33_35 
REMARK       I    between atoms: C34_36  and  C35_37 
ROOT
HETATM    1  C1  STQ G1621     -34.542 126.975   6.146  1.00 57.09    -0.018 C 
HETATM    2  C2  STQ G1621     -34.113 126.341   4.830  1.00 57.09     0.045 C 
HETATM    3  C3  STQ G1621     -32.905 126.936   4.131  1.00 57.09     0.123 C 
HETATM    4  C4  STQ G1621     -31.868 127.374   5.141  1.00 57.09     0.066 C 
HETATM    5  C5  STQ G1621     -32.496 128.371   6.071  1.00 57.09    -0.074 C 
HETATM    6  C6  STQ G1621     -33.678 128.116   6.642  1.00 57.09    -0.048 C 
HETATM    7  C7  STQ G1621     -34.177 128.920   7.791  1.00 57.09     0.009 C 
HETATM    8  C8  STQ G1621     -34.768 130.106   7.618  1.00 57.09     0.007 C 
HETATM    9  C9  STQ G1621     -35.295 130.931   8.717  1.00 57.09    -0.062 C 
HETATM   10  C10 STQ G1621     -36.231 131.819   8.375  1.00 57.09     0.007 C 
HETATM   11  C11 STQ G1621     -36.936 132.733   9.265  1.00 57.09     0.001 C 
HETATM   12  C12 STQ G1621     -37.861 133.478   8.669  1.00 57.09     0.007 C 
HETATM   13  C13 STQ G1621     -38.727 134.440   9.366  1.00 57.09    -0.062 C 
HETATM   14  C14 STQ G1621     -39.558 135.199   8.640  1.00 57.09     0.007 C 
HETATM   15  C15 STQ G1621     -40.480 136.137   9.270  1.00 57.09     0.001 C 
HETATM   16  C16 STQ G1621     -34.609 125.858   7.177  1.00 57.09     0.020 C 
HETATM   17  C17 STQ G1621     -35.929 127.543   5.941  1.00 57.09     0.020 C 
HETATM   18  C18 STQ G1621     -31.470 129.262   6.706  1.00 57.09     0.044 C 
HETATM   19  C19 STQ G1621     -34.810 130.780  10.126  1.00 57.09     0.048 C 
HETATM   20  C20 STQ G1621     -38.707 134.521  10.860  1.00 57.09     0.048 C 
HETATM   21  O3  STQ G1621     -32.339 125.919   3.302  1.00 57.09    -0.395 OA
ATOM     22  H3  STQ G1621     -32.991 125.645   2.667  1.00  0.00     0.210 HD
HETATM   23  C21 STQ G1621     -50.127 144.477  10.336  1.00 57.09    -0.035 C 
HETATM   24  C22 STQ G1621     -50.974 145.415  11.179  1.00 57.09     0.045 C 
HETATM   25  C23 STQ G1621     -50.534 146.866  11.118  1.00 57.09     0.142 C 
HETATM   26  C24 STQ G1621     -49.042 146.985  11.274  1.00 57.09     0.007 C 
HETATM   27  C25 STQ G1621     -48.197 145.982  11.009  1.00 57.09    -0.077 C 
HETATM   28  C26 STQ G1621     -48.646 144.580  10.704  1.00 57.09     0.044 C 
HETATM   29  C27 STQ G1621     -47.753 143.987   9.634  1.00 57.09    -0.016 C 
HETATM   30  C28 STQ G1621     -47.106 142.864   9.916  1.00 57.09     0.003 C 
HETATM   31  C29 STQ G1621     -46.213 142.192   8.963  1.00 57.09    -0.062 C 
HETATM   32  C30 STQ G1621     -45.780 140.978   9.308  1.00 57.09     0.007 C 
HETATM   33  C31 STQ G1621     -44.889 140.174   8.486  1.00 57.09     0.001 C 
HETATM   34  C32 STQ G1621     -44.020 139.416   9.140  1.00 57.09     0.007 C 
HETATM   35  C33 STQ G1621     -43.064 138.550   8.448  1.00 57.09    -0.062 C 
HETATM   36  C34 STQ G1621     -42.302 137.705   9.148  1.00 57.09     0.007 C 
HETATM   37  C35 STQ G1621     -41.348 136.802   8.517  1.00 57.09     0.001 C 
HETATM   38  C36 STQ G1621     -50.361 144.750   8.852  1.00 57.09     0.016 C 
HETATM   39  C37 STQ G1621     -50.602 143.069  10.656  1.00 57.09     0.016 C 
HETATM   40  C38 STQ G1621     -46.732 146.269  11.046  1.00 57.09     0.044 C 
HETATM   41  C39 STQ G1621     -45.802 142.844   7.680  1.00 57.09     0.048 C 
HETATM   42  C40 STQ G1621     -42.964 138.660   6.971  1.00 57.09     0.048 C 
HETATM   43  O23 STQ G1621     -51.151 147.569  12.198  1.00 57.09    -0.392 OA
ATOM     44  H23 STQ G1621     -50.876 148.478  12.160  1.00  0.00     0.210 HD
ENDROOT
TORSDOF 12
