REMARK VINA RESULT:    -9.057      1.501     16.913
REMARK INTER + INTRA:          -9.351
REMARK INTER:                  -8.851
REMARK INTRA:                  -0.500
REMARK UNBOUND:                -0.295
REMARK  0 active torsions:
REMARK  status: ('A' for Active; 'I' for Inactive)
REMARK       I    between atoms: C3_3  and  O3_21 
REMARK       I    between atoms: C6_6  and  C7_7 
REMARK       I    between atoms: C8_8  and  C9_9 
REMARK       I    between atoms: C10_10  and  C11_11 
REMARK       I    between atoms: C12_12  and  C13_13 
REMARK       I    between atoms: C14_14  and  C15_15 
REMARK       I    between atoms: C23_25  and  O23_43 
REMARK       I    between atoms: C26_28  and  C27_29 
REMARK       I    between atoms: C28_30  and  C29_31 
REMARK       I    between atoms: C30_32  and  C31_33 
REMARK       I    between atoms: C32_34  and  C33_35 
REMARK       I    between atoms: C34_36  and  C35_37 
ROOT
HETATM    1  C1  STQ 3 621     -49.775 145.643  12.685  1.00 19.54    -0.018 C 
HETATM    2  C2  STQ 3 621     -50.546 146.299  13.827  1.00 19.54     0.045 C 
HETATM    3  C3  STQ 3 621     -49.780 147.120  14.845  1.00 19.54     0.123 C 
HETATM    4  C4  STQ 3 621     -48.796 148.017  14.135  1.00 19.54     0.066 C 
HETATM    5  C5  STQ 3 621     -47.921 147.227  13.196  1.00 19.54    -0.074 C 
HETATM    6  C6  STQ 3 621     -48.389 146.214  12.446  1.00 19.54    -0.048 C 
HETATM    7  C7  STQ 3 621     -47.576 145.658  11.323  1.00 19.54     0.009 C 
HETATM    8  C8  STQ 3 621     -46.646 144.707  11.478  1.00 19.54     0.007 C 
HETATM    9  C9  STQ 3 621     -45.841 144.148  10.373  1.00 19.54    -0.062 C 
HETATM   10  C10 STQ 3 621     -44.960 143.186  10.685  1.00 19.54     0.007 C 
HETATM   11  C11 STQ 3 621     -44.075 142.505   9.744  1.00 19.54     0.001 C 
HETATM   12  C12 STQ 3 621     -43.228 141.640  10.293  1.00 19.54     0.007 C 
HETATM   13  C13 STQ 3 621     -42.264 140.826   9.534  1.00 19.54    -0.062 C 
HETATM   14  C14 STQ 3 621     -41.793 139.723  10.135  1.00 19.54     0.007 C 
HETATM   15  C15 STQ 3 621     -40.855 138.804   9.502  1.00 19.54     0.001 C 
HETATM   16  C16 STQ 3 621     -50.671 145.765  11.457  1.00 19.54     0.020 C 
HETATM   17  C17 STQ 3 621     -49.588 144.166  13.000  1.00 19.54     0.020 C 
HETATM   18  C18 STQ 3 621     -46.680 147.975  12.821  1.00 19.54     0.044 C 
HETATM   19  C19 STQ 3 621     -45.991 144.651   8.969  1.00 19.54     0.048 C 
HETATM   20  C20 STQ 3 621     -41.826 141.212   8.154  1.00 19.54     0.048 C 
HETATM   21  O3  STQ 3 621     -50.705 147.945  15.556  1.00 19.54    -0.395 OA
ATOM     22  H3  STQ 3 621     -50.224 148.459  16.194  1.00  0.00     0.210 HD
HETATM   23  C21 STQ 3 621     -34.205 128.504   6.807  1.00 19.54    -0.035 C 
HETATM   24  C22 STQ 3 621     -33.396 127.754   5.757  1.00 19.54     0.045 C 
HETATM   25  C23 STQ 3 621     -31.904 127.697   6.043  1.00 19.54     0.142 C 
HETATM   26  C24 STQ 3 621     -31.386 129.044   6.480  1.00 19.54     0.007 C 
HETATM   27  C25 STQ 3 621     -32.139 129.906   7.178  1.00 19.54    -0.077 C 
HETATM   28  C26 STQ 3 621     -33.641 129.907   7.061  1.00 19.54     0.044 C 
HETATM   29  C27 STQ 3 621     -34.289 130.521   8.288  1.00 19.54    -0.016 C 
HETATM   30  C28 STQ 3 621     -35.012 131.626   8.139  1.00 19.54     0.003 C 
HETATM   31  C29 STQ 3 621     -35.691 132.282   9.266  1.00 19.54    -0.062 C 
HETATM   32  C30 STQ 3 621     -36.742 133.054   8.984  1.00 19.54     0.007 C 
HETATM   33  C31 STQ 3 621     -37.526 133.775   9.978  1.00 19.54     0.001 C 
HETATM   34  C32 STQ 3 621     -38.235 134.779   9.484  1.00 19.54     0.007 C 
HETATM   35  C33 STQ 3 621     -39.125 135.672  10.237  1.00 19.54    -0.062 C 
HETATM   36  C34 STQ 3 621     -39.607 136.732   9.573  1.00 19.54     0.007 C 
HETATM   37  C35 STQ 3 621     -40.518 137.701  10.167  1.00 19.54     0.001 C 
HETATM   38  C36 STQ 3 621     -34.273 127.683   8.093  1.00 19.54     0.016 C 
HETATM   39  C37 STQ 3 621     -35.620 128.636   6.259  1.00 19.54     0.016 C 
HETATM   40  C38 STQ 3 621     -31.453 130.883   8.083  1.00 19.54     0.044 C 
HETATM   41  C39 STQ 3 621     -35.226 132.102  10.672  1.00 19.54     0.048 C 
HETATM   42  C40 STQ 3 621     -39.471 135.399  11.667  1.00 19.54     0.048 C 
HETATM   43  O23 STQ 3 621     -31.226 127.303   4.846  1.00 19.54    -0.392 OA
ATOM     44  H23 STQ 3 621     -30.293 127.267   5.026  1.00  0.00     0.210 HD
ENDROOT
TORSDOF 12
