REMARK VINA RESULT:   -10.213      0.000      0.000
REMARK INTER + INTRA:         -10.968
REMARK INTER:                 -10.213
REMARK INTRA:                  -0.755
REMARK UNBOUND:                -0.755
REMARK  0 active torsions:
REMARK  status: ('A' for Active; 'I' for Inactive)
REMARK       I    between atoms: C3_3  and  O3_21 
REMARK       I    between atoms: C6_6  and  C7_7 
REMARK       I    between atoms: C8_8  and  C9_9 
REMARK       I    between atoms: C10_10  and  C11_11 
REMARK       I    between atoms: C12_12  and  C13_13 
REMARK       I    between atoms: C14_14  and  C15_15 
REMARK       I    between atoms: C23_25  and  O23_43 
REMARK       I    between atoms: C26_28  and  C27_29 
REMARK       I    between atoms: C28_30  and  C29_31 
REMARK       I    between atoms: C30_32  and  C31_33 
REMARK       I    between atoms: C32_34  and  C33_35 
REMARK       I    between atoms: C34_36  and  C35_37 
ROOT
HETATM    1  C1  STQ 5 620     -50.149 144.860  13.418  1.00 27.86    -0.018 C 
HETATM    2  C2  STQ 5 620     -50.912 145.665  14.464  1.00 27.86     0.045 C 
HETATM    3  C3  STQ 5 620     -50.019 146.349  15.489  1.00 27.86     0.123 C 
HETATM    4  C4  STQ 5 620     -49.016 147.239  14.778  1.00 27.86     0.066 C 
HETATM    5  C5  STQ 5 620     -48.238 146.440  13.767  1.00 27.86    -0.074 C 
HETATM    6  C6  STQ 5 620     -48.815 145.467  13.053  1.00 27.86    -0.048 C 
HETATM    7  C7  STQ 5 620     -48.133 144.934  11.856  1.00 27.86     0.009 C 
HETATM    8  C8  STQ 5 620     -46.902 144.462  12.008  1.00 27.86     0.007 C 
HETATM    9  C9  STQ 5 620     -46.134 143.892  10.886  1.00 27.86    -0.062 C 
HETATM   10  C10 STQ 5 620     -45.028 143.197  11.181  1.00 27.86     0.007 C 
HETATM   11  C11 STQ 5 620     -44.180 142.562  10.176  1.00 27.86     0.001 C 
HETATM   12  C12 STQ 5 620     -43.330 141.652  10.635  1.00 27.86     0.007 C 
HETATM   13  C13 STQ 5 620     -42.406 140.887   9.780  1.00 27.86    -0.062 C 
HETATM   14  C14 STQ 5 620     -41.854 139.785  10.304  1.00 27.86     0.007 C 
HETATM   15  C15 STQ 5 620     -40.940 138.943   9.547  1.00 27.86     0.001 C 
HETATM   16  C16 STQ 5 620     -50.981 144.779  12.145  1.00 27.86     0.020 C 
HETATM   17  C17 STQ 5 620     -49.899 143.452  13.942  1.00 27.86     0.020 C 
HETATM   18  C18 STQ 5 620     -47.103 147.234  13.188  1.00 27.86     0.044 C 
HETATM   19  C19 STQ 5 620     -46.581 144.084   9.470  1.00 27.86     0.048 C 
HETATM   20  C20 STQ 5 620     -42.097 141.316   8.377  1.00 27.86     0.048 C 
HETATM   21  O3  STQ 5 620     -50.826 147.147  16.359  1.00 27.86    -0.395 OA
ATOM     22  H3  STQ 5 620     -50.269 147.575  16.999  1.00  0.00     0.210 HD
HETATM   23  C21 STQ 5 620     -34.156 128.376   6.926  1.00 27.86    -0.035 C 
HETATM   24  C22 STQ 5 620     -33.397 127.804   5.737  1.00 27.86     0.045 C 
HETATM   25  C23 STQ 5 620     -31.883 127.824   5.929  1.00 27.86     0.142 C 
HETATM   26  C24 STQ 5 620     -31.404 129.074   6.634  1.00 27.86     0.007 C 
HETATM   27  C25 STQ 5 620     -32.211 129.851   7.370  1.00 27.86    -0.077 C 
HETATM   28  C26 STQ 5 620     -33.699 129.807   7.169  1.00 27.86     0.044 C 
HETATM   29  C27 STQ 5 620     -34.443 130.389   8.349  1.00 27.86    -0.016 C 
HETATM   30  C28 STQ 5 620     -35.166 131.478   8.117  1.00 27.86     0.003 C 
HETATM   31  C29 STQ 5 620     -35.955 132.161   9.156  1.00 27.86    -0.062 C 
HETATM   32  C30 STQ 5 620     -36.773 133.141   8.755  1.00 27.86     0.007 C 
HETATM   33  C31 STQ 5 620     -37.620 133.905   9.662  1.00 27.86     0.001 C 
HETATM   34  C32 STQ 5 620     -38.239 134.962   9.145  1.00 27.86     0.007 C 
HETATM   35  C33 STQ 5 620     -39.133 135.821   9.937  1.00 27.86    -0.062 C 
HETATM   36  C34 STQ 5 620     -39.649 136.913   9.357  1.00 27.86     0.007 C 
HETATM   37  C35 STQ 5 620     -40.549 137.794  10.088  1.00 27.86     0.001 C 
HETATM   38  C36 STQ 5 620     -33.914 127.531   8.166  1.00 27.86     0.016 C 
HETATM   39  C37 STQ 5 620     -35.645 128.382   6.610  1.00 27.86     0.016 C 
HETATM   40  C38 STQ 5 620     -31.616 130.770   8.394  1.00 27.86     0.044 C 
HETATM   41  C39 STQ 5 620     -35.849 131.776  10.600  1.00 27.86     0.048 C 
HETATM   42  C40 STQ 5 620     -39.465 135.474  11.357  1.00 27.86     0.048 C 
HETATM   43  O23 STQ 5 620     -31.258 127.750   4.644  1.00 27.86    -0.392 OA
ATOM     44  H23 STQ 5 620     -30.315 127.762   4.763  1.00  0.00     0.210 HD
ENDROOT
TORSDOF 12
