REMARK VINA RESULT:    -7.669      1.298     17.294
REMARK INTER + INTRA:          -8.163
REMARK INTER:                  -7.693
REMARK INTRA:                  -0.470
REMARK UNBOUND:                -0.494
REMARK  0 active torsions:
REMARK  status: ('A' for Active; 'I' for Inactive)
REMARK       I    between atoms: C3_3  and  O3_21 
REMARK       I    between atoms: C6_6  and  C7_7 
REMARK       I    between atoms: C8_8  and  C9_9 
REMARK       I    between atoms: C10_10  and  C11_11 
REMARK       I    between atoms: C12_12  and  C13_13 
REMARK       I    between atoms: C14_14  and  C15_15 
REMARK       I    between atoms: C23_25  and  O23_43 
REMARK       I    between atoms: C26_28  and  C27_29 
REMARK       I    between atoms: C28_30  and  C29_31 
REMARK       I    between atoms: C30_32  and  C31_33 
REMARK       I    between atoms: C32_34  and  C33_35 
REMARK       I    between atoms: C34_36  and  C35_37 
ROOT
HETATM    1  C1  STQ J9621     -49.761 146.625  12.198  1.00 21.11    -0.018 C 
HETATM    2  C2  STQ J9621     -50.661 146.944  13.405  1.00 20.11     0.045 C 
HETATM    3  C3  STQ J9621     -50.243 148.022  14.404  1.00 19.41     0.123 C 
HETATM    4  C4  STQ J9621     -48.861 148.652  14.176  1.00 18.39     0.066 C 
HETATM    5  C5  STQ J9621     -47.914 148.128  13.150  1.00 18.34    -0.074 C 
HETATM    6  C6  STQ J9621     -48.295 147.201  12.207  1.00 19.81    -0.048 C 
HETATM    7  C7  STQ J9621     -47.427 146.673  11.130  1.00 19.02     0.009 C 
HETATM    8  C8  STQ J9621     -46.519 145.691  11.282  1.00 17.97     0.007 C 
HETATM    9  C9  STQ J9621     -45.631 145.120  10.264  1.00 18.85    -0.062 C 
HETATM   10  C10 STQ J9621     -44.886 144.047  10.618  1.00 18.38     0.007 C 
HETATM   11  C11 STQ J9621     -44.013 143.268   9.771  1.00 18.57     0.001 C 
HETATM   12  C12 STQ J9621     -43.381 142.161  10.219  1.00 17.11     0.007 C 
HETATM   13  C13 STQ J9621     -42.536 141.235   9.450  1.00 20.42    -0.062 C 
HETATM   14  C14 STQ J9621     -42.027 140.159  10.092  1.00 20.50     0.007 C 
HETATM   15  C15 STQ J9621     -41.219 139.111   9.514  1.00 20.22     0.001 C 
HETATM   16  C16 STQ J9621     -50.560 147.175  10.990  1.00 19.56     0.020 C 
HETATM   17  C17 STQ J9621     -49.741 145.086  12.094  1.00 18.49     0.020 C 
HETATM   18  C18 STQ J9621     -46.616 148.833  13.295  1.00 16.89     0.044 C 
HETATM   19  C19 STQ J9621     -45.670 145.720   8.887  1.00 14.61     0.048 C 
HETATM   20  C20 STQ J9621     -42.319 141.523   7.982  1.00 17.59     0.048 C 
HETATM   21  O3  STQ J9621     -51.235 149.030  14.479  1.00 18.27    -0.395 OA
ATOM     22  H3  STQ J9621     -50.975 149.700  15.100  1.00  0.00     0.210 HD
HETATM   23  C21 STQ J9621     -34.213 128.475   7.040  1.00 22.52    -0.035 C 
HETATM   24  C22 STQ J9621     -33.369 127.537   6.154  1.00 21.99     0.045 C 
HETATM   25  C23 STQ J9621     -31.856 127.689   6.321  1.00 21.90     0.142 C 
HETATM   26  C24 STQ J9621     -31.390 129.134   6.530  1.00 21.56     0.007 C 
HETATM   27  C25 STQ J9621     -32.249 130.138   6.836  1.00 22.48    -0.077 C 
HETATM   28  C26 STQ J9621     -33.758 129.974   6.998  1.00 21.56     0.044 C 
HETATM   29  C27 STQ J9621     -34.291 130.813   8.141  1.00 20.56    -0.016 C 
HETATM   30  C28 STQ J9621     -35.281 131.738   8.028  1.00 20.46     0.003 C 
HETATM   31  C29 STQ J9621     -35.980 132.417   9.140  1.00 19.55    -0.062 C 
HETATM   32  C30 STQ J9621     -36.912 133.349   8.841  1.00 17.66     0.007 C 
HETATM   33  C31 STQ J9621     -37.687 134.119   9.783  1.00 19.12     0.001 C 
HETATM   34  C32 STQ J9621     -38.478 135.149   9.404  1.00 19.40     0.007 C 
HETATM   35  C33 STQ J9621     -39.301 136.052  10.229  1.00 19.31    -0.062 C 
HETATM   36  C34 STQ J9621     -39.926 137.076   9.609  1.00 17.72     0.007 C 
HETATM   37  C35 STQ J9621     -40.727 138.097  10.225  1.00 19.92     0.001 C 
HETATM   38  C36 STQ J9621     -34.157 127.913   8.492  1.00 21.96     0.016 C 
HETATM   39  C37 STQ J9621     -35.661 128.363   6.553  1.00 20.23     0.016 C 
HETATM   40  C38 STQ J9621     -31.602 131.470   6.996  1.00 21.00     0.044 C 
HETATM   41  C39 STQ J9621     -35.556 132.076  10.544  1.00 18.53     0.048 C 
HETATM   42  C40 STQ J9621     -39.333 135.814  11.715  1.00 15.86     0.048 C 
HETATM   43  O23 STQ J9621     -31.191 127.097   5.217  1.00 24.65    -0.392 OA
ATOM     44  H23 STQ J9621     -30.252 127.192   5.320  1.00  0.00     0.210 HD
ENDROOT
TORSDOF 12
