REMARK VINA RESULT:    -6.576      0.000      0.000
REMARK INTER + INTRA:          -9.887
REMARK INTER:                  -6.576
REMARK INTRA:                  -3.311
REMARK UNBOUND:                -3.311
REMARK  0 active torsions:
REMARK  status: ('A' for Active; 'I' for Inactive)
REMARK       I    between atoms: C3_3  and  O3_21 
REMARK       I    between atoms: C6_6  and  C7_7 
REMARK       I    between atoms: C8_8  and  C9_9 
REMARK       I    between atoms: C10_10  and  C11_11 
REMARK       I    between atoms: C12_12  and  C13_13 
REMARK       I    between atoms: C14_14  and  C15_15 
REMARK       I    between atoms: C23_25  and  O23_43 
REMARK       I    between atoms: C26_28  and  C27_29 
REMARK       I    between atoms: C28_30  and  C29_31 
REMARK       I    between atoms: C30_32  and  C31_33 
REMARK       I    between atoms: C32_34  and  C33_35 
REMARK       I    between atoms: C34_36  and  C35_37 
ROOT
HETATM    1  C1  STQ D3621     -34.506 127.220   6.048  1.00 23.41    -0.018 C 
HETATM    2  C2  STQ D3621     -34.023 126.468   4.795  1.00 23.79     0.045 C 
HETATM    3  C3  STQ D3621     -32.802 126.956   4.022  1.00 23.28     0.123 C 
HETATM    4  C4  STQ D3621     -31.878 127.882   4.828  1.00 23.70     0.066 C 
HETATM    5  C5  STQ D3621     -32.375 128.588   6.058  1.00 23.84    -0.074 C 
HETATM    6  C6  STQ D3621     -33.585 128.312   6.663  1.00 22.99    -0.048 C 
HETATM    7  C7  STQ D3621     -34.096 128.987   7.886  1.00 20.55     0.009 C 
HETATM    8  C8  STQ D3621     -34.705 130.193   7.904  1.00 19.35     0.007 C 
HETATM    9  C9  STQ D3621     -35.198 130.985   9.033  1.00 18.45    -0.062 C 
HETATM   10  C10 STQ D3621     -35.890 132.109   8.747  1.00 18.11     0.007 C 
HETATM   11  C11 STQ D3621     -36.539 132.986   9.680  1.00 18.44     0.001 C 
HETATM   12  C12 STQ D3621     -37.279 134.046   9.281  1.00 19.34     0.007 C 
HETATM   13  C13 STQ D3621     -38.060 134.937  10.159  1.00 20.12    -0.062 C 
HETATM   14  C14 STQ D3621     -38.773 135.940   9.593  1.00 19.73     0.007 C 
HETATM   15  C15 STQ D3621     -39.650 136.894  10.266  1.00 19.24     0.001 C 
HETATM   16  C16 STQ D3621     -34.712 126.067   7.037  1.00 23.73     0.020 C 
HETATM   17  C17 STQ D3621     -35.882 127.817   5.725  1.00 23.42     0.020 C 
HETATM   18  C18 STQ D3621     -31.354 129.570   6.504  1.00 22.78     0.044 C 
HETATM   19  C19 STQ D3621     -34.969 130.455  10.415  1.00 16.12     0.048 C 
HETATM   20  C20 STQ D3621     -38.028 134.643  11.634  1.00 17.75     0.048 C 
HETATM   21  O3  STQ D3621     -32.075 125.850   3.506  1.00 21.52    -0.395 OA
ATOM     22  H3  STQ D3621     -31.315 126.154   3.024  1.00  0.00     0.210 HD
HETATM   23  C21 STQ D3621     -47.976 146.480  13.314  1.00 19.77    -0.035 C 
HETATM   24  C22 STQ D3621     -48.829 147.379  14.233  1.00 17.50     0.045 C 
HETATM   25  C23 STQ D3621     -48.207 148.737  14.547  1.00 17.67     0.142 C 
HETATM   26  C24 STQ D3621     -46.678 148.707  14.737  1.00 18.06     0.007 C 
HETATM   27  C25 STQ D3621     -45.928 147.646  14.345  1.00 19.36    -0.077 C 
HETATM   28  C26 STQ D3621     -46.466 146.372  13.695  1.00 19.09     0.044 C 
HETATM   29  C27 STQ D3621     -45.589 145.858  12.548  1.00 18.58    -0.016 C 
HETATM   30  C28 STQ D3621     -45.112 144.587  12.458  1.00 19.42     0.003 C 
HETATM   31  C29 STQ D3621     -44.375 143.981  11.332  1.00 21.21    -0.062 C 
HETATM   32  C30 STQ D3621     -43.933 142.706  11.454  1.00 20.08     0.007 C 
HETATM   33  C31 STQ D3621     -43.186 141.962  10.465  1.00 17.89     0.001 C 
HETATM   34  C32 STQ D3621     -42.594 140.772  10.728  1.00 17.64     0.007 C 
HETATM   35  C33 STQ D3621     -41.761 139.942   9.823  1.00 17.45    -0.062 C 
HETATM   36  C34 STQ D3621     -41.167 138.839  10.340  1.00 15.95     0.007 C 
HETATM   37  C35 STQ D3621     -40.280 137.914   9.651  1.00 18.41     0.001 C 
HETATM   38  C36 STQ D3621     -48.126 147.049  11.869  1.00 20.23     0.016 C 
HETATM   39  C37 STQ D3621     -48.621 145.075  13.357  1.00 15.16     0.016 C 
HETATM   40  C38 STQ D3621     -44.479 147.765  14.609  1.00 16.76     0.044 C 
HETATM   41  C39 STQ D3621     -44.087 144.856  10.141  1.00 22.05     0.048 C 
HETATM   42  C40 STQ D3621     -41.572 140.427   8.408  1.00 11.49     0.048 C 
HETATM   43  O23 STQ D3621     -48.844 149.302  15.679  1.00 18.64    -0.392 OA
ATOM     44  H23 STQ D3621     -49.787 149.320  15.562  1.00  0.00     0.210 HD
ENDROOT
TORSDOF 12
