REMARK VINA RESULT:    -9.796      0.000      0.000
REMARK INTER + INTRA:         -12.157
REMARK INTER:                  -9.796
REMARK INTRA:                  -2.362
REMARK UNBOUND:                -2.362
REMARK  0 active torsions:
REMARK  status: ('A' for Active; 'I' for Inactive)
REMARK       I    between atoms: C3_3  and  O3_21 
REMARK       I    between atoms: C6_6  and  C7_7 
REMARK       I    between atoms: C8_8  and  C9_9 
REMARK       I    between atoms: C10_10  and  C11_11 
REMARK       I    between atoms: C12_12  and  C13_13 
REMARK       I    between atoms: C14_14  and  C15_15 
REMARK       I    between atoms: C23_25  and  O23_43 
REMARK       I    between atoms: C26_28  and  C27_29 
REMARK       I    between atoms: C28_30  and  C29_31 
REMARK       I    between atoms: C30_32  and  C31_33 
REMARK       I    between atoms: C32_34  and  C33_35 
REMARK       I    between atoms: C34_36  and  C35_37 
ROOT
HETATM    1  C1  STQ 1 320     -34.306 126.868   6.554  1.00 79.00    -0.018 C 
HETATM    2  C2  STQ 1 320     -34.073 126.321   5.145  1.00 79.55     0.045 C 
HETATM    3  C3  STQ 1 320     -33.130 127.110   4.246  1.00 80.08     0.123 C 
HETATM    4  C4  STQ 1 320     -31.980 127.715   5.037  1.00 79.64     0.066 C 
HETATM    5  C5  STQ 1 320     -32.514 128.553   6.169  1.00 79.19    -0.074 C 
HETATM    6  C6  STQ 1 320     -33.621 128.189   6.819  1.00 79.31    -0.048 C 
HETATM    7  C7  STQ 1 320     -34.230 129.099   7.813  1.00 78.64     0.009 C 
HETATM    8  C8  STQ 1 320     -35.165 129.965   7.431  1.00 77.62     0.007 C 
HETATM    9  C9  STQ 1 320     -35.813 130.888   8.382  1.00 76.30    -0.062 C 
HETATM   10  C10 STQ 1 320     -36.663 131.802   7.896  1.00 74.97     0.007 C 
HETATM   11  C11 STQ 1 320     -37.361 132.757   8.748  1.00 73.76     0.001 C 
HETATM   12  C12 STQ 1 320     -38.290 133.518   8.179  1.00 72.98     0.007 C 
HETATM   13  C13 STQ 1 320     -39.057 134.509   8.955  1.00 72.79    -0.062 C 
HETATM   14  C14 STQ 1 320     -39.985 135.253   8.333  1.00 72.37     0.007 C 
HETATM   15  C15 STQ 1 320     -40.768 136.243   9.065  1.00 71.72     0.001 C 
HETATM   16  C16 STQ 1 320     -33.801 125.850   7.571  1.00 78.31     0.020 C 
HETATM   17  C17 STQ 1 320     -35.804 127.079   6.739  1.00 77.27     0.020 C 
HETATM   18  C18 STQ 1 320     -31.934 129.925   6.349  1.00 78.52     0.044 C 
HETATM   19  C19 STQ 1 320     -35.532 130.799   9.854  1.00 75.52     0.048 C 
HETATM   20  C20 STQ 1 320     -38.801 134.667  10.425  1.00 72.36     0.048 C 
HETATM   21  O3  STQ 1 320     -32.590 126.216   3.264  1.00 80.30    -0.395 OA
ATOM     22  H3  STQ 1 320     -33.309 125.838   2.770  1.00  0.00     0.210 HD
HETATM   23  C21 STQ 1 320     -49.980 143.988  13.279  1.00 90.94    -0.035 C 
HETATM   24  C22 STQ 1 320     -50.319 144.961  14.402  1.00 90.49     0.045 C 
HETATM   25  C23 STQ 1 320     -50.210 146.421  13.979  1.00 90.33     0.142 C 
HETATM   26  C24 STQ 1 320     -48.951 146.670  13.185  1.00 90.54     0.007 C 
HETATM   27  C25 STQ 1 320     -48.366 145.721  12.443  1.00 89.72    -0.077 C 
HETATM   28  C26 STQ 1 320     -48.587 144.259  12.718  1.00 89.61     0.044 C 
HETATM   29  C27 STQ 1 320     -48.365 143.452  11.456  1.00 88.07    -0.016 C 
HETATM   30  C28 STQ 1 320     -47.311 142.642  11.426  1.00 86.99     0.003 C 
HETATM   31  C29 STQ 1 320     -46.959 141.791  10.273  1.00 84.95    -0.062 C 
HETATM   32  C30 STQ 1 320     -45.777 141.161  10.321  1.00 81.64     0.007 C 
HETATM   33  C31 STQ 1 320     -45.264 140.276   9.280  1.00 78.38     0.001 C 
HETATM   34  C32 STQ 1 320     -44.177 139.585   9.613  1.00 76.42     0.007 C 
HETATM   35  C33 STQ 1 320     -43.496 138.631   8.720  1.00 74.01    -0.062 C 
HETATM   36  C34 STQ 1 320     -42.494 137.902   9.235  1.00 73.35     0.007 C 
HETATM   37  C35 STQ 1 320     -41.741 136.921   8.459  1.00 72.23     0.001 C 
HETATM   38  C36 STQ 1 320     -51.028 144.077  12.177  1.00 91.00     0.016 C 
HETATM   39  C37 STQ 1 320     -50.001 142.572  13.845  1.00 91.82     0.016 C 
HETATM   40  C38 STQ 1 320     -47.467 146.135  11.317  1.00 88.96     0.044 C 
HETATM   41  C39 STQ 1 320     -47.888 141.635   9.105  1.00 85.50     0.048 C 
HETATM   42  C40 STQ 1 320     -43.914 138.486   7.288  1.00 73.58     0.048 C 
HETATM   43  O23 STQ 1 320     -50.172 147.246  15.148  1.00 91.01    -0.392 OA
ATOM     44  H23 STQ 1 320     -50.104 148.156  14.885  1.00  0.00     0.210 HD
ENDROOT
TORSDOF 12
