REMARK VINA RESULT:    -9.467      2.025     16.857
REMARK INTER + INTRA:          -9.486
REMARK INTER:                  -8.664
REMARK INTRA:                  -0.822
REMARK UNBOUND:                -0.019
REMARK  0 active torsions:
REMARK  status: ('A' for Active; 'I' for Inactive)
REMARK       I    between atoms: C3_3  and  O3_21 
REMARK       I    between atoms: C6_6  and  C7_7 
REMARK       I    between atoms: C8_8  and  C9_9 
REMARK       I    between atoms: C10_10  and  C11_11 
REMARK       I    between atoms: C12_12  and  C13_13 
REMARK       I    between atoms: C14_14  and  C15_15 
REMARK       I    between atoms: C23_25  and  O23_43 
REMARK       I    between atoms: C26_28  and  C27_29 
REMARK       I    between atoms: C28_30  and  C29_31 
REMARK       I    between atoms: C30_32  and  C31_33 
REMARK       I    between atoms: C32_34  and  C33_35 
REMARK       I    between atoms: C34_36  and  C35_37 
ROOT
HETATM    1  C1  STQ U1621     -49.403 146.099  13.031  1.00 20.50    -0.018 C 
HETATM    2  C2  STQ U1621     -49.977 145.995  14.438  1.00 20.50     0.045 C 
HETATM    3  C3  STQ U1621     -49.194 146.663  15.549  1.00 20.50     0.123 C 
HETATM    4  C4  STQ U1621     -48.343 147.773  14.982  1.00 20.50     0.066 C 
HETATM    5  C5  STQ U1621     -47.434 147.127  13.990  1.00 20.50    -0.074 C 
HETATM    6  C6  STQ U1621     -47.957 146.494  12.957  1.00 20.50    -0.048 C 
HETATM    7  C7  STQ U1621     -47.159 145.977  11.838  1.00 20.50     0.009 C 
HETATM    8  C8  STQ U1621     -45.936 145.513  12.079  1.00 20.50     0.007 C 
HETATM    9  C9  STQ U1621     -45.240 144.777  11.011  1.00 20.50    -0.062 C 
HETATM   10  C10 STQ U1621     -44.287 143.910  11.371  1.00 20.50     0.007 C 
HETATM   11  C11 STQ U1621     -43.624 143.005  10.439  1.00 20.50     0.001 C 
HETATM   12  C12 STQ U1621     -42.854 142.032  10.911  1.00 20.50     0.007 C 
HETATM   13  C13 STQ U1621     -42.226 141.044  10.015  1.00 20.50    -0.062 C 
HETATM   14  C14 STQ U1621     -41.595 140.003  10.574  1.00 20.50     0.007 C 
HETATM   15  C15 STQ U1621     -40.951 138.936   9.815  1.00 20.50     0.001 C 
HETATM   16  C16 STQ U1621     -50.141 147.180  12.262  1.00 20.50     0.020 C 
HETATM   17  C17 STQ U1621     -49.637 144.778  12.341  1.00 20.50     0.020 C 
HETATM   18  C18 STQ U1621     -46.244 148.009  13.845  1.00 20.50     0.044 C 
HETATM   19  C19 STQ U1621     -45.681 144.942   9.590  1.00 20.50     0.048 C 
HETATM   20  C20 STQ U1621     -42.344 141.233   8.536  1.00 20.50     0.048 C 
HETATM   21  O3  STQ U1621     -50.148 147.197  16.457  1.00 20.50    -0.395 OA
ATOM     22  H3  STQ U1621     -49.657 147.617  17.154  1.00  0.00     0.210 HD
HETATM   23  C21 STQ U1621     -34.216 128.422   6.866  1.00 20.50    -0.035 C 
HETATM   24  C22 STQ U1621     -33.381 127.627   5.890  1.00 20.50     0.045 C 
HETATM   25  C23 STQ U1621     -31.908 127.735   6.186  1.00 20.50     0.142 C 
HETATM   26  C24 STQ U1621     -31.506 129.161   6.443  1.00 20.50     0.007 C 
HETATM   27  C25 STQ U1621     -32.379 130.122   6.752  1.00 20.50    -0.077 C 
HETATM   28  C26 STQ U1621     -33.851 129.897   6.843  1.00 20.50     0.044 C 
HETATM   29  C27 STQ U1621     -34.405 130.594   8.059  1.00 20.50    -0.016 C 
HETATM   30  C28 STQ U1621     -35.350 131.509   7.888  1.00 20.50     0.003 C 
HETATM   31  C29 STQ U1621     -35.952 132.233   9.015  1.00 20.50    -0.062 C 
HETATM   32  C30 STQ U1621     -36.917 133.116   8.717  1.00 20.50     0.007 C 
HETATM   33  C31 STQ U1621     -37.597 133.956   9.695  1.00 20.50     0.001 C 
HETATM   34  C32 STQ U1621     -38.412 134.913   9.271  1.00 20.50     0.007 C 
HETATM   35  C33 STQ U1621     -39.057 135.844  10.209  1.00 20.50    -0.062 C 
HETATM   36  C34 STQ U1621     -39.721 136.883   9.681  1.00 20.50     0.007 C 
HETATM   37  C35 STQ U1621     -40.374 137.936  10.457  1.00 20.50     0.001 C 
HETATM   38  C36 STQ U1621     -34.050 127.830   8.251  1.00 20.50     0.016 C 
HETATM   39  C37 STQ U1621     -35.661 128.297   6.445  1.00 20.50     0.016 C 
HETATM   40  C38 STQ U1621     -31.875 131.499   7.013  1.00 20.50     0.044 C 
HETATM   41  C39 STQ U1621     -35.489 131.927  10.404  1.00 20.50     0.048 C 
HETATM   42  C40 STQ U1621     -38.884 135.624  11.679  1.00 20.50     0.048 C 
HETATM   43  O23 STQ U1621     -31.243 127.275   5.021  1.00 20.50    -0.392 OA
ATOM     44  H23 STQ U1621     -31.497 126.374   4.859  1.00  0.00     0.210 HD
ENDROOT
TORSDOF 12
