REMARK VINA RESULT:    -7.016      1.645     16.909
REMARK INTER + INTRA:         -10.193
REMARK INTER:                  -9.778
REMARK INTRA:                  -0.415
REMARK UNBOUND:                -3.177
REMARK  0 active torsions:
REMARK  status: ('A' for Active; 'I' for Inactive)
REMARK       I    between atoms: C3_3  and  O3_21 
REMARK       I    between atoms: C6_6  and  C7_7 
REMARK       I    between atoms: C8_8  and  C9_9 
REMARK       I    between atoms: C10_10  and  C11_11 
REMARK       I    between atoms: C12_12  and  C13_13 
REMARK       I    between atoms: C14_14  and  C15_15 
REMARK       I    between atoms: C23_25  and  O23_43 
REMARK       I    between atoms: C26_28  and  C27_29 
REMARK       I    between atoms: C28_30  and  C29_31 
REMARK       I    between atoms: C30_32  and  C31_33 
REMARK       I    between atoms: C32_34  and  C33_35 
REMARK       I    between atoms: C34_36  and  C35_37 
ROOT
HETATM    1  C1  STQ 21621     -49.354 145.727  13.068  1.00 90.34    -0.018 C 
HETATM    2  C2  STQ 21621     -50.069 145.959  14.396  1.00 90.34     0.045 C 
HETATM    3  C3  STQ 21621     -49.380 146.836  15.429  1.00 90.34     0.123 C 
HETATM    4  C4  STQ 21621     -48.552 147.922  14.773  1.00 90.34     0.066 C 
HETATM    5  C5  STQ 21621     -47.576 147.256  13.849  1.00 90.34    -0.074 C 
HETATM    6  C6  STQ 21621     -47.992 146.375  12.942  1.00 90.34    -0.048 C 
HETATM    7  C7  STQ 21621     -47.155 146.009  11.772  1.00 90.34     0.009 C 
HETATM    8  C8  STQ 21621     -46.161 145.124  11.888  1.00 90.34     0.007 C 
HETATM    9  C9  STQ 21621     -45.306 144.686  10.777  1.00 90.34    -0.062 C 
HETATM   10  C10 STQ 21621     -44.592 143.583  11.004  1.00 90.34     0.007 C 
HETATM   11  C11 STQ 21621     -43.691 142.912  10.083  1.00 90.34     0.001 C 
HETATM   12  C12 STQ 21621     -43.106 141.830  10.588  1.00 90.34     0.007 C 
HETATM   13  C13 STQ 21621     -42.189 140.993   9.806  1.00 90.34    -0.062 C 
HETATM   14  C14 STQ 21621     -41.676 139.902  10.382  1.00 90.34     0.007 C 
HETATM   15  C15 STQ 21621     -40.790 139.003   9.655  1.00 90.34     0.001 C 
HETATM   16  C16 STQ 21621     -50.298 146.214  11.975  1.00 90.34     0.020 C 
HETATM   17  C17 STQ 21621     -49.135 144.236  12.907  1.00 90.34     0.020 C 
HETATM   18  C18 STQ 21621     -46.461 148.214  13.569  1.00 90.34     0.044 C 
HETATM   19  C19 STQ 21621     -45.249 145.419   9.473  1.00 90.34     0.048 C 
HETATM   20  C20 STQ 21621     -41.858 141.348   8.390  1.00 90.34     0.048 C 
HETATM   21  O3  STQ 21621     -50.389 147.458  16.224  1.00 90.34    -0.395 OA
ATOM     22  H3  STQ 21621     -49.958 148.005  16.870  1.00  0.00     0.210 HD
HETATM   23  C21 STQ 21621     -34.210 128.365   6.973  1.00 90.34    -0.035 C 
HETATM   24  C22 STQ 21621     -33.408 127.534   5.994  1.00 90.34     0.045 C 
HETATM   25  C23 STQ 21621     -31.917 127.754   6.103  1.00 90.34     0.142 C 
HETATM   26  C24 STQ 21621     -31.611 129.226   6.110  1.00 90.34     0.007 C 
HETATM   27  C25 STQ 21621     -32.446 130.137   6.620  1.00 90.34    -0.077 C 
HETATM   28  C26 STQ 21621     -33.903 129.860   6.837  1.00 90.34     0.044 C 
HETATM   29  C27 STQ 21621     -34.414 130.602   8.056  1.00 90.34    -0.016 C 
HETATM   30  C28 STQ 21621     -35.418 131.456   7.901  1.00 90.34     0.003 C 
HETATM   31  C29 STQ 21621     -36.012 132.205   9.017  1.00 90.34    -0.062 C 
HETATM   32  C30 STQ 21621     -37.088 132.930   8.719  1.00 90.34     0.007 C 
HETATM   33  C31 STQ 21621     -37.851 133.729   9.665  1.00 90.34     0.001 C 
HETATM   34  C32 STQ 21621     -38.352 134.867   9.198  1.00 90.34     0.007 C 
HETATM   35  C33 STQ 21621     -39.171 135.767  10.018  1.00 90.34    -0.062 C 
HETATM   36  C34 STQ 21621     -39.532 136.954   9.511  1.00 90.34     0.007 C 
HETATM   37  C35 STQ 21621     -40.379 137.885  10.246  1.00 90.34     0.001 C 
HETATM   38  C36 STQ 21621     -33.964 127.848   8.384  1.00 90.34     0.016 C 
HETATM   39  C37 STQ 21621     -35.671 128.112   6.639  1.00 90.34     0.016 C 
HETATM   40  C38 STQ 21621     -31.903 131.486   6.971  1.00 90.34     0.044 C 
HETATM   41  C39 STQ 21621     -35.457 132.141  10.406  1.00 90.34     0.048 C 
HETATM   42  C40 STQ 21621     -39.603 135.330  11.381  1.00 90.34     0.048 C 
HETATM   43  O23 STQ 21621     -31.323 127.154   4.951  1.00 90.34    -0.392 OA
ATOM     44  H23 STQ 21621     -31.517 126.224   4.947  1.00  0.00     0.210 HD
ENDROOT
TORSDOF 12
