REMARK VINA RESULT:   -10.739      0.000      0.000
REMARK INTER + INTRA:         -11.299
REMARK INTER:                 -10.739
REMARK INTRA:                  -0.560
REMARK UNBOUND:                -0.560
REMARK  0 active torsions:
REMARK  status: ('A' for Active; 'I' for Inactive)
REMARK       I    between atoms: C3_3  and  O3_21 
REMARK       I    between atoms: C6_6  and  C7_7 
REMARK       I    between atoms: C8_8  and  C9_9 
REMARK       I    between atoms: C10_10  and  C11_11 
REMARK       I    between atoms: C12_12  and  C13_13 
REMARK       I    between atoms: C14_14  and  C15_15 
REMARK       I    between atoms: C23_25  and  O23_43 
REMARK       I    between atoms: C26_28  and  C27_29 
REMARK       I    between atoms: C28_30  and  C29_31 
REMARK       I    between atoms: C30_32  and  C31_33 
REMARK       I    between atoms: C32_34  and  C33_35 
REMARK       I    between atoms: C34_36  and  C35_37 
ROOT
HETATM    1  C1  STQ G1621     -34.118 128.487   7.000  1.00 57.46    -0.018 C 
HETATM    2  C2  STQ G1621     -33.335 128.161   5.737  1.00 54.62     0.045 C 
HETATM    3  C3  STQ G1621     -31.818 128.363   5.751  1.00 54.91     0.123 C 
HETATM    4  C4  STQ G1621     -31.262 129.152   6.928  1.00 56.99     0.066 C 
HETATM    5  C5  STQ G1621     -32.291 130.087   7.502  1.00 60.65    -0.074 C 
HETATM    6  C6  STQ G1621     -33.541 129.680   7.727  1.00 60.28    -0.048 C 
HETATM    7  C7  STQ G1621     -34.405 130.350   8.723  1.00 57.11     0.009 C 
HETATM    8  C8  STQ G1621     -35.047 131.478   8.447  1.00 53.31     0.007 C 
HETATM    9  C9  STQ G1621     -35.928 132.104   9.436  1.00 51.73    -0.062 C 
HETATM   10  C10 STQ G1621     -36.538 133.223   9.061  1.00 51.58     0.007 C 
HETATM   11  C11 STQ G1621     -37.485 133.954   9.874  1.00 50.17     0.001 C 
HETATM   12  C12 STQ G1621     -38.165 134.842   9.170  1.00 45.86     0.007 C 
HETATM   13  C13 STQ G1621     -39.235 135.672   9.718  1.00 47.23    -0.062 C 
HETATM   14  C14 STQ G1621     -39.826 136.545   8.898  1.00 50.33     0.007 C 
HETATM   15  C15 STQ G1621     -40.929 137.365   9.367  1.00 51.13     0.001 C 
HETATM   16  C16 STQ G1621     -34.201 127.261   7.909  1.00 59.48     0.020 C 
HETATM   17  C17 STQ G1621     -35.537 128.836   6.589  1.00 57.14     0.020 C 
HETATM   18  C18 STQ G1621     -31.548 130.900   8.515  1.00 65.36     0.044 C 
HETATM   19  C19 STQ G1621     -36.148 131.500  10.785  1.00 51.90     0.048 C 
HETATM   20  C20 STQ G1621     -39.684 135.492  11.135  1.00 47.72     0.048 C 
HETATM   21  O3  STQ G1621     -31.218 127.066   5.756  1.00 51.54    -0.395 OA
ATOM     22  H3  STQ G1621     -30.277 127.192   5.764  1.00  0.00     0.210 HD
HETATM   23  C21 STQ G1621     -50.615 145.292   9.076  1.00 40.30    -0.035 C 
HETATM   24  C22 STQ G1621     -51.781 145.996   9.731  1.00 42.73     0.045 C 
HETATM   25  C23 STQ G1621     -51.514 147.450  10.069  1.00 45.73     0.142 C 
HETATM   26  C24 STQ G1621     -50.223 147.564  10.829  1.00 49.58     0.007 C 
HETATM   27  C25 STQ G1621     -49.205 146.712  10.645  1.00 43.92    -0.077 C 
HETATM   28  C26 STQ G1621     -49.359 145.385   9.951  1.00 40.16     0.044 C 
HETATM   29  C27 STQ G1621     -48.138 145.074   9.120  1.00 36.17    -0.016 C 
HETATM   30  C28 STQ G1621     -47.554 143.904   9.299  1.00 36.75     0.003 C 
HETATM   31  C29 STQ G1621     -46.391 143.469   8.536  1.00 40.23    -0.062 C 
HETATM   32  C30 STQ G1621     -46.099 142.177   8.654  1.00 39.98     0.007 C 
HETATM   33  C31 STQ G1621     -44.986 141.544   7.986  1.00 42.92     0.001 C 
HETATM   34  C32 STQ G1621     -44.407 140.592   8.696  1.00 46.60     0.007 C 
HETATM   35  C33 STQ G1621     -43.266 139.840   8.177  1.00 46.94    -0.062 C 
HETATM   36  C34 STQ G1621     -42.681 138.939   8.966  1.00 47.30     0.007 C 
HETATM   37  C35 STQ G1621     -41.556 138.146   8.502  1.00 48.75     0.001 C 
HETATM   38  C36 STQ G1621     -50.391 145.882   7.688  1.00 38.79     0.016 C 
HETATM   39  C37 STQ G1621     -51.052 143.845   8.925  1.00 41.68     0.016 C 
HETATM   40  C38 STQ G1621     -47.864 147.076  11.176  1.00 43.23     0.044 C 
HETATM   41  C39 STQ G1621     -45.612 144.416   7.676  1.00 39.26     0.048 C 
HETATM   42  C40 STQ G1621     -42.787 140.101   6.790  1.00 47.22     0.048 C 
HETATM   43  O23 STQ G1621     -52.582 147.892  10.906  1.00 48.27    -0.392 OA
ATOM     44  H23 STQ G1621     -53.399 147.820  10.425  1.00  0.00     0.210 HD
ENDROOT
TORSDOF 12
