REMARK VINA RESULT:   -10.261      2.003      2.642
REMARK INTER + INTRA:         -10.573
REMARK INTER:                  -6.777
REMARK INTRA:                  -3.796
REMARK UNBOUND:                -0.311
REMARK  0 active torsions:
REMARK  status: ('A' for Active; 'I' for Inactive)
REMARK       I    between atoms: C3_3  and  O3_21 
REMARK       I    between atoms: C6_6  and  C7_7 
REMARK       I    between atoms: C8_8  and  C9_9 
REMARK       I    between atoms: C10_10  and  C11_11 
REMARK       I    between atoms: C12_12  and  C13_13 
REMARK       I    between atoms: C14_14  and  C15_15 
REMARK       I    between atoms: C23_25  and  O23_43 
REMARK       I    between atoms: C26_28  and  C27_29 
REMARK       I    between atoms: C28_30  and  C29_31 
REMARK       I    between atoms: C30_32  and  C31_33 
REMARK       I    between atoms: C32_34  and  C33_35 
REMARK       I    between atoms: C34_36  and  C35_37 
ROOT
HETATM    1  C1  STQ Y1621     -34.549 126.983   5.832  1.00 26.19    -0.018 C 
HETATM    2  C2  STQ Y1621     -34.074 126.275   4.569  1.00 26.65     0.045 C 
HETATM    3  C3  STQ Y1621     -32.870 126.860   3.857  1.00 28.07     0.123 C 
HETATM    4  C4  STQ Y1621     -31.833 127.353   4.833  1.00 30.07     0.066 C 
HETATM    5  C5  STQ Y1621     -32.464 128.350   5.750  1.00 28.83    -0.074 C 
HETATM    6  C6  STQ Y1621     -33.621 128.068   6.357  1.00 27.49    -0.048 C 
HETATM    7  C7  STQ Y1621     -34.057 128.792   7.578  1.00 29.45     0.009 C 
HETATM    8  C8  STQ Y1621     -34.510 130.047   7.545  1.00 27.83     0.007 C 
HETATM    9  C9  STQ Y1621     -34.980 130.750   8.743  1.00 26.06    -0.062 C 
HETATM   10  C10 STQ Y1621     -35.694 131.850   8.518  1.00 25.01     0.007 C 
HETATM   11  C11 STQ Y1621     -36.301 132.664   9.549  1.00 25.09     0.001 C 
HETATM   12  C12 STQ Y1621     -36.994 133.690   9.094  1.00 26.01     0.007 C 
HETATM   13  C13 STQ Y1621     -37.747 134.594   9.965  1.00 26.36    -0.062 C 
HETATM   14  C14 STQ Y1621     -38.487 135.539   9.380  1.00 27.67     0.007 C 
HETATM   15  C15 STQ Y1621     -39.297 136.454  10.169  1.00 28.38     0.001 C 
HETATM   16  C16 STQ Y1621     -34.722 125.880   6.860  1.00 26.46     0.020 C 
HETATM   17  C17 STQ Y1621     -35.895 127.637   5.555  1.00 26.61     0.020 C 
HETATM   18  C18 STQ Y1621     -31.336 129.059   6.424  1.00 29.43     0.044 C 
HETATM   19  C19 STQ Y1621     -34.690 130.249  10.121  1.00 26.07     0.048 C 
HETATM   20  C20 STQ Y1621     -37.726 134.414  11.451  1.00 25.83     0.048 C 
HETATM   21  O3  STQ Y1621     -32.286 125.850   3.038  1.00 27.44    -0.395 OA
ATOM     22  H3  STQ Y1621     -32.940 125.540   2.422  1.00  0.00     0.210 HD
HETATM   23  C21 STQ Y1621     -47.671 145.579  12.692  1.00 36.06    -0.035 C 
HETATM   24  C22 STQ Y1621     -48.473 146.373  13.698  1.00 35.97     0.045 C 
HETATM   25  C23 STQ Y1621     -47.923 147.723  14.116  1.00 37.89     0.142 C 
HETATM   26  C24 STQ Y1621     -46.420 147.734  14.187  1.00 35.66     0.007 C 
HETATM   27  C25 STQ Y1621     -45.659 146.746  13.695  1.00 33.59    -0.077 C 
HETATM   28  C26 STQ Y1621     -46.212 145.467  13.136  1.00 33.73     0.044 C 
HETATM   29  C27 STQ Y1621     -45.367 144.977  11.984  1.00 31.94    -0.016 C 
HETATM   30  C28 STQ Y1621     -44.887 143.746  12.038  1.00 31.56     0.003 C 
HETATM   31  C29 STQ Y1621     -44.078 143.174  10.965  1.00 29.73    -0.062 C 
HETATM   32  C30 STQ Y1621     -43.858 141.865  11.036  1.00 28.64     0.007 C 
HETATM   33  C31 STQ Y1621     -43.075 141.123  10.071  1.00 27.79     0.001 C 
HETATM   34  C32 STQ Y1621     -42.405 140.101  10.575  1.00 27.11     0.007 C 
HETATM   35  C33 STQ Y1621     -41.566 139.233   9.752  1.00 25.78    -0.062 C 
HETATM   36  C34 STQ Y1621     -40.872 138.250  10.331  1.00 26.10     0.007 C 
HETATM   37  C35 STQ Y1621     -40.042 137.351   9.545  1.00 27.22     0.001 C 
HETATM   38  C36 STQ Y1621     -47.800 146.199  11.304  1.00 34.31     0.016 C 
HETATM   39  C37 STQ Y1621     -48.320 144.204  12.681  1.00 37.49     0.016 C 
HETATM   40  C38 STQ Y1621     -44.181 146.896  13.739  1.00 34.38     0.044 C 
HETATM   41  C39 STQ Y1621     -43.550 144.030   9.864  1.00 32.37     0.048 C 
HETATM   42  C40 STQ Y1621     -41.514 139.460   8.285  1.00 25.14     0.048 C 
HETATM   43  O23 STQ Y1621     -48.458 147.996  15.414  1.00 41.29    -0.392 OA
ATOM     44  H23 STQ Y1621     -48.115 148.842  15.676  1.00  0.00     0.210 HD
ENDROOT
TORSDOF 12
