REMARK VINA RESULT:   -11.307      1.397     16.513
REMARK INTER + INTRA:         -11.894
REMARK INTER:                  -9.011
REMARK INTRA:                  -2.883
REMARK UNBOUND:                -0.587
REMARK  0 active torsions:
REMARK  status: ('A' for Active; 'I' for Inactive)
REMARK       I    between atoms: C3_3  and  O3_21 
REMARK       I    between atoms: C6_6  and  C7_7 
REMARK       I    between atoms: C8_8  and  C9_9 
REMARK       I    between atoms: C10_10  and  C11_11 
REMARK       I    between atoms: C12_12  and  C13_13 
REMARK       I    between atoms: C14_14  and  C15_15 
REMARK       I    between atoms: C23_25  and  O23_43 
REMARK       I    between atoms: C26_28  and  C27_29 
REMARK       I    between atoms: C28_30  and  C29_31 
REMARK       I    between atoms: C30_32  and  C31_33 
REMARK       I    between atoms: C32_34  and  C33_35 
REMARK       I    between atoms: C34_36  and  C35_37 
ROOT
HETATM    1  C1  STQ 11620     -34.419 127.741   6.517  1.00 94.67    -0.018 C 
HETATM    2  C2  STQ 11620     -33.778 127.372   5.186  1.00 94.67     0.045 C 
HETATM    3  C3  STQ 11620     -32.482 128.074   4.842  1.00 94.67     0.123 C 
HETATM    4  C4  STQ 11620     -31.598 128.095   6.059  1.00 94.67     0.066 C 
HETATM    5  C5  STQ 11620     -32.282 128.832   7.167  1.00 94.67    -0.074 C 
HETATM    6  C6  STQ 11620     -33.587 128.661   7.390  1.00 94.67    -0.048 C 
HETATM    7  C7  STQ 11620     -34.264 129.357   8.511  1.00 94.67     0.009 C 
HETATM    8  C8  STQ 11620     -34.784 130.572   8.354  1.00 94.67     0.007 C 
HETATM    9  C9  STQ 11620     -35.478 131.288   9.423  1.00 94.67    -0.062 C 
HETATM   10  C10 STQ 11620     -35.999 132.464   9.086  1.00 94.67     0.007 C 
HETATM   11  C11 STQ 11620     -36.748 133.317   9.989  1.00 94.67     0.001 C 
HETATM   12  C12 STQ 11620     -37.457 134.232   9.348  1.00 94.67     0.007 C 
HETATM   13  C13 STQ 11620     -38.325 135.205  10.005  1.00 94.67    -0.062 C 
HETATM   14  C14 STQ 11620     -39.044 135.987   9.203  1.00 94.67     0.007 C 
HETATM   15  C15 STQ 11620     -39.986 136.987   9.682  1.00 94.67     0.001 C 
HETATM   16  C16 STQ 11620     -34.708 126.421   7.224  1.00 94.67     0.020 C 
HETATM   17  C17 STQ 11620     -35.721 128.468   6.215  1.00 94.67     0.020 C 
HETATM   18  C18 STQ 11620     -31.413 129.704   8.024  1.00 94.67     0.044 C 
HETATM   19  C19 STQ 11620     -35.593 130.722  10.805  1.00 94.67     0.048 C 
HETATM   20  C20 STQ 11620     -38.410 135.291  11.495  1.00 94.67     0.048 C 
HETATM   21  O3  STQ 11620     -31.816 127.330   3.821  1.00 94.67    -0.395 OA
ATOM     22  H3  STQ 11620     -32.374 127.316   3.053  1.00  0.00     0.210 HD
HETATM   23  C21 STQ 11620     -49.750 144.859   9.628  1.00 94.67    -0.035 C 
HETATM   24  C22 STQ 11620     -50.523 145.574  10.726  1.00 94.67     0.045 C 
HETATM   25  C23 STQ 11620     -50.195 147.053  10.866  1.00 94.67     0.142 C 
HETATM   26  C24 STQ 11620     -48.721 147.326  10.720  1.00 94.67     0.007 C 
HETATM   27  C25 STQ 11620     -47.977 146.571   9.909  1.00 94.67    -0.077 C 
HETATM   28  C26 STQ 11620     -48.254 145.099   9.816  1.00 94.67     0.044 C 
HETATM   29  C27 STQ 11620     -47.479 144.456   8.695  1.00 94.67    -0.016 C 
HETATM   30  C28 STQ 11620     -46.526 143.615   9.060  1.00 94.67     0.003 C 
HETATM   31  C29 STQ 11620     -45.692 142.892   8.098  1.00 94.67    -0.062 C 
HETATM   32  C30 STQ 11620     -44.948 141.911   8.605  1.00 94.67     0.007 C 
HETATM   33  C31 STQ 11620     -44.044 141.058   7.855  1.00 94.67     0.001 C 
HETATM   34  C32 STQ 11620     -43.299 140.318   8.657  1.00 94.67     0.007 C 
HETATM   35  C33 STQ 11620     -42.291 139.360   8.208  1.00 94.67    -0.062 C 
HETATM   36  C34 STQ 11620     -41.745 138.562   9.130  1.00 94.67     0.007 C 
HETATM   37  C35 STQ 11620     -40.748 137.568   8.765  1.00 94.67     0.001 C 
HETATM   38  C36 STQ 11620     -50.224 145.291   8.241  1.00 94.67     0.016 C 
HETATM   39  C37 STQ 11620     -50.047 143.373   9.762  1.00 94.67     0.016 C 
HETATM   40  C38 STQ 11620     -46.891 147.217   9.096  1.00 94.67     0.044 C 
HETATM   41  C39 STQ 11620     -45.688 143.235   6.642  1.00 94.67     0.048 C 
HETATM   42  C40 STQ 11620     -41.883 139.303   6.772  1.00 94.67     0.048 C 
HETATM   43  O23 STQ 11620     -50.625 147.496  12.153  1.00 94.67    -0.392 OA
ATOM     44  H23 STQ 11620     -51.555 147.324  12.245  1.00  0.00     0.210 HD
ENDROOT
TORSDOF 12
