REMARK VINA RESULT:    -6.037      1.657     16.932
REMARK INTER + INTRA:          -8.963
REMARK INTER:                  -8.568
REMARK INTRA:                  -0.395
REMARK UNBOUND:                -2.926
REMARK  0 active torsions:
REMARK  status: ('A' for Active; 'I' for Inactive)
REMARK       I    between atoms: C3_3  and  O3_21 
REMARK       I    between atoms: C6_6  and  C7_7 
REMARK       I    between atoms: C8_8  and  C9_9 
REMARK       I    between atoms: C10_10  and  C11_11 
REMARK       I    between atoms: C12_12  and  C13_13 
REMARK       I    between atoms: C14_14  and  C15_15 
REMARK       I    between atoms: C23_25  and  O23_43 
REMARK       I    between atoms: C26_28  and  C27_29 
REMARK       I    between atoms: C28_30  and  C29_31 
REMARK       I    between atoms: C30_32  and  C31_33 
REMARK       I    between atoms: C32_34  and  C33_35 
REMARK       I    between atoms: C34_36  and  C35_37 
ROOT
HETATM    1  C1  STQ 9 616     -50.503 144.457  13.330  1.00 62.55    -0.018 C 
HETATM    2  C2  STQ 9 616     -50.805 144.935  14.749  1.00 62.55     0.045 C 
HETATM    3  C3  STQ 9 616     -50.119 146.205  15.242  1.00 62.55     0.123 C 
HETATM    4  C4  STQ 9 616     -49.914 147.194  14.111  1.00 62.55     0.066 C 
HETATM    5  C5  STQ 9 616     -49.088 146.496  13.065  1.00 62.55    -0.074 C 
HETATM    6  C6  STQ 9 616     -49.439 145.283  12.625  1.00 62.55    -0.048 C 
HETATM    7  C7  STQ 9 616     -48.796 144.740  11.406  1.00 62.55     0.009 C 
HETATM    8  C8  STQ 9 616     -47.685 144.012  11.474  1.00 62.55     0.007 C 
HETATM    9  C9  STQ 9 616     -47.038 143.476  10.270  1.00 62.55    -0.062 C 
HETATM   10  C10 STQ 9 616     -46.035 142.615  10.453  1.00 62.55     0.007 C 
HETATM   11  C11 STQ 9 616     -45.268 141.994   9.383  1.00 62.55     0.001 C 
HETATM   12  C12 STQ 9 616     -44.440 141.050   9.805  1.00 62.55     0.007 C 
HETATM   13  C13 STQ 9 616     -43.536 140.277   8.952  1.00 62.55    -0.062 C 
HETATM   14  C14 STQ 9 616     -42.749 139.354   9.536  1.00 62.55     0.007 C 
HETATM   15  C15 STQ 9 616     -41.795 138.496   8.838  1.00 62.55     0.001 C 
HETATM   16  C16 STQ 9 616     -51.823 144.454  12.556  1.00 62.55     0.020 C 
HETATM   17  C17 STQ 9 616     -49.990 143.026  13.410  1.00 62.55     0.020 C 
HETATM   18  C18 STQ 9 616     -48.276 147.439  12.224  1.00 62.55     0.044 C 
HETATM   19  C19 STQ 9 616     -47.494 143.890   8.904  1.00 62.55     0.048 C 
HETATM   20  C20 STQ 9 616     -43.527 140.564   7.489  1.00 62.55     0.048 C 
HETATM   21  O3  STQ 9 616     -50.926 146.812  16.258  1.00 62.55    -0.395 OA
ATOM     22  H3  STQ 9 616     -50.500 147.603  16.565  1.00  0.00     0.210 HD
HETATM   23  C21 STQ 9 616     -34.151 128.330   7.049  1.00 62.55    -0.035 C 
HETATM   24  C22 STQ 9 616     -33.290 127.567   6.047  1.00 62.55     0.045 C 
HETATM   25  C23 STQ 9 616     -31.787 127.739   6.233  1.00 62.55     0.142 C 
HETATM   26  C24 STQ 9 616     -31.436 129.176   6.539  1.00 62.55     0.007 C 
HETATM   27  C25 STQ 9 616     -32.258 129.966   7.244  1.00 62.55    -0.077 C 
HETATM   28  C26 STQ 9 616     -33.752 129.809   7.138  1.00 62.55     0.044 C 
HETATM   29  C27 STQ 9 616     -34.487 130.478   8.288  1.00 62.55    -0.016 C 
HETATM   30  C28 STQ 9 616     -35.243 131.547   8.037  1.00 62.55     0.003 C 
HETATM   31  C29 STQ 9 616     -36.021 132.257   9.074  1.00 62.55    -0.062 C 
HETATM   32  C30 STQ 9 616     -36.950 133.134   8.660  1.00 62.55     0.007 C 
HETATM   33  C31 STQ 9 616     -37.824 133.912   9.533  1.00 62.55     0.001 C 
HETATM   34  C32 STQ 9 616     -38.580 134.828   8.928  1.00 62.55     0.007 C 
HETATM   35  C33 STQ 9 616     -39.536 135.716   9.617  1.00 62.55    -0.062 C 
HETATM   36  C34 STQ 9 616     -40.197 136.650   8.909  1.00 62.55     0.007 C 
HETATM   37  C35 STQ 9 616     -41.160 137.553   9.540  1.00 62.55     0.001 C 
HETATM   38  C36 STQ 9 616     -34.087 127.654   8.416  1.00 62.55     0.016 C 
HETATM   39  C37 STQ 9 616     -35.584 128.246   6.546  1.00 62.55     0.016 C 
HETATM   40  C38 STQ 9 616     -31.660 131.011   8.139  1.00 62.55     0.044 C 
HETATM   41  C39 STQ 9 616     -35.787 132.003  10.533  1.00 62.55     0.048 C 
HETATM   42  C40 STQ 9 616     -39.762 135.560  11.089  1.00 62.55     0.048 C 
HETATM   43  O23 STQ 9 616     -31.135 127.345   5.019  1.00 62.55    -0.392 OA
ATOM     44  H23 STQ 9 616     -30.198 127.451   5.135  1.00  0.00     0.210 HD
ENDROOT
TORSDOF 12
