REMARK VINA RESULT:    -6.056      1.595      2.015
REMARK INTER + INTRA:          -9.143
REMARK INTER:                  -5.758
REMARK INTRA:                  -3.385
REMARK UNBOUND:                -3.087
REMARK  0 active torsions:
REMARK  status: ('A' for Active; 'I' for Inactive)
REMARK       I    between atoms: C3_3  and  O3_21 
REMARK       I    between atoms: C6_6  and  C7_7 
REMARK       I    between atoms: C8_8  and  C9_9 
REMARK       I    between atoms: C10_10  and  C11_11 
REMARK       I    between atoms: C12_12  and  C13_13 
REMARK       I    between atoms: C14_14  and  C15_15 
REMARK       I    between atoms: C23_25  and  O23_43 
REMARK       I    between atoms: C26_28  and  C27_29 
REMARK       I    between atoms: C28_30  and  C29_31 
REMARK       I    between atoms: C30_32  and  C31_33 
REMARK       I    between atoms: C32_34  and  C33_35 
REMARK       I    between atoms: C34_36  and  C35_37 
ROOT
HETATM    1  C1  STQ G1621     -34.650 128.451   6.281  1.00 57.09    -0.018 C 
HETATM    2  C2  STQ G1621     -33.791 128.121   5.068  1.00 57.09     0.045 C 
HETATM    3  C3  STQ G1621     -32.346 128.582   5.091  1.00 57.09     0.123 C 
HETATM    4  C4  STQ G1621     -31.773 128.466   6.486  1.00 57.09     0.066 C 
HETATM    5  C5  STQ G1621     -32.614 129.287   7.420  1.00 57.09    -0.074 C 
HETATM    6  C6  STQ G1621     -33.947 129.171   7.412  1.00 57.09    -0.048 C 
HETATM    7  C7  STQ G1621     -34.782 129.722   8.514  1.00 57.09     0.009 C 
HETATM    8  C8  STQ G1621     -35.117 131.015   8.567  1.00 57.09     0.007 C 
HETATM    9  C9  STQ G1621     -35.955 131.605   9.624  1.00 57.09    -0.062 C 
HETATM   10  C10 STQ G1621     -36.565 132.748   9.305  1.00 57.09     0.007 C 
HETATM   11  C11 STQ G1621     -37.469 133.521  10.147  1.00 57.09     0.001 C 
HETATM   12  C12 STQ G1621     -37.980 134.599   9.563  1.00 57.09     0.007 C 
HETATM   13  C13 STQ G1621     -38.946 135.508  10.198  1.00 57.09    -0.062 C 
HETATM   14  C14 STQ G1621     -39.318 136.613   9.538  1.00 57.09     0.007 C 
HETATM   15  C15 STQ G1621     -40.308 137.531  10.086  1.00 57.09     0.001 C 
HETATM   16  C16 STQ G1621     -35.255 127.142   6.766  1.00 57.09     0.020 C 
HETATM   17  C17 STQ G1621     -35.760 129.365   5.811  1.00 57.09     0.020 C 
HETATM   18  C18 STQ G1621     -31.848 129.698   8.642  1.00 57.09     0.044 C 
HETATM   19  C19 STQ G1621     -36.110 130.961  10.967  1.00 57.09     0.048 C 
HETATM   20  C20 STQ G1621     -39.531 135.167  11.532  1.00 57.09     0.048 C 
HETATM   21  O3  STQ G1621     -31.604 127.729   4.217  1.00 57.09    -0.395 OA
ATOM     22  H3  STQ G1621     -31.964 127.803   3.341  1.00  0.00     0.210 HD
HETATM   23  C21 STQ G1621     -48.572 147.293  10.512  1.00 57.09    -0.035 C 
HETATM   24  C22 STQ G1621     -49.582 148.135  11.273  1.00 57.09     0.045 C 
HETATM   25  C23 STQ G1621     -49.001 149.399  11.877  1.00 57.09     0.142 C 
HETATM   26  C24 STQ G1621     -47.701 149.113  12.580  1.00 57.09     0.007 C 
HETATM   27  C25 STQ G1621     -46.936 148.051  12.299  1.00 57.09    -0.077 C 
HETATM   28  C26 STQ G1621     -47.371 146.937  11.389  1.00 57.09     0.044 C 
HETATM   29  C27 STQ G1621     -46.189 146.467  10.567  1.00 57.09    -0.016 C 
HETATM   30  C28 STQ G1621     -45.840 145.190  10.651  1.00 57.09     0.003 C 
HETATM   31  C29 STQ G1621     -44.714 144.615   9.903  1.00 57.09    -0.062 C 
HETATM   32  C30 STQ G1621     -44.596 143.286   9.934  1.00 57.09     0.007 C 
HETATM   33  C31 STQ G1621     -43.540 142.553   9.254  1.00 57.09     0.001 C 
HETATM   34  C32 STQ G1621     -43.104 141.460   9.865  1.00 57.09     0.007 C 
HETATM   35  C33 STQ G1621     -42.049 140.618   9.300  1.00 57.09    -0.062 C 
HETATM   36  C34 STQ G1621     -41.738 139.458   9.883  1.00 57.09     0.007 C 
HETATM   37  C35 STQ G1621     -40.714 138.564   9.357  1.00 57.09     0.001 C 
HETATM   38  C36 STQ G1621     -48.146 148.012   9.235  1.00 57.09     0.016 C 
HETATM   39  C37 STQ G1621     -49.287 146.006  10.135  1.00 57.09     0.016 C 
HETATM   40  C38 STQ G1621     -45.593 147.962  12.945  1.00 57.09     0.044 C 
HETATM   41  C39 STQ G1621     -43.745 145.479   9.159  1.00 57.09     0.048 C 
HETATM   42  C40 STQ G1621     -41.340 141.104   8.089  1.00 57.09     0.048 C 
HETATM   43  O23 STQ G1621     -49.926 149.902  12.844  1.00 57.09    -0.392 OA
ATOM     44  H23 STQ G1621     -49.562 150.694  13.222  1.00  0.00     0.210 HD
ENDROOT
TORSDOF 12
