REMARK VINA RESULT:    -7.281      2.320     16.914
REMARK INTER + INTRA:         -10.833
REMARK INTER:                 -10.415
REMARK INTRA:                  -0.419
REMARK UNBOUND:                -3.552
REMARK  0 active torsions:
REMARK  status: ('A' for Active; 'I' for Inactive)
REMARK       I    between atoms: C3_3  and  O3_21 
REMARK       I    between atoms: C6_6  and  C7_7 
REMARK       I    between atoms: C8_8  and  C9_9 
REMARK       I    between atoms: C10_10  and  C11_11 
REMARK       I    between atoms: C12_12  and  C13_13 
REMARK       I    between atoms: C14_14  and  C15_15 
REMARK       I    between atoms: C23_25  and  O23_43 
REMARK       I    between atoms: C26_28  and  C27_29 
REMARK       I    between atoms: C28_30  and  C29_31 
REMARK       I    between atoms: C30_32  and  C31_33 
REMARK       I    between atoms: C32_34  and  C33_35 
REMARK       I    between atoms: C34_36  and  C35_37 
ROOT
HETATM    1  C1  STQ 3 622     -50.704 145.248  10.499  1.00 17.54    -0.018 C 
HETATM    2  C2  STQ 3 622     -51.205 145.538  11.904  1.00 17.54     0.045 C 
HETATM    3  C3  STQ 3 622     -51.115 146.973  12.414  1.00 17.54     0.123 C 
HETATM    4  C4  STQ 3 622     -49.963 147.787  11.842  1.00 17.54     0.066 C 
HETATM    5  C5  STQ 3 622     -49.005 146.983  11.002  1.00 17.54    -0.074 C 
HETATM    6  C6  STQ 3 622     -49.347 145.880  10.320  1.00 17.54    -0.048 C 
HETATM    7  C7  STQ 3 622     -48.402 145.285   9.345  1.00 17.54     0.009 C 
HETATM    8  C8  STQ 3 622     -47.586 144.279   9.650  1.00 17.54     0.007 C 
HETATM    9  C9  STQ 3 622     -46.662 143.729   8.641  1.00 17.54    -0.062 C 
HETATM   10  C10 STQ 3 622     -45.867 142.715   9.004  1.00 17.54     0.007 C 
HETATM   11  C11 STQ 3 622     -44.904 142.059   8.122  1.00 17.54     0.001 C 
HETATM   12  C12 STQ 3 622     -44.394 140.933   8.605  1.00 17.54     0.007 C 
HETATM   13  C13 STQ 3 622     -43.411 140.042   7.968  1.00 17.54    -0.062 C 
HETATM   14  C14 STQ 3 622     -42.927 139.055   8.733  1.00 17.54     0.007 C 
HETATM   15  C15 STQ 3 622     -41.964 138.073   8.263  1.00 17.54     0.001 C 
HETATM   16  C16 STQ 3 622     -51.691 145.709   9.427  1.00 17.54     0.020 C 
HETATM   17  C17 STQ 3 622     -50.585 143.741  10.376  1.00 17.54     0.020 C 
HETATM   18  C18 STQ 3 622     -47.745 147.712  10.691  1.00 17.54     0.044 C 
HETATM   19  C19 STQ 3 622     -46.625 144.291   7.255  1.00 17.54     0.048 C 
HETATM   20  C20 STQ 3 622     -42.971 140.213   6.546  1.00 17.54     0.048 C 
HETATM   21  O3  STQ 3 622     -52.347 147.636  12.112  1.00 17.54    -0.395 OA
ATOM     22  H3  STQ 3 622     -52.291 148.530  12.430  1.00  0.00     0.210 HD
HETATM   23  C21 STQ 3 622     -34.154 128.106   6.940  1.00 17.54    -0.035 C 
HETATM   24  C22 STQ 3 622     -33.288 127.353   5.938  1.00 17.54     0.045 C 
HETATM   25  C23 STQ 3 622     -31.824 127.762   5.926  1.00 17.54     0.142 C 
HETATM   26  C24 STQ 3 622     -31.644 129.254   6.067  1.00 17.54     0.007 C 
HETATM   27  C25 STQ 3 622     -32.570 130.051   6.616  1.00 17.54    -0.077 C 
HETATM   28  C26 STQ 3 622     -34.006 129.622   6.765  1.00 17.54     0.044 C 
HETATM   29  C27 STQ 3 622     -34.671 130.353   7.916  1.00 17.54    -0.016 C 
HETATM   30  C28 STQ 3 622     -35.689 131.163   7.651  1.00 17.54     0.003 C 
HETATM   31  C29 STQ 3 622     -36.399 131.901   8.705  1.00 17.54    -0.062 C 
HETATM   32  C30 STQ 3 622     -37.443 132.639   8.321  1.00 17.54     0.007 C 
HETATM   33  C31 STQ 3 622     -38.266 133.436   9.217  1.00 17.54     0.001 C 
HETATM   34  C32 STQ 3 622     -39.002 134.364   8.622  1.00 17.54     0.007 C 
HETATM   35  C33 STQ 3 622     -39.904 135.283   9.332  1.00 17.54    -0.062 C 
HETATM   36  C34 STQ 3 622     -40.595 136.147   8.579  1.00 17.54     0.007 C 
HETATM   37  C35 STQ 3 622     -41.536 137.129   9.094  1.00 17.54     0.001 C 
HETATM   38  C36 STQ 3 622     -33.841 127.672   8.370  1.00 17.54     0.016 C 
HETATM   39  C37 STQ 3 622     -35.596 127.716   6.650  1.00 17.54     0.016 C 
HETATM   40  C38 STQ 3 622     -32.142 131.412   7.074  1.00 17.54     0.044 C 
HETATM   41  C39 STQ 3 622     -35.965 131.818  10.136  1.00 17.54     0.048 C 
HETATM   42  C40 STQ 3 622     -40.031 135.251  10.823  1.00 17.54     0.048 C 
HETATM   43  O23 STQ 3 622     -31.233 127.361   4.685  1.00 17.54    -0.392 OA
ATOM     44  H23 STQ 3 622     -30.319 127.618   4.678  1.00  0.00     0.210 HD
ENDROOT
TORSDOF 12
