REMARK VINA RESULT:    -6.833      1.397     16.740
REMARK INTER + INTRA:          -9.632
REMARK INTER:                  -9.286
REMARK INTRA:                  -0.346
REMARK UNBOUND:                -2.799
REMARK  0 active torsions:
REMARK  status: ('A' for Active; 'I' for Inactive)
REMARK       I    between atoms: C3_3  and  O3_21 
REMARK       I    between atoms: C6_6  and  C7_7 
REMARK       I    between atoms: C8_8  and  C9_9 
REMARK       I    between atoms: C10_10  and  C11_11 
REMARK       I    between atoms: C12_12  and  C13_13 
REMARK       I    between atoms: C14_14  and  C15_15 
REMARK       I    between atoms: C23_25  and  O23_43 
REMARK       I    between atoms: C26_28  and  C27_29 
REMARK       I    between atoms: C28_30  and  C29_31 
REMARK       I    between atoms: C30_32  and  C31_33 
REMARK       I    between atoms: C32_34  and  C33_35 
REMARK       I    between atoms: C34_36  and  C35_37 
ROOT
HETATM    1  C1  STQ N1620     -50.315 144.466  12.866  1.00 57.79    -0.018 C 
HETATM    2  C2  STQ N1620     -51.167 145.108  13.947  1.00 59.26     0.045 C 
HETATM    3  C3  STQ N1620     -50.354 145.772  15.036  1.00 62.25     0.123 C 
HETATM    4  C4  STQ N1620     -49.511 146.860  14.423  1.00 57.83     0.066 C 
HETATM    5  C5  STQ N1620     -48.689 146.339  13.278  1.00 54.66    -0.074 C 
HETATM    6  C6  STQ N1620     -49.046 145.255  12.553  1.00 55.29    -0.048 C 
HETATM    7  C7  STQ N1620     -48.226 144.833  11.387  1.00 55.61     0.009 C 
HETATM    8  C8  STQ N1620     -47.154 144.047  11.501  1.00 56.19     0.007 C 
HETATM    9  C9  STQ N1620     -46.349 143.625  10.357  1.00 61.49    -0.062 C 
HETATM   10  C10 STQ N1620     -45.363 142.780  10.641  1.00 57.47     0.007 C 
HETATM   11  C11 STQ N1620     -44.450 142.222   9.668  1.00 53.29     0.001 C 
HETATM   12  C12 STQ N1620     -43.635 141.318  10.178  1.00 52.45     0.007 C 
HETATM   13  C13 STQ N1620     -42.658 140.607   9.360  1.00 52.04    -0.062 C 
HETATM   14  C14 STQ N1620     -42.074 139.548   9.919  1.00 54.29     0.007 C 
HETATM   15  C15 STQ N1620     -41.114 138.720   9.219  1.00 53.12     0.001 C 
HETATM   16  C16 STQ N1620     -51.241 144.286  11.668  1.00 58.39     0.020 C 
HETATM   17  C17 STQ N1620     -49.883 143.087  13.338  1.00 64.45     0.020 C 
HETATM   18  C18 STQ N1620     -47.463 147.162  13.007  1.00 58.11     0.044 C 
HETATM   19  C19 STQ N1620     -46.617 144.139   8.973  1.00 70.55     0.048 C 
HETATM   20  C20 STQ N1620     -42.362 141.047   7.962  1.00 53.04     0.048 C 
HETATM   21  O3  STQ N1620     -51.229 146.371  15.994  1.00 65.91    -0.395 OA
ATOM     22  H3  STQ N1620     -50.719 146.788  16.678  1.00  0.00     0.210 HD
HETATM   23  C21 STQ N1620     -34.208 128.390   6.960  1.00 70.84    -0.035 C 
HETATM   24  C22 STQ N1620     -33.368 127.598   5.971  1.00 74.16     0.045 C 
HETATM   25  C23 STQ N1620     -31.864 127.740   6.146  1.00 78.08     0.142 C 
HETATM   26  C24 STQ N1620     -31.452 129.150   6.466  1.00 81.23     0.007 C 
HETATM   27  C25 STQ N1620     -32.302 130.079   6.906  1.00 73.41    -0.077 C 
HETATM   28  C26 STQ N1620     -33.789 129.863   6.997  1.00 72.81     0.044 C 
HETATM   29  C27 STQ N1620     -34.351 130.545   8.227  1.00 72.75    -0.016 C 
HETATM   30  C28 STQ N1620     -35.189 131.555   8.038  1.00 71.34     0.003 C 
HETATM   31  C29 STQ N1620     -35.814 132.282   9.144  1.00 71.47    -0.062 C 
HETATM   32  C30 STQ N1620     -36.776 133.134   8.800  1.00 69.97     0.007 C 
HETATM   33  C31 STQ N1620     -37.549 133.937   9.726  1.00 65.68     0.001 C 
HETATM   34  C32 STQ N1620     -38.328 134.826   9.139  1.00 62.75     0.007 C 
HETATM   35  C33 STQ N1620     -39.218 135.717   9.887  1.00 61.08    -0.062 C 
HETATM   36  C34 STQ N1620     -39.803 136.706   9.211  1.00 59.90     0.007 C 
HETATM   37  C35 STQ N1620     -40.734 137.618   9.848  1.00 55.64     0.001 C 
HETATM   38  C36 STQ N1620     -34.148 127.730   8.336  1.00 73.25     0.016 C 
HETATM   39  C37 STQ N1620     -35.645 128.307   6.469  1.00 71.17     0.016 C 
HETATM   40  C38 STQ N1620     -31.728 131.398   7.291  1.00 74.91     0.044 C 
HETATM   41  C39 STQ N1620     -35.399 132.068  10.566  1.00 74.91     0.048 C 
HETATM   42  C40 STQ N1620     -39.469 135.490  11.345  1.00 55.73     0.048 C 
HETATM   43  O23 STQ N1620     -31.211 127.353   4.933  1.00 76.53    -0.392 OA
ATOM     44  H23 STQ N1620     -31.472 126.462   4.731  1.00  0.00     0.210 HD
ENDROOT
TORSDOF 12
