REMARK VINA RESULT:    -5.268      1.217     17.312
REMARK INTER + INTRA:          -7.781
REMARK INTER:                  -7.423
REMARK INTRA:                  -0.358
REMARK UNBOUND:                -2.513
REMARK  0 active torsions:
REMARK  status: ('A' for Active; 'I' for Inactive)
REMARK       I    between atoms: C3_3  and  O3_21 
REMARK       I    between atoms: C6_6  and  C7_7 
REMARK       I    between atoms: C8_8  and  C9_9 
REMARK       I    between atoms: C10_10  and  C11_11 
REMARK       I    between atoms: C12_12  and  C13_13 
REMARK       I    between atoms: C14_14  and  C15_15 
REMARK       I    between atoms: C23_25  and  O23_43 
REMARK       I    between atoms: C26_28  and  C27_29 
REMARK       I    between atoms: C28_30  and  C29_31 
REMARK       I    between atoms: C30_32  and  C31_33 
REMARK       I    between atoms: C32_34  and  C33_35 
REMARK       I    between atoms: C34_36  and  C35_37 
ROOT
HETATM    1  C1  STQ F5621     -49.744 146.755  12.075  1.00 20.77    -0.018 C 
HETATM    2  C2  STQ F5621     -50.618 147.087  13.295  1.00 19.21     0.045 C 
HETATM    3  C3  STQ F5621     -50.157 148.126  14.315  1.00 20.68     0.123 C 
HETATM    4  C4  STQ F5621     -48.788 148.760  14.047  1.00 17.77     0.066 C 
HETATM    5  C5  STQ F5621     -47.884 148.237  12.978  1.00 19.05    -0.074 C 
HETATM    6  C6  STQ F5621     -48.281 147.305  12.038  1.00 19.48    -0.048 C 
HETATM    7  C7  STQ F5621     -47.411 146.750  10.966  1.00 16.56     0.009 C 
HETATM    8  C8  STQ F5621     -46.491 145.764  11.136  1.00 15.55     0.007 C 
HETATM    9  C9  STQ F5621     -45.561 145.178  10.158  1.00 14.22    -0.062 C 
HETATM   10  C10 STQ F5621     -44.830 144.110  10.549  1.00 14.29     0.007 C 
HETATM   11  C11 STQ F5621     -43.930 143.328   9.736  1.00 14.32     0.001 C 
HETATM   12  C12 STQ F5621     -43.323 142.208  10.199  1.00 14.19     0.007 C 
HETATM   13  C13 STQ F5621     -42.458 141.259   9.447  1.00 15.26    -0.062 C 
HETATM   14  C14 STQ F5621     -41.992 140.171  10.100  1.00 15.45     0.007 C 
HETATM   15  C15 STQ F5621     -41.193 139.100   9.554  1.00 16.70     0.001 C 
HETATM   16  C16 STQ F5621     -50.550 147.324  10.881  1.00 20.67     0.020 C 
HETATM   17  C17 STQ F5621     -49.749 145.216  11.957  1.00 19.98     0.020 C 
HETATM   18  C18 STQ F5621     -46.553 148.890  13.118  1.00 17.40     0.044 C 
HETATM   19  C19 STQ F5621     -45.549 145.751   8.775  1.00 13.40     0.048 C 
HETATM   20  C20 STQ F5621     -42.189 141.548   7.998  1.00 11.87     0.048 C 
HETATM   21  O3  STQ F5621     -51.150 149.133  14.485  1.00 20.33    -0.395 OA
ATOM     22  H3  STQ F5621     -50.863 149.779  15.120  1.00  0.00     0.210 HD
HETATM   23  C21 STQ F5621     -34.221 128.507   7.017  1.00 22.54    -0.035 C 
HETATM   24  C22 STQ F5621     -33.341 127.565   6.161  1.00 22.10     0.045 C 
HETATM   25  C23 STQ F5621     -31.830 127.695   6.392  1.00 22.88     0.142 C 
HETATM   26  C24 STQ F5621     -31.363 129.146   6.596  1.00 23.28     0.007 C 
HETATM   27  C25 STQ F5621     -32.237 130.149   6.864  1.00 24.20    -0.077 C 
HETATM   28  C26 STQ F5621     -33.755 129.998   6.991  1.00 21.98     0.044 C 
HETATM   29  C27 STQ F5621     -34.294 130.837   8.143  1.00 22.14    -0.016 C 
HETATM   30  C28 STQ F5621     -35.294 131.747   8.049  1.00 22.19     0.003 C 
HETATM   31  C29 STQ F5621     -35.980 132.427   9.156  1.00 22.13    -0.062 C 
HETATM   32  C30 STQ F5621     -36.931 133.340   8.863  1.00 22.11     0.007 C 
HETATM   33  C31 STQ F5621     -37.709 134.103   9.816  1.00 21.40     0.001 C 
HETATM   34  C32 STQ F5621     -38.504 135.130   9.440  1.00 17.66     0.007 C 
HETATM   35  C33 STQ F5621     -39.309 136.026  10.283  1.00 16.53    -0.062 C 
HETATM   36  C34 STQ F5621     -39.936 137.056   9.673  1.00 14.90     0.007 C 
HETATM   37  C35 STQ F5621     -40.730 138.083  10.290  1.00 15.48     0.001 C 
HETATM   38  C36 STQ F5621     -34.212 127.946   8.466  1.00 21.25     0.016 C 
HETATM   39  C37 STQ F5621     -35.668 128.410   6.501  1.00 21.27     0.016 C 
HETATM   40  C38 STQ F5621     -31.578 131.471   7.013  1.00 22.66     0.044 C 
HETATM   41  C39 STQ F5621     -35.532 132.117  10.550  1.00 22.70     0.048 C 
HETATM   42  C40 STQ F5621     -39.316 135.781  11.764  1.00 12.92     0.048 C 
HETATM   43  O23 STQ F5621     -31.123 127.088   5.321  1.00 22.94    -0.392 OA
ATOM     44  H23 STQ F5621     -30.187 127.169   5.464  1.00  0.00     0.210 HD
ENDROOT
TORSDOF 12
