REMARK VINA RESULT:    -7.860      0.967     17.310
REMARK INTER + INTRA:          -8.069
REMARK INTER:                  -7.343
REMARK INTRA:                  -0.726
REMARK UNBOUND:                -0.210
REMARK  0 active torsions:
REMARK  status: ('A' for Active; 'I' for Inactive)
REMARK       I    between atoms: C3_3  and  O3_21 
REMARK       I    between atoms: C6_6  and  C7_7 
REMARK       I    between atoms: C8_8  and  C9_9 
REMARK       I    between atoms: C10_10  and  C11_11 
REMARK       I    between atoms: C12_12  and  C13_13 
REMARK       I    between atoms: C14_14  and  C15_15 
REMARK       I    between atoms: C23_25  and  O23_43 
REMARK       I    between atoms: C26_28  and  C27_29 
REMARK       I    between atoms: C28_30  and  C29_31 
REMARK       I    between atoms: C30_32  and  C31_33 
REMARK       I    between atoms: C32_34  and  C33_35 
REMARK       I    between atoms: C34_36  and  C35_37 
ROOT
HETATM    1  C1  STQ G6621     -50.782 146.038  11.599  1.00 23.69    -0.018 C 
HETATM    2  C2  STQ G6621     -51.716 146.547  12.708  1.00 24.09     0.045 C 
HETATM    3  C3  STQ G6621     -51.228 147.601  13.698  1.00 24.28     0.123 C 
HETATM    4  C4  STQ G6621     -49.929 148.311  13.290  1.00 23.79     0.066 C 
HETATM    5  C5  STQ G6621     -49.018 147.731  12.251  1.00 23.83    -0.074 C 
HETATM    6  C6  STQ G6621     -49.372 146.686  11.438  1.00 23.66    -0.048 C 
HETATM    7  C7  STQ G6621     -48.523 146.087  10.374  1.00 22.83     0.009 C 
HETATM    8  C8  STQ G6621     -47.513 145.206  10.583  1.00 20.24     0.007 C 
HETATM    9  C9  STQ G6621     -46.638 144.573   9.589  1.00 21.52    -0.062 C 
HETATM   10  C10 STQ G6621     -45.781 143.621  10.025  1.00 20.57     0.007 C 
HETATM   11  C11 STQ G6621     -44.917 142.808   9.205  1.00 19.35     0.001 C 
HETATM   12  C12 STQ G6621     -44.162 141.806   9.703  1.00 20.67     0.007 C 
HETATM   13  C13 STQ G6621     -43.329 140.854   8.944  1.00 22.18    -0.062 C 
HETATM   14  C14 STQ G6621     -42.664 139.899   9.631  1.00 21.93     0.007 C 
HETATM   15  C15 STQ G6621     -41.829 138.856   9.084  1.00 21.89     0.001 C 
HETATM   16  C16 STQ G6621     -51.635 146.282  10.334  1.00 22.02     0.020 C 
HETATM   17  C17 STQ G6621     -50.647 144.518  11.822  1.00 22.09     0.020 C 
HETATM   18  C18 STQ G6621     -47.746 148.498  12.215  1.00 25.09     0.044 C 
HETATM   19  C19 STQ G6621     -46.817 144.962   8.140  1.00 16.21     0.048 C 
HETATM   20  C20 STQ G6621     -43.296 140.989   7.446  1.00 20.93     0.048 C 
HETATM   21  O3  STQ G6621     -52.259 148.549  13.955  1.00 23.32    -0.395 OA
ATOM     22  H3  STQ G6621     -51.956 149.205  14.572  1.00  0.00     0.210 HD
HETATM   23  C21 STQ G6621     -34.184 128.638   7.170  1.00 19.02    -0.035 C 
HETATM   24  C22 STQ G6621     -33.325 127.675   6.323  1.00 18.22     0.045 C 
HETATM   25  C23 STQ G6621     -31.815 127.890   6.464  1.00 19.51     0.142 C 
HETATM   26  C24 STQ G6621     -31.408 129.375   6.508  1.00 18.29     0.007 C 
HETATM   27  C25 STQ G6621     -32.311 130.357   6.755  1.00 19.71    -0.077 C 
HETATM   28  C26 STQ G6621     -33.804 130.141   7.004  1.00 19.08     0.044 C 
HETATM   29  C27 STQ G6621     -34.328 131.012   8.132  1.00 19.58    -0.016 C 
HETATM   30  C28 STQ G6621     -35.395 131.824   8.014  1.00 20.67     0.003 C 
HETATM   31  C29 STQ G6621     -36.078 132.560   9.071  1.00 21.92    -0.062 C 
HETATM   32  C30 STQ G6621     -37.107 133.365   8.727  1.00 23.00     0.007 C 
HETATM   33  C31 STQ G6621     -37.888 134.188   9.620  1.00 23.88     0.001 C 
HETATM   34  C32 STQ G6621     -38.785 135.102   9.176  1.00 22.59     0.007 C 
HETATM   35  C33 STQ G6621     -39.605 136.025   9.967  1.00 21.40    -0.062 C 
HETATM   36  C34 STQ G6621     -40.353 136.929   9.297  1.00 20.55     0.007 C 
HETATM   37  C35 STQ G6621     -41.184 137.966   9.853  1.00 21.49     0.001 C 
HETATM   38  C36 STQ G6621     -34.055 128.210   8.663  1.00 19.20     0.016 C 
HETATM   39  C37 STQ G6621     -35.646 128.422   6.748  1.00 16.30     0.016 C 
HETATM   40  C38 STQ G6621     -31.765 131.742   6.752  1.00 16.85     0.044 C 
HETATM   41  C39 STQ G6621     -35.543 132.432  10.466  1.00 23.01     0.048 C 
HETATM   42  C40 STQ G6621     -39.499 135.948  11.461  1.00 20.32     0.048 C 
HETATM   43  O23 STQ G6621     -31.129 127.203   5.425  1.00 20.61    -0.392 OA
ATOM     44  H23 STQ G6621     -31.380 126.287   5.399  1.00  0.00     0.210 HD
ENDROOT
TORSDOF 12
