REMARK VINA RESULT:    -7.890      1.551     16.600
REMARK INTER + INTRA:          -8.892
REMARK INTER:                  -6.649
REMARK INTRA:                  -2.244
REMARK UNBOUND:                -1.002
REMARK  0 active torsions:
REMARK  status: ('A' for Active; 'I' for Inactive)
REMARK       I    between atoms: C3_3  and  O3_21 
REMARK       I    between atoms: C6_6  and  C7_7 
REMARK       I    between atoms: C8_8  and  C9_9 
REMARK       I    between atoms: C10_10  and  C11_11 
REMARK       I    between atoms: C12_12  and  C13_13 
REMARK       I    between atoms: C14_14  and  C15_15 
REMARK       I    between atoms: C23_25  and  O23_43 
REMARK       I    between atoms: C26_28  and  C27_29 
REMARK       I    between atoms: C28_30  and  C29_31 
REMARK       I    between atoms: C30_32  and  C31_33 
REMARK       I    between atoms: C32_34  and  C33_35 
REMARK       I    between atoms: C34_36  and  C35_37 
ROOT
HETATM    1  C1  STQ 3 618     -33.720 129.201   7.043  1.00 32.96    -0.018 C 
HETATM    2  C2  STQ 3 618     -32.934 129.827   5.892  1.00 32.96     0.045 C 
HETATM    3  C3  STQ 3 618     -31.762 130.713   6.295  1.00 32.96     0.123 C 
HETATM    4  C4  STQ 3 618     -31.241 130.313   7.659  1.00 32.96     0.066 C 
HETATM    5  C5  STQ 3 618     -32.363 130.479   8.643  1.00 32.96    -0.074 C 
HETATM    6  C6  STQ 3 618     -33.537 129.904   8.363  1.00 32.96    -0.048 C 
HETATM    7  C7  STQ 3 618     -34.736 130.148   9.175  1.00 32.96     0.009 C 
HETATM    8  C8  STQ 3 618     -34.944 131.444   9.411  1.00 32.96     0.007 C 
HETATM    9  C9  STQ 3 618     -36.196 131.918  10.021  1.00 32.96    -0.062 C 
HETATM   10  C10 STQ 3 618     -36.486 133.217   9.849  1.00 32.96     0.007 C 
HETATM   11  C11 STQ 3 618     -37.741 133.826  10.274  1.00 32.96     0.001 C 
HETATM   12  C12 STQ 3 618     -38.040 135.062   9.884  1.00 32.96     0.007 C 
HETATM   13  C13 STQ 3 618     -39.340 135.671  10.224  1.00 32.96    -0.062 C 
HETATM   14  C14 STQ 3 618     -39.662 136.831   9.628  1.00 32.96     0.007 C 
HETATM   15  C15 STQ 3 618     -40.918 137.548   9.838  1.00 32.96     0.001 C 
HETATM   16  C16 STQ 3 618     -33.219 127.780   7.269  1.00 32.96     0.020 C 
HETATM   17  C17 STQ 3 618     -35.204 129.169   6.705  1.00 32.96     0.020 C 
HETATM   18  C18 STQ 3 618     -31.994 131.026   9.998  1.00 32.96     0.044 C 
HETATM   19  C19 STQ 3 618     -37.094 130.948  10.735  1.00 32.96     0.048 C 
HETATM   20  C20 STQ 3 618     -40.244 134.953  11.178  1.00 32.96     0.048 C 
HETATM   21  O3  STQ 3 618     -30.700 130.566   5.348  1.00 32.96    -0.395 OA
ATOM     22  H3  STQ 3 618     -29.968 131.118   5.599  1.00  0.00     0.210 HD
HETATM   23  C21 STQ 3 618     -50.111 146.128   8.811  1.00 32.96    -0.035 C 
HETATM   24  C22 STQ 3 618     -51.454 146.482   9.405  1.00 32.96     0.045 C 
HETATM   25  C23 STQ 3 618     -51.439 147.855  10.043  1.00 32.96     0.142 C 
HETATM   26  C24 STQ 3 618     -50.204 148.052  10.886  1.00 32.96     0.007 C 
HETATM   27  C25 STQ 3 618     -49.146 147.232  10.838  1.00 32.96    -0.077 C 
HETATM   28  C26 STQ 3 618     -49.087 146.042   9.927  1.00 32.96     0.044 C 
HETATM   29  C27 STQ 3 618     -47.717 145.860   9.325  1.00 32.96    -0.016 C 
HETATM   30  C28 STQ 3 618     -47.109 144.702   9.538  1.00 32.96     0.003 C 
HETATM   31  C29 STQ 3 618     -45.787 144.385   8.989  1.00 32.96    -0.062 C 
HETATM   32  C30 STQ 3 618     -45.350 143.145   9.248  1.00 32.96     0.007 C 
HETATM   33  C31 STQ 3 618     -44.079 142.587   8.816  1.00 32.96     0.001 C 
HETATM   34  C32 STQ 3 618     -43.806 141.346   9.203  1.00 32.96     0.007 C 
HETATM   35  C33 STQ 3 618     -42.541 140.677   8.864  1.00 32.96    -0.062 C 
HETATM   36  C34 STQ 3 618     -42.322 139.465   9.403  1.00 32.96     0.007 C 
HETATM   37  C35 STQ 3 618     -41.101 138.695   9.200  1.00 32.96     0.001 C 
HETATM   38  C36 STQ 3 618     -49.714 147.148   7.756  1.00 32.96     0.016 C 
HETATM   39  C37 STQ 3 618     -50.236 144.764   8.157  1.00 32.96     0.016 C 
HETATM   40  C38 STQ 3 618     -48.009 147.500  11.769  1.00 32.96     0.044 C 
HETATM   41  C39 STQ 3 618     -45.049 145.405   8.178  1.00 32.96     0.048 C 
HETATM   42  C40 STQ 3 618     -41.583 141.389   7.962  1.00 32.96     0.048 C 
HETATM   43  O23 STQ 3 618     -52.597 147.975  10.870  1.00 32.96    -0.392 OA
ATOM     44  H23 STQ 3 618     -52.588 148.836  11.270  1.00  0.00     0.210 HD
ENDROOT
TORSDOF 12
