REMARK VINA RESULT:   -10.972      0.000      0.000
REMARK INTER + INTRA:         -13.560
REMARK INTER:                 -10.972
REMARK INTRA:                  -2.588
REMARK UNBOUND:                -2.588
REMARK  0 active torsions:
REMARK  status: ('A' for Active; 'I' for Inactive)
REMARK       I    between atoms: C3_3  and  O3_21 
REMARK       I    between atoms: C6_6  and  C7_7 
REMARK       I    between atoms: C8_8  and  C9_9 
REMARK       I    between atoms: C10_10  and  C11_11 
REMARK       I    between atoms: C12_12  and  C13_13 
REMARK       I    between atoms: C14_14  and  C15_15 
REMARK       I    between atoms: C23_25  and  O23_43 
REMARK       I    between atoms: C26_28  and  C27_29 
REMARK       I    between atoms: C28_30  and  C29_31 
REMARK       I    between atoms: C30_32  and  C31_33 
REMARK       I    between atoms: C32_34  and  C33_35 
REMARK       I    between atoms: C34_36  and  C35_37 
ROOT
HETATM    1  C1  STQ U1620     -33.679 129.194   7.050  1.00 22.99    -0.018 C 
HETATM    2  C2  STQ U1620     -32.869 129.894   5.979  1.00 22.99     0.045 C 
HETATM    3  C3  STQ U1620     -32.114 131.098   6.473  1.00 22.99     0.123 C 
HETATM    4  C4  STQ U1620     -31.223 130.599   7.575  1.00 22.99     0.066 C 
HETATM    5  C5  STQ U1620     -32.056 130.065   8.693  1.00 22.99    -0.074 C 
HETATM    6  C6  STQ U1620     -33.284 129.626   8.446  1.00 22.99    -0.048 C 
HETATM    7  C7  STQ U1620     -34.361 129.912   9.386  1.00 22.99     0.009 C 
HETATM    8  C8  STQ U1620     -34.813 131.140   9.113  1.00 22.99     0.007 C 
HETATM    9  C9  STQ U1620     -35.911 131.790   9.851  1.00 22.99    -0.062 C 
HETATM   10  C10 STQ U1620     -36.299 133.009   9.438  1.00 22.99     0.007 C 
HETATM   11  C11 STQ U1620     -37.393 133.748  10.052  1.00 22.99     0.001 C 
HETATM   12  C12 STQ U1620     -37.765 134.924   9.560  1.00 22.99     0.007 C 
HETATM   13  C13 STQ U1620     -38.913 135.626  10.145  1.00 22.99    -0.062 C 
HETATM   14  C14 STQ U1620     -39.344 136.718   9.507  1.00 22.99     0.007 C 
HETATM   15  C15 STQ U1620     -40.510 137.506   9.880  1.00 22.99     0.001 C 
HETATM   16  C16 STQ U1620     -33.494 127.713   6.789  1.00 22.99     0.020 C 
HETATM   17  C17 STQ U1620     -35.143 129.549   6.854  1.00 22.99     0.020 C 
HETATM   18  C18 STQ U1620     -31.696 130.915   9.869  1.00 22.99     0.044 C 
HETATM   19  C19 STQ U1620     -36.555 131.083  11.005  1.00 22.99     0.048 C 
HETATM   20  C20 STQ U1620     -39.578 135.039  11.347  1.00 22.99     0.048 C 
HETATM   21  O3  STQ U1620     -31.288 131.588   5.426  1.00 22.99    -0.395 OA
ATOM     22  H3  STQ U1620     -30.811 132.348   5.738  1.00  0.00     0.210 HD
HETATM   23  C21 STQ U1620     -50.203 145.504   8.595  1.00 22.99    -0.035 C 
HETATM   24  C22 STQ U1620     -51.540 145.752   9.250  1.00 22.99     0.045 C 
HETATM   25  C23 STQ U1620     -51.692 147.195   9.690  1.00 22.99     0.142 C 
HETATM   26  C24 STQ U1620     -50.382 147.820  10.114  1.00 22.99     0.007 C 
HETATM   27  C25 STQ U1620     -49.204 147.170  10.111  1.00 22.99    -0.077 C 
HETATM   28  C26 STQ U1620     -49.081 145.768   9.592  1.00 22.99     0.044 C 
HETATM   29  C27 STQ U1620     -47.787 145.445   8.873  1.00 22.99    -0.016 C 
HETATM   30  C28 STQ U1620     -47.046 144.414   9.280  1.00 22.99     0.003 C 
HETATM   31  C29 STQ U1620     -45.809 143.989   8.592  1.00 22.99    -0.062 C 
HETATM   32  C30 STQ U1620     -45.236 142.867   9.061  1.00 22.99     0.007 C 
HETATM   33  C31 STQ U1620     -44.032 142.232   8.528  1.00 22.99     0.001 C 
HETATM   34  C32 STQ U1620     -43.588 141.121   9.115  1.00 22.99     0.007 C 
HETATM   35  C33 STQ U1620     -42.384 140.404   8.658  1.00 22.99    -0.062 C 
HETATM   36  C34 STQ U1620     -42.010 139.329   9.372  1.00 22.99     0.007 C 
HETATM   37  C35 STQ U1620     -40.840 138.510   9.077  1.00 22.99     0.001 C 
HETATM   38  C36 STQ U1620     -50.079 146.383   7.362  1.00 22.99     0.016 C 
HETATM   39  C37 STQ U1620     -50.180 144.059   8.123  1.00 22.99     0.016 C 
HETATM   40  C38 STQ U1620     -48.015 147.843  10.720  1.00 22.99     0.044 C 
HETATM   41  C39 STQ U1620     -45.301 144.763   7.410  1.00 22.99     0.048 C 
HETATM   42  C40 STQ U1620     -41.665 140.881   7.432  1.00 22.99     0.048 C 
HETATM   43  O23 STQ U1620     -52.600 147.227  10.796  1.00 22.99    -0.392 OA
ATOM     44  H23 STQ U1620     -52.695 148.131  11.072  1.00  0.00     0.210 HD
ENDROOT
TORSDOF 12
