REMARK VINA RESULT:   -10.744      0.000      0.000
REMARK INTER + INTRA:         -13.280
REMARK INTER:                 -10.744
REMARK INTRA:                  -2.536
REMARK UNBOUND:                -2.536
REMARK  0 active torsions:
REMARK  status: ('A' for Active; 'I' for Inactive)
REMARK       I    between atoms: C3_3  and  O3_21 
REMARK       I    between atoms: C6_6  and  C7_7 
REMARK       I    between atoms: C8_8  and  C9_9 
REMARK       I    between atoms: C10_10  and  C11_11 
REMARK       I    between atoms: C12_12  and  C13_13 
REMARK       I    between atoms: C14_14  and  C15_15 
REMARK       I    between atoms: C23_25  and  O23_43 
REMARK       I    between atoms: C26_28  and  C27_29 
REMARK       I    between atoms: C28_30  and  C29_31 
REMARK       I    between atoms: C30_32  and  C31_33 
REMARK       I    between atoms: C32_34  and  C33_35 
REMARK       I    between atoms: C34_36  and  C35_37 
ROOT
HETATM    1  C1  STQ 6 624     -34.261 127.346   6.602  1.00 25.46    -0.018 C 
HETATM    2  C2  STQ 6 624     -33.693 126.774   5.306  1.00 25.46     0.045 C 
HETATM    3  C3  STQ 6 624     -32.540 127.527   4.664  1.00 25.46     0.123 C 
HETATM    4  C4  STQ 6 624     -31.600 128.045   5.728  1.00 25.46     0.066 C 
HETATM    5  C5  STQ 6 624     -32.386 128.969   6.610  1.00 25.46    -0.074 C 
HETATM    6  C6  STQ 6 624     -33.551 128.578   7.137  1.00 25.46    -0.048 C 
HETATM    7  C7  STQ 6 624     -34.152 129.312   8.287  1.00 25.46     0.009 C 
HETATM    8  C8  STQ 6 624     -34.925 130.388   8.113  1.00 25.46     0.007 C 
HETATM    9  C9  STQ 6 624     -35.561 131.162   9.201  1.00 25.46    -0.062 C 
HETATM   10  C10 STQ 6 624     -36.342 132.192   8.845  1.00 25.46     0.007 C 
HETATM   11  C11 STQ 6 624     -37.090 133.090   9.719  1.00 25.46     0.001 C 
HETATM   12  C12 STQ 6 624     -37.708 134.089   9.093  1.00 25.46     0.007 C 
HETATM   13  C13 STQ 6 624     -38.565 135.109   9.726  1.00 25.46    -0.062 C 
HETATM   14  C14 STQ 6 624     -39.302 135.887   8.917  1.00 25.46     0.007 C 
HETATM   15  C15 STQ 6 624     -40.229 136.888   9.432  1.00 25.46     0.001 C 
HETATM   16  C16 STQ 6 624     -34.279 126.217   7.628  1.00 25.46     0.020 C 
HETATM   17  C17 STQ 6 624     -35.684 127.781   6.317  1.00 25.46     0.020 C 
HETATM   18  C18 STQ 6 624     -31.477 129.930   7.308  1.00 25.46     0.044 C 
HETATM   19  C19 STQ 6 624     -35.342 130.811  10.640  1.00 25.46     0.048 C 
HETATM   20  C20 STQ 6 624     -38.626 135.261  11.216  1.00 25.46     0.048 C 
HETATM   21  O3  STQ 6 624     -31.831 126.624   3.811  1.00 25.46    -0.395 OA
ATOM     22  H3  STQ 6 624     -32.422 126.298   3.142  1.00  0.00     0.210 HD
HETATM   23  C21 STQ 6 624     -49.853 145.614   9.910  1.00 25.46    -0.035 C 
HETATM   24  C22 STQ 6 624     -50.757 146.307  10.925  1.00 25.46     0.045 C 
HETATM   25  C23 STQ 6 624     -50.093 147.424  11.721  1.00 25.46     0.142 C 
HETATM   26  C24 STQ 6 624     -48.694 147.057  12.139  1.00 25.46     0.007 C 
HETATM   27  C25 STQ 6 624     -47.926 146.284  11.369  1.00 25.46    -0.077 C 
HETATM   28  C26 STQ 6 624     -48.533 145.175  10.553  1.00 25.46     0.044 C 
HETATM   29  C27 STQ 6 624     -47.567 144.672   9.504  1.00 25.46    -0.016 C 
HETATM   30  C28 STQ 6 624     -47.077 143.448   9.668  1.00 25.46     0.003 C 
HETATM   31  C29 STQ 6 624     -46.127 142.819   8.738  1.00 25.46    -0.062 C 
HETATM   32  C30 STQ 6 624     -45.581 141.663   9.130  1.00 25.46     0.007 C 
HETATM   33  C31 STQ 6 624     -44.636 140.881   8.347  1.00 25.46     0.001 C 
HETATM   34  C32 STQ 6 624     -43.757 140.144   9.014  1.00 25.46     0.007 C 
HETATM   35  C33 STQ 6 624     -42.767 139.286   8.344  1.00 25.46    -0.062 C 
HETATM   36  C34 STQ 6 624     -42.029 138.466   9.107  1.00 25.46     0.007 C 
HETATM   37  C35 STQ 6 624     -41.047 137.519   8.592  1.00 25.46     0.001 C 
HETATM   38  C36 STQ 6 624     -49.610 146.519   8.709  1.00 25.46     0.016 C 
HETATM   39  C37 STQ 6 624     -50.593 144.383   9.408  1.00 25.46     0.016 C 
HETATM   40  C38 STQ 6 624     -46.454 146.555  11.336  1.00 25.46     0.044 C 
HETATM   41  C39 STQ 6 624     -45.783 143.450   7.422  1.00 25.46     0.048 C 
HETATM   42  C40 STQ 6 624     -42.603 139.341   6.855  1.00 25.46     0.048 C 
HETATM   43  O23 STQ 6 624     -50.878 147.705  12.885  1.00 25.46    -0.392 OA
ATOM     44  H23 STQ 6 624     -50.464 148.402  13.381  1.00  0.00     0.210 HD
ENDROOT
TORSDOF 12
