REMARK VINA RESULT:    -6.378      1.261     16.877
REMARK INTER + INTRA:         -10.744
REMARK INTER:                 -10.286
REMARK INTRA:                  -0.457
REMARK UNBOUND:                -4.366
REMARK  0 active torsions:
REMARK  status: ('A' for Active; 'I' for Inactive)
REMARK       I    between atoms: C3_3  and  O3_21 
REMARK       I    between atoms: C6_6  and  C7_7 
REMARK       I    between atoms: C8_8  and  C9_9 
REMARK       I    between atoms: C10_10  and  C11_11 
REMARK       I    between atoms: C12_12  and  C13_13 
REMARK       I    between atoms: C14_14  and  C15_15 
REMARK       I    between atoms: C23_25  and  O23_43 
REMARK       I    between atoms: C26_28  and  C27_29 
REMARK       I    between atoms: C28_30  and  C29_31 
REMARK       I    between atoms: C30_32  and  C31_33 
REMARK       I    between atoms: C32_34  and  C33_35 
REMARK       I    between atoms: C34_36  and  C35_37 
ROOT
HETATM    1  C1  STQ 8 618     -49.232 146.014  12.674  1.00 13.13    -0.018 C 
HETATM    2  C2  STQ 8 618     -50.312 146.522  13.619  1.00 13.13     0.045 C 
HETATM    3  C3  STQ 8 618     -49.806 147.072  14.932  1.00 13.13     0.123 C 
HETATM    4  C4  STQ 8 618     -48.742 148.108  14.670  1.00 13.13     0.066 C 
HETATM    5  C5  STQ 8 618     -47.632 147.541  13.830  1.00 13.13    -0.074 C 
HETATM    6  C6  STQ 8 618     -47.858 146.639  12.861  1.00 13.13    -0.048 C 
HETATM    7  C7  STQ 8 618     -46.799 146.251  11.885  1.00 13.13     0.009 C 
HETATM    8  C8  STQ 8 618     -45.831 145.356  12.124  1.00 13.13     0.007 C 
HETATM    9  C9  STQ 8 618     -44.819 144.996  11.114  1.00 13.13    -0.062 C 
HETATM   10  C10 STQ 8 618     -44.184 143.832  11.271  1.00 13.13     0.007 C 
HETATM   11  C11 STQ 8 618     -43.177 143.300  10.363  1.00 13.13     0.001 C 
HETATM   12  C12 STQ 8 618     -42.911 142.020  10.575  1.00 13.13     0.007 C 
HETATM   13  C13 STQ 8 618     -41.977 141.157   9.838  1.00 13.13    -0.062 C 
HETATM   14  C14 STQ 8 618     -41.665 139.969  10.377  1.00 13.13     0.007 C 
HETATM   15  C15 STQ 8 618     -40.783 139.033   9.701  1.00 13.13     0.001 C 
HETATM   16  C16 STQ 8 618     -49.767 146.275  11.277  1.00 13.13     0.020 C 
HETATM   17  C17 STQ 8 618     -49.067 144.520  12.899  1.00 13.13     0.020 C 
HETATM   18  C18 STQ 8 618     -46.355 148.316  13.938  1.00 13.13     0.044 C 
HETATM   19  C19 STQ 8 618     -44.513 145.896   9.957  1.00 13.13     0.048 C 
HETATM   20  C20 STQ 8 618     -41.420 141.562   8.513  1.00 13.13     0.048 C 
HETATM   21  O3  STQ 8 618     -50.895 147.707  15.604  1.00 13.13    -0.395 OA
ATOM     22  H3  STQ 8 618     -51.565 147.054  15.769  1.00  0.00     0.210 HD
HETATM   23  C21 STQ 8 618     -34.180 128.284   7.063  1.00 13.13    -0.035 C 
HETATM   24  C22 STQ 8 618     -33.301 127.621   6.015  1.00 13.13     0.045 C 
HETATM   25  C23 STQ 8 618     -31.858 128.076   6.025  1.00 13.13     0.142 C 
HETATM   26  C24 STQ 8 618     -31.780 129.573   6.071  1.00 13.13     0.007 C 
HETATM   27  C25 STQ 8 618     -32.673 130.298   6.745  1.00 13.13    -0.077 C 
HETATM   28  C26 STQ 8 618     -34.075 129.812   6.988  1.00 13.13     0.044 C 
HETATM   29  C27 STQ 8 618     -34.669 130.456   8.223  1.00 13.13    -0.016 C 
HETATM   30  C28 STQ 8 618     -35.711 131.251   8.028  1.00 13.13     0.003 C 
HETATM   31  C29 STQ 8 618     -36.411 131.946   9.113  1.00 13.13    -0.062 C 
HETATM   32  C30 STQ 8 618     -37.250 132.917   8.749  1.00 13.13     0.007 C 
HETATM   33  C31 STQ 8 618     -38.048 133.712   9.668  1.00 13.13     0.001 C 
HETATM   34  C32 STQ 8 618     -38.348 134.941   9.275  1.00 13.13     0.007 C 
HETATM   35  C33 STQ 8 618     -39.169 135.832  10.103  1.00 13.13    -0.062 C 
HETATM   36  C34 STQ 8 618     -39.697 136.912   9.523  1.00 13.13     0.007 C 
HETATM   37  C35 STQ 8 618     -40.553 137.844  10.238  1.00 13.13     0.001 C 
HETATM   38  C36 STQ 8 618     -33.822 127.750   8.443  1.00 13.13     0.016 C 
HETATM   39  C37 STQ 8 618     -35.615 127.866   6.773  1.00 13.13     0.016 C 
HETATM   40  C38 STQ 8 618     -32.241 131.635   7.248  1.00 13.13     0.044 C 
HETATM   41  C39 STQ 8 618     -36.198 131.565  10.544  1.00 13.13     0.048 C 
HETATM   42  C40 STQ 8 618     -39.406 135.531  11.545  1.00 13.13     0.048 C 
HETATM   43  O23 STQ 8 618     -31.225 127.622   4.831  1.00 13.13    -0.392 OA
ATOM     44  H23 STQ 8 618     -30.319 127.908   4.837  1.00  0.00     0.210 HD
ENDROOT
TORSDOF 12
