REMARK VINA RESULT:    -7.510      1.516      2.070
REMARK INTER + INTRA:          -9.998
REMARK INTER:                  -9.635
REMARK INTRA:                  -0.363
REMARK UNBOUND:                -2.488
REMARK  0 active torsions:
REMARK  status: ('A' for Active; 'I' for Inactive)
REMARK       I    between atoms: C3_3  and  O3_21 
REMARK       I    between atoms: C6_6  and  C7_7 
REMARK       I    between atoms: C8_8  and  C9_9 
REMARK       I    between atoms: C10_10  and  C11_11 
REMARK       I    between atoms: C12_12  and  C13_13 
REMARK       I    between atoms: C14_14  and  C15_15 
REMARK       I    between atoms: C23_25  and  O23_43 
REMARK       I    between atoms: C26_28  and  C27_29 
REMARK       I    between atoms: C28_30  and  C29_31 
REMARK       I    between atoms: C30_32  and  C31_33 
REMARK       I    between atoms: C32_34  and  C33_35 
REMARK       I    between atoms: C34_36  and  C35_37 
ROOT
HETATM    1  C1  STQ D3620     -34.242 128.295   6.728  1.00 21.49    -0.018 C 
HETATM    2  C2  STQ D3620     -33.371 127.770   5.565  1.00 21.50     0.045 C 
HETATM    3  C3  STQ D3620     -31.969 128.349   5.349  1.00 22.37     0.123 C 
HETATM    4  C4  STQ D3620     -31.393 129.130   6.533  1.00 21.17     0.066 C 
HETATM    5  C5  STQ D3620     -32.321 129.781   7.506  1.00 19.70    -0.074 C 
HETATM    6  C6  STQ D3620     -33.650 129.420   7.622  1.00 20.41    -0.048 C 
HETATM    7  C7  STQ D3620     -34.561 130.068   8.587  1.00 19.41     0.009 C 
HETATM    8  C8  STQ D3620     -35.158 131.263   8.477  1.00 18.90     0.007 C 
HETATM    9  C9  STQ D3620     -35.944 131.961   9.498  1.00 20.60    -0.062 C 
HETATM   10  C10 STQ D3620     -36.550 133.112   9.138  1.00 18.78     0.007 C 
HETATM   11  C11 STQ D3620     -37.371 133.944   9.964  1.00 19.97     0.001 C 
HETATM   12  C12 STQ D3620     -38.045 134.964   9.406  1.00 23.02     0.007 C 
HETATM   13  C13 STQ D3620     -38.963 135.913  10.039  1.00 23.57    -0.062 C 
HETATM   14  C14 STQ D3620     -39.603 136.787   9.233  1.00 23.43     0.007 C 
HETATM   15  C15 STQ D3620     -40.600 137.751   9.602  1.00 24.57     0.001 C 
HETATM   16  C16 STQ D3620     -34.489 127.033   7.577  1.00 19.84     0.020 C 
HETATM   17  C17 STQ D3620     -35.596 128.748   6.123  1.00 19.63     0.020 C 
HETATM   18  C18 STQ D3620     -31.540 130.805   8.249  1.00 19.29     0.044 C 
HETATM   19  C19 STQ D3620     -36.067 131.327  10.865  1.00 18.57     0.048 C 
HETATM   20  C20 STQ D3620     -39.178 135.800  11.516  1.00 22.43     0.048 C 
HETATM   21  O3  STQ D3620     -31.069 127.326   4.958  1.00 22.38    -0.395 OA
ATOM     22  H3  STQ D3620     -30.199 127.685   4.824  1.00  0.00     0.210 HD
HETATM   23  C21 STQ D3620     -50.840 145.433   9.760  1.00 34.58    -0.035 C 
HETATM   24  C22 STQ D3620     -51.964 146.256  10.433  1.00 34.81     0.045 C 
HETATM   25  C23 STQ D3620     -51.740 147.772  10.455  1.00 35.13     0.142 C 
HETATM   26  C24 STQ D3620     -50.279 148.147  10.723  1.00 35.28     0.007 C 
HETATM   27  C25 STQ D3620     -49.246 147.282  10.601  1.00 35.11    -0.077 C 
HETATM   28  C26 STQ D3620     -49.384 145.818  10.192  1.00 34.37     0.044 C 
HETATM   29  C27 STQ D3620     -48.283 145.406   9.221  1.00 33.36    -0.016 C 
HETATM   30  C28 STQ D3620     -47.403 144.400   9.463  1.00 31.26     0.003 C 
HETATM   31  C29 STQ D3620     -46.477 143.759   8.510  1.00 31.15    -0.062 C 
HETATM   32  C30 STQ D3620     -45.670 142.777   8.967  1.00 29.00     0.007 C 
HETATM   33  C31 STQ D3620     -44.712 142.037   8.204  1.00 26.88     0.001 C 
HETATM   34  C32 STQ D3620     -43.935 141.117   8.786  1.00 27.02     0.007 C 
HETATM   35  C33 STQ D3620     -42.889 140.280   8.191  1.00 27.13    -0.062 C 
HETATM   36  C34 STQ D3620     -42.224 139.434   9.011  1.00 25.88     0.007 C 
HETATM   37  C35 STQ D3620     -41.173 138.519   8.669  1.00 25.96     0.001 C 
HETATM   38  C36 STQ D3620     -51.007 145.578   8.223  1.00 33.56     0.016 C 
HETATM   39  C37 STQ D3620     -51.100 143.960  10.106  1.00 32.85     0.016 C 
HETATM   40  C38 STQ D3620     -47.915 147.877  10.935  1.00 34.58     0.044 C 
HETATM   41  C39 STQ D3620     -46.474 144.248   7.090  1.00 30.08     0.048 C 
HETATM   42  C40 STQ D3620     -42.622 140.426   6.721  1.00 24.80     0.048 C 
HETATM   43  O23 STQ D3620     -52.600 148.382  11.409  1.00 36.44    -0.392 OA
ATOM     44  H23 STQ D3620     -52.461 149.322  11.423  1.00  0.00     0.210 HD
ENDROOT
TORSDOF 12
