REMARK VINA RESULT:    -8.630      2.338     17.099
REMARK INTER + INTRA:          -9.064
REMARK INTER:                  -8.490
REMARK INTRA:                  -0.574
REMARK UNBOUND:                -0.434
REMARK  0 active torsions:
REMARK  status: ('A' for Active; 'I' for Inactive)
REMARK       I    between atoms: C3_3  and  O3_21 
REMARK       I    between atoms: C6_6  and  C7_7 
REMARK       I    between atoms: C8_8  and  C9_9 
REMARK       I    between atoms: C10_10  and  C11_11 
REMARK       I    between atoms: C12_12  and  C13_13 
REMARK       I    between atoms: C14_14  and  C15_15 
REMARK       I    between atoms: C23_25  and  O23_43 
REMARK       I    between atoms: C26_28  and  C27_29 
REMARK       I    between atoms: C28_30  and  C29_31 
REMARK       I    between atoms: C30_32  and  C31_33 
REMARK       I    between atoms: C32_34  and  C33_35 
REMARK       I    between atoms: C34_36  and  C35_37 
ROOT
HETATM    1  C1  STQ 2 616     -34.044 128.341   6.953  1.00 78.53    -0.022 C 
HETATM    2  C2  STQ 2 616     -33.058 127.687   5.979  1.00 78.53     0.045 C 
HETATM    3  C3  STQ 2 616     -31.677 128.325   5.814  1.00 78.53     0.119 C 
HETATM    4  C4  STQ 2 616     -31.225 129.026   7.085  1.00 78.53     0.040 C 
HETATM    5  C5  STQ 2 616     -32.289 130.030   7.420  1.00 78.53     0.013 C 
HETATM    6  C6  STQ 2 616     -33.530 129.599   7.629  1.00 78.53    -0.068 C 
HETATM    7  C7  STQ 2 616     -34.423 130.325   8.560  1.00 78.53     0.004 C 
HETATM    8  C8  STQ 2 616     -35.014 131.477   8.233  1.00 78.53     0.007 C 
HETATM    9  C9  STQ 2 616     -35.900 132.144   9.203  1.00 78.53    -0.062 C 
HETATM   10  C10 STQ 2 616     -36.626 133.199   8.801  1.00 78.53     0.007 C 
HETATM   11  C11 STQ 2 616     -37.549 133.942   9.659  1.00 78.53     0.001 C 
HETATM   12  C12 STQ 2 616     -38.154 134.997   9.113  1.00 78.53     0.007 C 
HETATM   13  C13 STQ 2 616     -39.133 135.850   9.818  1.00 78.53    -0.062 C 
HETATM   14  C14 STQ 2 616     -39.833 136.733   9.091  1.00 78.53     0.007 C 
HETATM   15  C15 STQ 2 616     -40.854 137.602   9.668  1.00 78.53     0.001 C 
HETATM   16  C16 STQ 2 616     -34.413 127.298   8.003  1.00 78.53     0.019 C 
HETATM   17  C17 STQ 2 616     -35.300 128.736   6.185  1.00 78.53     0.019 C 
HETATM   18  C18 STQ 2 616     -31.526 130.786   8.469  1.00 78.53     0.015 C 
HETATM   19  C19 STQ 2 616     -35.953 131.629  10.607  1.00 78.53     0.048 C 
HETATM   20  C20 STQ 2 616     -39.351 135.739  11.298  1.00 78.53     0.048 C 
HETATM   21  O3  STQ 2 616     -30.726 127.308   5.479  1.00 78.53    -0.396 OA
ATOM     22  H3  STQ 2 616     -29.868 127.705   5.376  1.00  0.00     0.210 HD
HETATM   23  C21 STQ 2 616     -50.739 145.997   8.408  1.00 78.53    -0.035 C 
HETATM   24  C22 STQ 2 616     -51.910 146.727   9.057  1.00 78.53     0.045 C 
HETATM   25  C23 STQ 2 616     -51.551 148.086   9.652  1.00 78.53     0.142 C 
HETATM   26  C24 STQ 2 616     -50.254 148.015  10.423  1.00 78.53     0.007 C 
HETATM   27  C25 STQ 2 616     -49.255 147.200  10.047  1.00 78.53    -0.077 C 
HETATM   28  C26 STQ 2 616     -49.544 145.887   9.364  1.00 78.53     0.044 C 
HETATM   29  C27 STQ 2 616     -48.337 145.358   8.611  1.00 78.53    -0.016 C 
HETATM   30  C28 STQ 2 616     -47.732 144.252   9.040  1.00 78.53     0.003 C 
HETATM   31  C29 STQ 2 616     -46.568 143.671   8.344  1.00 78.53    -0.062 C 
HETATM   32  C30 STQ 2 616     -46.118 142.489   8.778  1.00 78.53     0.007 C 
HETATM   33  C31 STQ 2 616     -45.001 141.762   8.189  1.00 78.53     0.001 C 
HETATM   34  C32 STQ 2 616     -44.455 140.802   8.925  1.00 78.53     0.007 C 
HETATM   35  C33 STQ 2 616     -43.345 139.968   8.434  1.00 78.53    -0.062 C 
HETATM   36  C34 STQ 2 616     -42.658 139.204   9.299  1.00 78.53     0.007 C 
HETATM   37  C35 STQ 2 616     -41.583 138.335   8.831  1.00 78.53     0.001 C 
HETATM   38  C36 STQ 2 616     -50.351 146.691   7.101  1.00 78.53     0.016 C 
HETATM   39  C37 STQ 2 616     -51.211 144.591   8.061  1.00 78.53     0.016 C 
HETATM   40  C38 STQ 2 616     -47.843 147.622  10.324  1.00 78.53     0.044 C 
HETATM   41  C39 STQ 2 616     -45.920 144.375   7.188  1.00 78.53     0.048 C 
HETATM   42  C40 STQ 2 616     -43.023 139.962   6.972  1.00 78.53     0.048 C 
HETATM   43  O23 STQ 2 616     -52.598 148.497  10.540  1.00 78.53    -0.392 OA
ATOM     44  H23 STQ 2 616     -52.374 149.342  10.910  1.00  0.00     0.210 HD
ENDROOT
TORSDOF 12
