REMARK VINA RESULT:    -5.258      1.148     17.164
REMARK INTER + INTRA:          -8.567
REMARK INTER:                  -7.969
REMARK INTRA:                  -0.598
REMARK UNBOUND:                -3.309
REMARK  0 active torsions:
REMARK  status: ('A' for Active; 'I' for Inactive)
REMARK       I    between atoms: C3_3  and  O3_21 
REMARK       I    between atoms: C6_6  and  C7_7 
REMARK       I    between atoms: C8_8  and  C9_9 
REMARK       I    between atoms: C10_10  and  C11_11 
REMARK       I    between atoms: C12_12  and  C13_13 
REMARK       I    between atoms: C14_14  and  C15_15 
REMARK       I    between atoms: C23_25  and  O23_43 
REMARK       I    between atoms: C26_28  and  C27_29 
REMARK       I    between atoms: C28_30  and  C29_31 
REMARK       I    between atoms: C30_32  and  C31_33 
REMARK       I    between atoms: C32_34  and  C33_35 
REMARK       I    between atoms: C34_36  and  C35_37 
ROOT
HETATM    1  C1  STQ A 620     -51.318 144.474  12.824  1.00 22.96    -0.018 C 
HETATM    2  C2  STQ A 620     -52.044 145.123  14.023  1.00 23.40     0.045 C 
HETATM    3  C3  STQ A 620     -51.382 146.300  14.737  1.00 22.69     0.123 C 
HETATM    4  C4  STQ A 620     -50.482 147.148  13.840  1.00 22.06     0.066 C 
HETATM    5  C5  STQ A 620     -49.735 146.482  12.734  1.00 21.38    -0.074 C 
HETATM    6  C6  STQ A 620     -50.094 145.246  12.237  1.00 22.58    -0.048 C 
HETATM    7  C7  STQ A 620     -49.343 144.618  11.132  1.00 22.00     0.009 C 
HETATM    8  C8  STQ A 620     -48.157 143.981  11.199  1.00 20.93     0.007 C 
HETATM    9  C9  STQ A 620     -47.373 143.492  10.063  1.00 21.87    -0.062 C 
HETATM   10  C10 STQ A 620     -46.256 142.776  10.322  1.00 20.24     0.007 C 
HETATM   11  C11 STQ A 620     -45.360 142.197   9.351  1.00 21.04     0.001 C 
HETATM   12  C12 STQ A 620     -44.403 141.343   9.742  1.00 22.18     0.007 C 
HETATM   13  C13 STQ A 620     -43.414 140.602   8.947  1.00 24.17    -0.062 C 
HETATM   14  C14 STQ A 620     -42.640 139.713   9.608  1.00 25.88     0.007 C 
HETATM   15  C15 STQ A 620     -41.661 138.804   9.081  1.00 26.51     0.001 C 
HETATM   16  C16 STQ A 620     -52.422 144.343  11.757  1.00 20.65     0.020 C 
HETATM   17  C17 STQ A 620     -50.906 143.052  13.249  1.00 21.73     0.020 C 
HETATM   18  C18 STQ A 620     -48.633 147.395  12.324  1.00 21.05     0.044 C 
HETATM   19  C19 STQ A 620     -47.897 143.776   8.681  1.00 19.19     0.048 C 
HETATM   20  C20 STQ A 620     -43.381 140.819   7.463  1.00 21.80     0.048 C 
HETATM   21  O3  STQ A 620     -52.361 147.118  15.360  1.00 22.00    -0.395 OA
ATOM     22  H3  STQ A 620     -51.950 147.850  15.804  1.00  0.00     0.210 HD
HETATM   23  C21 STQ A 620     -34.190 128.547   7.030  1.00 38.17    -0.035 C 
HETATM   24  C22 STQ A 620     -33.303 127.605   6.187  1.00 37.47     0.045 C 
HETATM   25  C23 STQ A 620     -31.795 127.830   6.322  1.00 37.61     0.142 C 
HETATM   26  C24 STQ A 620     -31.408 129.301   6.515  1.00 37.22     0.007 C 
HETATM   27  C25 STQ A 620     -32.290 130.274   6.829  1.00 37.36    -0.077 C 
HETATM   28  C26 STQ A 620     -33.786 130.058   7.027  1.00 37.84     0.044 C 
HETATM   29  C27 STQ A 620     -34.296 130.871   8.219  1.00 39.21    -0.016 C 
HETATM   30  C28 STQ A 620     -35.229 131.857   8.147  1.00 38.37     0.003 C 
HETATM   31  C29 STQ A 620     -35.960 132.496   9.259  1.00 37.91    -0.062 C 
HETATM   32  C30 STQ A 620     -36.846 133.471   8.960  1.00 37.54     0.007 C 
HETATM   33  C31 STQ A 620     -37.665 134.222   9.878  1.00 35.36     0.001 C 
HETATM   34  C32 STQ A 620     -38.485 135.192   9.426  1.00 32.59     0.007 C 
HETATM   35  C33 STQ A 620     -39.385 136.090  10.164  1.00 30.48    -0.062 C 
HETATM   36  C34 STQ A 620     -40.091 136.990   9.446  1.00 28.06     0.007 C 
HETATM   37  C35 STQ A 620     -41.034 137.963   9.919  1.00 27.79     0.001 C 
HETATM   38  C36 STQ A 620     -34.194 127.986   8.480  1.00 37.05     0.016 C 
HETATM   39  C37 STQ A 620     -35.615 128.407   6.477  1.00 38.32     0.016 C 
HETATM   40  C38 STQ A 620     -31.674 131.622   6.945  1.00 37.13     0.044 C 
HETATM   41  C39 STQ A 620     -35.667 132.031  10.655  1.00 38.40     0.048 C 
HETATM   42  C40 STQ A 620     -39.453 135.948  11.663  1.00 28.72     0.048 C 
HETATM   43  O23 STQ A 620     -31.119 127.280   5.199  1.00 38.44    -0.392 OA
ATOM     44  H23 STQ A 620     -30.183 127.419   5.282  1.00  0.00     0.210 HD
ENDROOT
TORSDOF 12
