REMARK VINA RESULT:    -8.254      0.000      0.000
REMARK INTER + INTRA:          -9.261
REMARK INTER:                  -8.254
REMARK INTRA:                  -1.008
REMARK UNBOUND:                -1.008
REMARK  0 active torsions:
REMARK  status: ('A' for Active; 'I' for Inactive)
REMARK       I    between atoms: C3_3  and  O3_21 
REMARK       I    between atoms: C6_6  and  C7_7 
REMARK       I    between atoms: C8_8  and  C9_9 
REMARK       I    between atoms: C10_10  and  C11_11 
REMARK       I    between atoms: C12_12  and  C13_13 
REMARK       I    between atoms: C14_14  and  C15_15 
REMARK       I    between atoms: C23_25  and  O23_43 
REMARK       I    between atoms: C26_28  and  C27_29 
REMARK       I    between atoms: C28_30  and  C29_31 
REMARK       I    between atoms: C30_32  and  C31_33 
REMARK       I    between atoms: C32_34  and  C33_35 
REMARK       I    between atoms: C34_36  and  C35_37 
ROOT
HETATM    1  C1  STQ 5 620     -51.108 143.157  11.824  1.00 42.32    -0.018 C 
HETATM    2  C2  STQ 5 620     -50.759 142.362  13.078  1.00 42.32     0.045 C 
HETATM    3  C3  STQ 5 620     -49.834 143.081  14.054  1.00 42.32     0.123 C 
HETATM    4  C4  STQ 5 620     -50.118 144.572  14.050  1.00 42.32     0.066 C 
HETATM    5  C5  STQ 5 620     -49.865 145.100  12.665  1.00 42.32    -0.074 C 
HETATM    6  C6  STQ 5 620     -50.181 144.332  11.622  1.00 42.32    -0.048 C 
HETATM    7  C7  STQ 5 620     -49.357 144.332  10.410  1.00 42.32     0.009 C 
HETATM    8  C8  STQ 5 620     -48.284 143.576  10.690  1.00 42.32     0.007 C 
HETATM    9  C9  STQ 5 620     -47.212 143.272   9.708  1.00 42.32    -0.062 C 
HETATM   10  C10 STQ 5 620     -46.249 142.408  10.093  1.00 42.32     0.007 C 
HETATM   11  C11 STQ 5 620     -45.162 141.951   9.227  1.00 42.32     0.001 C 
HETATM   12  C12 STQ 5 620     -44.348 140.996   9.656  1.00 42.32     0.007 C 
HETATM   13  C13 STQ 5 620     -43.292 140.437   8.794  1.00 42.32    -0.062 C 
HETATM   14  C14 STQ 5 620     -42.669 139.353   9.273  1.00 42.32     0.007 C 
HETATM   15  C15 STQ 5 620     -41.634 138.580   8.598  1.00 42.32     0.001 C 
HETATM   16  C16 STQ 5 620     -52.548 143.639  11.944  1.00 42.32     0.020 C 
HETATM   17  C17 STQ 5 620     -50.972 142.256  10.606  1.00 42.32     0.020 C 
HETATM   18  C18 STQ 5 620     -48.723 146.073  12.671  1.00 42.32     0.044 C 
HETATM   19  C19 STQ 5 620     -47.227 143.898   8.341  1.00 42.32     0.048 C 
HETATM   20  C20 STQ 5 620     -43.008 141.035   7.447  1.00 42.32     0.048 C 
HETATM   21  O3  STQ 5 620     -50.052 142.577  15.376  1.00 42.32    -0.395 OA
ATOM     22  H3  STQ 5 620     -49.476 143.025  15.984  1.00  0.00     0.210 HD
HETATM   23  C21 STQ 5 620     -34.173 128.704   6.860  1.00 42.32    -0.035 C 
HETATM   24  C22 STQ 5 620     -33.337 128.078   5.771  1.00 42.32     0.045 C 
HETATM   25  C23 STQ 5 620     -31.909 127.893   6.226  1.00 42.32     0.142 C 
HETATM   26  C24 STQ 5 620     -31.381 129.143   6.889  1.00 42.32     0.007 C 
HETATM   27  C25 STQ 5 620     -32.169 130.145   7.310  1.00 42.32    -0.077 C 
HETATM   28  C26 STQ 5 620     -33.661 130.107   7.165  1.00 42.32     0.044 C 
HETATM   29  C27 STQ 5 620     -34.455 130.580   8.361  1.00 42.32    -0.016 C 
HETATM   30  C28 STQ 5 620     -35.230 131.635   8.181  1.00 42.32     0.003 C 
HETATM   31  C29 STQ 5 620     -36.131 132.167   9.206  1.00 42.32    -0.062 C 
HETATM   32  C30 STQ 5 620     -36.929 133.141   8.757  1.00 42.32     0.007 C 
HETATM   33  C31 STQ 5 620     -37.951 133.835   9.521  1.00 42.32     0.001 C 
HETATM   34  C32 STQ 5 620     -38.616 134.777   8.863  1.00 42.32     0.007 C 
HETATM   35  C33 STQ 5 620     -39.669 135.594   9.475  1.00 42.32    -0.062 C 
HETATM   36  C34 STQ 5 620     -40.162 136.624   8.756  1.00 42.32     0.007 C 
HETATM   37  C35 STQ 5 620     -41.193 137.523   9.267  1.00 42.32     0.001 C 
HETATM   38  C36 STQ 5 620     -34.145 127.815   8.094  1.00 42.32     0.016 C 
HETATM   39  C37 STQ 5 620     -35.608 128.795   6.369  1.00 42.32     0.016 C 
HETATM   40  C38 STQ 5 620     -31.524 131.370   7.869  1.00 42.32     0.044 C 
HETATM   41  C39 STQ 5 620     -36.179 131.576  10.584  1.00 42.32     0.048 C 
HETATM   42  C40 STQ 5 620     -40.112 135.225  10.858  1.00 42.32     0.048 C 
HETATM   43  O23 STQ 5 620     -31.138 127.603   5.061  1.00 42.32    -0.392 OA
ATOM     44  H23 STQ 5 620     -30.240 127.486   5.347  1.00  0.00     0.210 HD
ENDROOT
TORSDOF 12
