REMARK VINA RESULT:    -7.118      0.000      0.000
REMARK INTER + INTRA:          -9.985
REMARK INTER:                  -7.118
REMARK INTRA:                  -2.867
REMARK UNBOUND:                -2.867
REMARK  0 active torsions:
REMARK  status: ('A' for Active; 'I' for Inactive)
REMARK       I    between atoms: C3_3  and  O3_21 
REMARK       I    between atoms: C6_6  and  C7_7 
REMARK       I    between atoms: C8_8  and  C9_9 
REMARK       I    between atoms: C10_10  and  C11_11 
REMARK       I    between atoms: C12_12  and  C13_13 
REMARK       I    between atoms: C14_14  and  C15_15 
REMARK       I    between atoms: C23_25  and  O23_43 
REMARK       I    between atoms: C26_28  and  C27_29 
REMARK       I    between atoms: C28_30  and  C29_31 
REMARK       I    between atoms: C30_32  and  C31_33 
REMARK       I    between atoms: C32_34  and  C33_35 
REMARK       I    between atoms: C34_36  and  C35_37 
ROOT
HETATM    1  C1  STQ 7 615     -34.475 126.781   6.165  1.00 73.60    -0.018 C 
HETATM    2  C2  STQ 7 615     -33.860 125.963   5.032  1.00 75.55     0.045 C 
HETATM    3  C3  STQ 7 615     -32.908 126.744   4.137  1.00 76.70     0.123 C 
HETATM    4  C4  STQ 7 615     -31.841 127.398   4.993  1.00 74.32     0.066 C 
HETATM    5  C5  STQ 7 615     -32.493 128.306   6.002  1.00 72.24    -0.074 C 
HETATM    6  C6  STQ 7 615     -33.645 127.978   6.598  1.00 72.79    -0.048 C 
HETATM    7  C7  STQ 7 615     -34.147 128.788   7.735  1.00 73.20     0.009 C 
HETATM    8  C8  STQ 7 615     -34.757 129.958   7.531  1.00 73.76     0.007 C 
HETATM    9  C9  STQ 7 615     -35.283 130.784   8.636  1.00 74.91    -0.062 C 
HETATM   10  C10 STQ 7 615     -36.000 131.871   8.317  1.00 76.80     0.007 C 
HETATM   11  C11 STQ 7 615     -36.597 132.770   9.301  1.00 78.16     0.001 C 
HETATM   12  C12 STQ 7 615     -37.356 133.747   8.812  1.00 79.81     0.007 C 
HETATM   13  C13 STQ 7 615     -38.067 134.730   9.648  1.00 80.85    -0.062 C 
HETATM   14  C14 STQ 7 615     -38.979 135.508   9.045  1.00 82.27     0.007 C 
HETATM   15  C15 STQ 7 615     -39.784 136.495   9.757  1.00 83.03     0.001 C 
HETATM   16  C16 STQ 7 615     -34.691 125.859   7.359  1.00 74.39     0.020 C 
HETATM   17  C17 STQ 7 615     -35.827 127.307   5.701  1.00 72.12     0.020 C 
HETATM   18  C18 STQ 7 615     -31.600 129.364   6.578  1.00 72.14     0.044 C 
HETATM   19  C19 STQ 7 615     -35.026 130.422  10.069  1.00 74.86     0.048 C 
HETATM   20  C20 STQ 7 615     -37.788 134.845  11.118  1.00 80.14     0.048 C 
HETATM   21  O3  STQ 7 615     -32.287 125.850   3.206  1.00 78.13    -0.395 OA
ATOM     22  H3  STQ 7 615     -31.692 126.338   2.647  1.00  0.00     0.210 HD
HETATM   23  C21 STQ 7 615     -49.754 144.145  11.788  1.00 96.64    -0.035 C 
HETATM   24  C22 STQ 7 615     -50.567 144.979  12.768  1.00 97.77     0.045 C 
HETATM   25  C23 STQ 7 615     -50.484 146.467  12.458  1.00 98.19     0.142 C 
HETATM   26  C24 STQ 7 615     -49.053 146.900  12.241  1.00 97.38     0.007 C 
HETATM   27  C25 STQ 7 615     -48.087 146.063  11.837  1.00 96.37    -0.077 C 
HETATM   28  C26 STQ 7 615     -48.283 144.571  11.796  1.00 96.06     0.044 C 
HETATM   29  C27 STQ 7 615     -47.575 143.959  10.604  1.00 94.32    -0.016 C 
HETATM   30  C28 STQ 7 615     -46.559 143.137  10.847  1.00 91.91     0.003 C 
HETATM   31  C29 STQ 7 615     -45.803 142.458   9.778  1.00 88.65    -0.062 C 
HETATM   32  C30 STQ 7 615     -44.970 141.476  10.150  1.00 87.62     0.007 C 
HETATM   33  C31 STQ 7 615     -44.162 140.673   9.237  1.00 86.36     0.001 C 
HETATM   34  C32 STQ 7 615     -43.310 139.820   9.804  1.00 84.48     0.007 C 
HETATM   35  C33 STQ 7 615     -42.434 138.899   9.055  1.00 83.44    -0.062 C 
HETATM   36  C34 STQ 7 615     -41.550 138.157   9.737  1.00 83.36     0.007 C 
HETATM   37  C35 STQ 7 615     -40.686 137.191   9.067  1.00 83.46     0.001 C 
HETATM   38  C36 STQ 7 615     -50.349 144.259  10.390  1.00 95.07     0.016 C 
HETATM   39  C37 STQ 7 615     -49.838 142.686  12.220  1.00 96.78     0.016 C 
HETATM   40  C38 STQ 7 615     -46.760 146.634  11.440  1.00 95.67     0.044 C 
HETATM   41  C39 STQ 7 615     -45.970 142.849   8.340  1.00 86.98     0.048 C 
HETATM   42  C40 STQ 7 615     -42.547 138.772   7.565  1.00 83.08     0.048 C 
HETATM   43  O23 STQ 7 615     -51.032 147.212  13.553  1.00 98.22    -0.392 OA
ATOM     44  H23 STQ 7 615     -51.931 146.940  13.689  1.00  0.00     0.210 HD
ENDROOT
TORSDOF 12
