REMARK VINA RESULT:   -10.198      0.000      0.000
REMARK INTER + INTRA:         -10.569
REMARK INTER:                 -10.198
REMARK INTRA:                  -0.371
REMARK UNBOUND:                -0.371
REMARK  0 active torsions:
REMARK  status: ('A' for Active; 'I' for Inactive)
REMARK       I    between atoms: C3_3  and  O3_21 
REMARK       I    between atoms: C6_6  and  C7_7 
REMARK       I    between atoms: C8_8  and  C9_9 
REMARK       I    between atoms: C10_10  and  C11_11 
REMARK       I    between atoms: C12_12  and  C13_13 
REMARK       I    between atoms: C14_14  and  C15_15 
REMARK       I    between atoms: C23_25  and  O23_43 
REMARK       I    between atoms: C26_28  and  C27_29 
REMARK       I    between atoms: C28_30  and  C29_31 
REMARK       I    between atoms: C30_32  and  C31_33 
REMARK       I    between atoms: C32_34  and  C33_35 
REMARK       I    between atoms: C34_36  and  C35_37 
ROOT
HETATM    1  C1  STQ S1620     -50.216 144.326  13.163  1.00 71.46    -0.018 C 
HETATM    2  C2  STQ S1620     -51.023 144.847  14.339  1.00 75.98     0.045 C 
HETATM    3  C3  STQ S1620     -50.346 145.826  15.272  1.00 84.37     0.123 C 
HETATM    4  C4  STQ S1620     -49.612 146.887  14.502  1.00 79.68     0.066 C 
HETATM    5  C5  STQ S1620     -48.648 146.242  13.554  1.00 81.86    -0.074 C 
HETATM    6  C6  STQ S1620     -48.973 145.148  12.848  1.00 72.92    -0.048 C 
HETATM    7  C7  STQ S1620     -48.127 144.735  11.702  1.00 76.42     0.009 C 
HETATM    8  C8  STQ S1620     -47.029 144.004  11.882  1.00 69.46     0.007 C 
HETATM    9  C9  STQ S1620     -46.183 143.588  10.769  1.00 72.46    -0.062 C 
HETATM   10  C10 STQ S1620     -45.115 142.861  11.088  1.00 79.08     0.007 C 
HETATM   11  C11 STQ S1620     -44.179 142.359  10.108  1.00 85.60     0.001 C 
HETATM   12  C12 STQ S1620     -43.475 141.327  10.530  1.00 91.82     0.007 C 
HETATM   13  C13 STQ S1620     -42.502 140.639   9.685  1.00 91.68    -0.062 C 
HETATM   14  C14 STQ S1620     -41.869 139.596  10.219  1.00 95.81     0.007 C 
HETATM   15  C15 STQ S1620     -40.913 138.805   9.469  1.00 93.57     0.001 C 
HETATM   16  C16 STQ S1620     -51.194 144.247  12.000  1.00 75.59     0.020 C 
HETATM   17  C17 STQ S1620     -49.780 142.901  13.470  1.00 74.59     0.020 C 
HETATM   18  C18 STQ S1620     -47.621 147.230  13.091  1.00 90.73     0.044 C 
HETATM   19  C19 STQ S1620     -46.499 144.010   9.370  1.00 83.09     0.048 C 
HETATM   20  C20 STQ S1620     -42.271 141.076   8.272  1.00 93.53     0.048 C 
HETATM   21  O3  STQ S1620     -51.351 146.471  16.053  1.00 94.57    -0.395 OA
ATOM     22  H3  STQ S1620     -51.815 145.800  16.541  1.00  0.00     0.210 HD
HETATM   23  C21 STQ S1620     -34.218 128.365   6.912  1.00 93.68    -0.035 C 
HETATM   24  C22 STQ S1620     -33.469 127.670   5.781  1.00 91.14     0.045 C 
HETATM   25  C23 STQ S1620     -31.948 127.736   5.856  1.00 98.01     0.142 C 
HETATM   26  C24 STQ S1620     -31.433 129.016   6.474  1.00 91.63     0.007 C 
HETATM   27  C25 STQ S1620     -32.196 129.843   7.197  1.00 90.78    -0.077 C 
HETATM   28  C26 STQ S1620     -33.697 129.795   7.096  1.00 96.81     0.044 C 
HETATM   29  C27 STQ S1620     -34.364 130.411   8.305  1.00 98.92    -0.016 C 
HETATM   30  C28 STQ S1620     -35.065 131.525   8.136  1.00 95.46     0.003 C 
HETATM   31  C29 STQ S1620     -35.766 132.179   9.247  1.00 98.36    -0.062 C 
HETATM   32  C30 STQ S1620     -36.562 133.201   8.934  1.00 99.37     0.007 C 
HETATM   33  C31 STQ S1620     -37.351 133.957   9.892  1.00 94.54     0.001 C 
HETATM   34  C32 STQ S1620     -38.060 134.935   9.351  1.00 98.74     0.007 C 
HETATM   35  C33 STQ S1620     -38.957 135.821  10.102  1.00 97.67    -0.062 C 
HETATM   36  C34 STQ S1620     -39.534 136.819   9.427  1.00 93.99     0.007 C 
HETATM   37  C35 STQ S1620     -40.466 137.719  10.079  1.00 93.68     0.001 C 
HETATM   38  C36 STQ S1620     -34.141 127.554   8.206  1.00 98.37     0.016 C 
HETATM   39  C37 STQ S1620     -35.686 128.404   6.501  1.00 91.95     0.016 C 
HETATM   40  C38 STQ S1620     -31.517 130.825   8.100  1.00 91.00     0.044 C 
HETATM   41  C39 STQ S1620     -35.601 131.704  10.657  1.00 97.56     0.048 C 
HETATM   42  C40 STQ S1620     -39.231 135.596  11.557  1.00 95.91     0.048 C 
HETATM   43  O23 STQ S1620     -31.412 127.602   4.532  1.00 99.71    -0.392 OA
ATOM     44  H23 STQ S1620     -30.464 127.643   4.578  1.00  0.00     0.210 HD
ENDROOT
TORSDOF 12
