REMARK VINA RESULT:    -4.275      2.149     16.804
REMARK INTER + INTRA:          -9.080
REMARK INTER:                  -8.648
REMARK INTRA:                  -0.432
REMARK UNBOUND:                -4.804
REMARK  0 active torsions:
REMARK  status: ('A' for Active; 'I' for Inactive)
REMARK       I    between atoms: C3_3  and  O3_21 
REMARK       I    between atoms: C6_6  and  C7_7 
REMARK       I    between atoms: C8_8  and  C9_9 
REMARK       I    between atoms: C10_10  and  C11_11 
REMARK       I    between atoms: C12_12  and  C13_13 
REMARK       I    between atoms: C14_14  and  C15_15 
REMARK       I    between atoms: C23_25  and  O23_43 
REMARK       I    between atoms: C26_28  and  C27_29 
REMARK       I    between atoms: C28_30  and  C29_31 
REMARK       I    between atoms: C30_32  and  C31_33 
REMARK       I    between atoms: C32_34  and  C33_35 
REMARK       I    between atoms: C34_36  and  C35_37 
ROOT
HETATM    1  C1  STQ Y1621     -51.099 144.474  11.363  1.00 37.60    -0.018 C 
HETATM    2  C2  STQ Y1621     -52.074 145.052  12.375  1.00 37.60     0.045 C 
HETATM    3  C3  STQ Y1621     -51.502 146.045  13.360  1.00 37.60     0.123 C 
HETATM    4  C4  STQ Y1621     -50.720 147.094  12.615  1.00 37.60     0.066 C 
HETATM    5  C5  STQ Y1621     -49.693 146.501  11.699  1.00 37.60    -0.074 C 
HETATM    6  C6  STQ Y1621     -49.891 145.338  11.062  1.00 37.60    -0.048 C 
HETATM    7  C7  STQ Y1621     -48.958 144.873   9.999  1.00 37.60     0.009 C 
HETATM    8  C8  STQ Y1621     -47.807 144.241  10.252  1.00 37.60     0.007 C 
HETATM    9  C9  STQ Y1621     -46.913 143.782   9.187  1.00 37.60    -0.062 C 
HETATM   10  C10 STQ Y1621     -46.122 142.752   9.480  1.00 37.60     0.007 C 
HETATM   11  C11 STQ Y1621     -45.180 142.133   8.563  1.00 37.60     0.001 C 
HETATM   12  C12 STQ Y1621     -44.611 141.051   9.068  1.00 37.60     0.007 C 
HETATM   13  C13 STQ Y1621     -43.644 140.182   8.392  1.00 37.60    -0.062 C 
HETATM   14  C14 STQ Y1621     -43.064 139.219   9.109  1.00 37.60     0.007 C 
HETATM   15  C15 STQ Y1621     -42.126 138.299   8.489  1.00 37.60     0.001 C 
HETATM   16  C16 STQ Y1621     -51.922 144.152  10.126  1.00 37.60     0.020 C 
HETATM   17  C17 STQ Y1621     -50.552 143.177  11.911  1.00 37.60     0.020 C 
HETATM   18  C18 STQ Y1621     -48.615 147.469  11.321  1.00 37.60     0.044 C 
HETATM   19  C19 STQ Y1621     -46.893 144.442   7.848  1.00 37.60     0.048 C 
HETATM   20  C20 STQ Y1621     -43.337 140.354   6.938  1.00 37.60     0.048 C 
HETATM   21  O3  STQ Y1621     -52.588 146.711  14.002  1.00 37.60    -0.395 OA
ATOM     22  H3  STQ Y1621     -53.082 146.050  14.472  1.00  0.00     0.210 HD
HETATM   23  C21 STQ Y1621     -34.188 128.445   7.167  1.00 37.60    -0.035 C 
HETATM   24  C22 STQ Y1621     -33.222 127.611   6.346  1.00 37.60     0.045 C 
HETATM   25  C23 STQ Y1621     -31.776 127.979   6.612  1.00 37.60     0.142 C 
HETATM   26  C24 STQ Y1621     -31.588 129.468   6.470  1.00 37.60     0.007 C 
HETATM   27  C25 STQ Y1621     -32.568 130.342   6.731  1.00 37.60    -0.077 C 
HETATM   28  C26 STQ Y1621     -34.006 129.936   6.885  1.00 37.60     0.044 C 
HETATM   29  C27 STQ Y1621     -34.652 130.773   7.964  1.00 37.60    -0.016 C 
HETATM   30  C28 STQ Y1621     -35.716 131.507   7.672  1.00 37.60     0.003 C 
HETATM   31  C29 STQ Y1621     -36.378 132.335   8.685  1.00 37.60    -0.062 C 
HETATM   32  C30 STQ Y1621     -37.563 132.844   8.358  1.00 37.60     0.007 C 
HETATM   33  C31 STQ Y1621     -38.369 133.687   9.221  1.00 37.60     0.001 C 
HETATM   34  C32 STQ Y1621     -39.027 134.643   8.588  1.00 37.60     0.007 C 
HETATM   35  C33 STQ Y1621     -39.903 135.586   9.282  1.00 37.60    -0.062 C 
HETATM   36  C34 STQ Y1621     -40.517 136.536   8.578  1.00 37.60     0.007 C 
HETATM   37  C35 STQ Y1621     -41.417 137.470   9.234  1.00 37.60     0.001 C 
HETATM   38  C36 STQ Y1621     -34.036 128.105   8.646  1.00 37.60     0.016 C 
HETATM   39  C37 STQ Y1621     -35.589 128.058   6.732  1.00 37.60     0.016 C 
HETATM   40  C38 STQ Y1621     -32.229 131.793   6.845  1.00 37.60     0.044 C 
HETATM   41  C39 STQ Y1621     -35.740 132.588  10.011  1.00 37.60     0.048 C 
HETATM   42  C40 STQ Y1621     -40.113 135.456  10.753  1.00 37.60     0.048 C 
HETATM   43  O23 STQ Y1621     -30.973 127.303   5.646  1.00 37.60    -0.392 OA
ATOM     44  H23 STQ Y1621     -30.066 127.533   5.813  1.00  0.00     0.210 HD
ENDROOT
TORSDOF 12
