REMARK VINA RESULT:    -8.709      1.552     16.547
REMARK INTER + INTRA:         -11.013
REMARK INTER:                 -10.001
REMARK INTRA:                  -1.012
REMARK UNBOUND:                -2.304
REMARK  0 active torsions:
REMARK  status: ('A' for Active; 'I' for Inactive)
REMARK       I    between atoms: C3_3  and  O3_21 
REMARK       I    between atoms: C6_6  and  C7_7 
REMARK       I    between atoms: C8_8  and  C9_9 
REMARK       I    between atoms: C10_10  and  C11_11 
REMARK       I    between atoms: C12_12  and  C13_13 
REMARK       I    between atoms: C14_14  and  C15_15 
REMARK       I    between atoms: C23_25  and  O23_43 
REMARK       I    between atoms: C26_28  and  C27_29 
REMARK       I    between atoms: C28_30  and  C29_31 
REMARK       I    between atoms: C30_32  and  C31_33 
REMARK       I    between atoms: C32_34  and  C33_35 
REMARK       I    between atoms: C34_36  and  C35_37 
ROOT
HETATM    1  C1  STQ 1 617     -50.594 144.536  11.826  1.00 38.90    -0.018 C 
HETATM    2  C2  STQ 1 617     -50.795 144.041  13.258  1.00 38.90     0.045 C 
HETATM    3  C3  STQ 1 617     -49.988 144.775  14.325  1.00 38.90     0.123 C 
HETATM    4  C4  STQ 1 617     -49.580 146.148  13.826  1.00 38.90     0.066 C 
HETATM    5  C5  STQ 1 617     -48.725 145.907  12.618  1.00 38.90    -0.074 C 
HETATM    6  C6  STQ 1 617     -49.260 145.211  11.611  1.00 38.90    -0.048 C 
HETATM    7  C7  STQ 1 617     -48.484 144.905  10.397  1.00 38.90     0.009 C 
HETATM    8  C8  STQ 1 617     -47.265 144.441  10.666  1.00 38.90     0.007 C 
HETATM    9  C9  STQ 1 617     -46.396 143.889   9.611  1.00 38.90    -0.062 C 
HETATM   10  C10 STQ 1 617     -45.384 143.122  10.034  1.00 38.90     0.007 C 
HETATM   11  C11 STQ 1 617     -44.488 142.383   9.150  1.00 38.90     0.001 C 
HETATM   12  C12 STQ 1 617     -43.668 141.486   9.684  1.00 38.90     0.007 C 
HETATM   13  C13 STQ 1 617     -42.790 140.637   8.861  1.00 38.90    -0.062 C 
HETATM   14  C14 STQ 1 617     -42.150 139.650   9.504  1.00 38.90     0.007 C 
HETATM   15  C15 STQ 1 617     -41.262 138.678   8.877  1.00 38.90     0.001 C 
HETATM   16  C16 STQ 1 617     -51.656 145.589  11.515  1.00 38.90     0.020 C 
HETATM   17  C17 STQ 1 617     -50.734 143.376  10.849  1.00 38.90     0.020 C 
HETATM   18  C18 STQ 1 617     -47.593 146.891  12.440  1.00 38.90     0.044 C 
HETATM   19  C19 STQ 1 617     -46.691 144.156   8.162  1.00 38.90     0.048 C 
HETATM   20  C20 STQ 1 617     -42.685 140.895   7.387  1.00 38.90     0.048 C 
HETATM   21  O3  STQ 1 617     -50.770 144.927  15.513  1.00 38.90    -0.395 OA
ATOM     22  H3  STQ 1 617     -50.268 145.384  16.177  1.00  0.00     0.210 HD
HETATM   23  C21 STQ 1 617     -34.180 128.583   6.860  1.00 38.90    -0.035 C 
HETATM   24  C22 STQ 1 617     -33.421 127.985   5.699  1.00 38.90     0.045 C 
HETATM   25  C23 STQ 1 617     -31.979 127.731   6.078  1.00 38.90     0.142 C 
HETATM   26  C24 STQ 1 617     -31.385 128.931   6.776  1.00 38.90     0.007 C 
HETATM   27  C25 STQ 1 617     -32.125 129.953   7.240  1.00 38.90    -0.077 C 
HETATM   28  C26 STQ 1 617     -33.622 129.974   7.118  1.00 38.90     0.044 C 
HETATM   29  C27 STQ 1 617     -34.309 130.537   8.338  1.00 38.90    -0.016 C 
HETATM   30  C28 STQ 1 617     -35.164 131.529   8.143  1.00 38.90     0.003 C 
HETATM   31  C29 STQ 1 617     -35.931 132.166   9.223  1.00 38.90    -0.062 C 
HETATM   32  C30 STQ 1 617     -36.772 133.125   8.820  1.00 38.90     0.007 C 
HETATM   33  C31 STQ 1 617     -37.639 133.914   9.682  1.00 38.90     0.001 C 
HETATM   34  C32 STQ 1 617     -38.357 134.857   9.084  1.00 38.90     0.007 C 
HETATM   35  C33 STQ 1 617     -39.250 135.767   9.814  1.00 38.90    -0.062 C 
HETATM   36  C34 STQ 1 617     -39.835 136.741   9.092  1.00 38.90     0.007 C 
HETATM   37  C35 STQ 1 617     -40.731 137.745   9.654  1.00 38.90     0.001 C 
HETATM   38  C36 STQ 1 617     -34.068 127.701   8.097  1.00 38.90     0.016 C 
HETATM   39  C37 STQ 1 617     -35.647 128.677   6.465  1.00 38.90     0.016 C 
HETATM   40  C38 STQ 1 617     -31.414 131.121   7.851  1.00 38.90     0.044 C 
HETATM   41  C39 STQ 1 617     -35.767 131.708  10.643  1.00 38.90     0.048 C 
HETATM   42  C40 STQ 1 617     -39.426 135.575  11.290  1.00 38.90     0.048 C 
HETATM   43  O23 STQ 1 617     -31.251 127.481   4.876  1.00 38.90    -0.392 OA
ATOM     44  H23 STQ 1 617     -30.345 127.322   5.114  1.00  0.00     0.210 HD
ENDROOT
TORSDOF 12
