REMARK VINA RESULT:    -7.330      1.510     16.969
REMARK INTER + INTRA:          -8.039
REMARK INTER:                  -4.056
REMARK INTRA:                  -3.983
REMARK UNBOUND:                -0.709
REMARK  0 active torsions:
REMARK  status: ('A' for Active; 'I' for Inactive)
REMARK       I    between atoms: C3_3  and  O3_21 
REMARK       I    between atoms: C6_6  and  C7_7 
REMARK       I    between atoms: C8_8  and  C9_9 
REMARK       I    between atoms: C10_10  and  C11_11 
REMARK       I    between atoms: C12_12  and  C13_13 
REMARK       I    between atoms: C14_14  and  C15_15 
REMARK       I    between atoms: C23_25  and  O23_43 
REMARK       I    between atoms: C26_28  and  C27_29 
REMARK       I    between atoms: C28_30  and  C29_31 
REMARK       I    between atoms: C30_32  and  C31_33 
REMARK       I    between atoms: C32_34  and  C33_35 
REMARK       I    between atoms: C34_36  and  C35_37 
ROOT
HETATM    1  C1  STQ 9 619     -34.666 126.957   5.391  1.00 47.88    -0.018 C 
HETATM    2  C2  STQ 9 619     -33.705 126.001   4.714  1.00 47.88     0.045 C 
HETATM    3  C3  STQ 9 619     -32.734 126.766   3.837  1.00 47.88     0.123 C 
HETATM    4  C4  STQ 9 619     -31.859 127.637   4.719  1.00 47.88     0.066 C 
HETATM    5  C5  STQ 9 619     -32.716 128.518   5.588  1.00 47.88    -0.074 C 
HETATM    6  C6  STQ 9 619     -33.932 128.136   5.999  1.00 47.88    -0.048 C 
HETATM    7  C7  STQ 9 619     -34.590 128.865   7.102  1.00 47.88     0.009 C 
HETATM    8  C8  STQ 9 619     -35.184 130.036   6.895  1.00 47.88     0.007 C 
HETATM    9  C9  STQ 9 619     -35.837 130.716   8.019  1.00 47.88    -0.062 C 
HETATM   10  C10 STQ 9 619     -36.639 131.748   7.750  1.00 47.88     0.007 C 
HETATM   11  C11 STQ 9 619     -37.350 132.488   8.780  1.00 47.88     0.001 C 
HETATM   12  C12 STQ 9 619     -37.992 133.562   8.351  1.00 47.88     0.007 C 
HETATM   13  C13 STQ 9 619     -38.798 134.430   9.218  1.00 47.88    -0.062 C 
HETATM   14  C14 STQ 9 619     -39.603 135.293   8.598  1.00 47.88     0.007 C 
HETATM   15  C15 STQ 9 619     -40.501 136.198   9.293  1.00 47.88     0.001 C 
HETATM   16  C16 STQ 9 619     -35.433 126.184   6.457  1.00 47.88     0.020 C 
HETATM   17  C17 STQ 9 619     -35.661 127.486   4.367  1.00 47.88     0.020 C 
HETATM   18  C18 STQ 9 619     -31.881 129.468   6.396  1.00 47.88     0.044 C 
HETATM   19  C19 STQ 9 619     -35.590 130.248   9.418  1.00 47.88     0.048 C 
HETATM   20  C20 STQ 9 619     -38.732 134.339  10.711  1.00 47.88     0.048 C 
HETATM   21  O3  STQ 9 619     -31.927 125.850   3.098  1.00 47.88    -0.395 OA
ATOM     22  H3  STQ 9 619     -32.474 125.304   2.546  1.00  0.00     0.210 HD
HETATM   23  C21 STQ 9 619     -50.062 144.229  11.063  1.00 47.88    -0.035 C 
HETATM   24  C22 STQ 9 619     -50.906 144.833  12.173  1.00 47.88     0.045 C 
HETATM   25  C23 STQ 9 619     -50.649 146.318  12.394  1.00 47.88     0.142 C 
HETATM   26  C24 STQ 9 619     -49.179 146.661  12.324  1.00 47.88     0.007 C 
HETATM   27  C25 STQ 9 619     -48.310 145.925  11.616  1.00 47.88    -0.077 C 
HETATM   28  C26 STQ 9 619     -48.579 144.470  11.344  1.00 47.88     0.044 C 
HETATM   29  C27 STQ 9 619     -47.768 143.976  10.169  1.00 47.88    -0.016 C 
HETATM   30  C28 STQ 9 619     -46.888 143.006  10.389  1.00 47.88     0.003 C 
HETATM   31  C29 STQ 9 619     -46.055 142.433   9.321  1.00 47.88    -0.062 C 
HETATM   32  C30 STQ 9 619     -45.519 141.236   9.560  1.00 47.88     0.007 C 
HETATM   33  C31 STQ 9 619     -44.663 140.503   8.639  1.00 47.88     0.001 C 
HETATM   34  C32 STQ 9 619     -43.941 139.545   9.206  1.00 47.88     0.007 C 
HETATM   35  C33 STQ 9 619     -43.007 138.678   8.473  1.00 47.88    -0.062 C 
HETATM   36  C34 STQ 9 619     -42.306 137.789   9.182  1.00 47.88     0.007 C 
HETATM   37  C35 STQ 9 619     -41.362 136.882   8.547  1.00 47.88     0.001 C 
HETATM   38  C36 STQ 9 619     -50.460 144.799   9.706  1.00 47.88     0.016 C 
HETATM   39  C37 STQ 9 619     -50.348 142.732  11.038  1.00 47.88     0.016 C 
HETATM   40  C38 STQ 9 619     -47.057 146.570  11.102  1.00 47.88     0.044 C 
HETATM   41  C39 STQ 9 619     -45.832 143.154   8.027  1.00 47.88     0.048 C 
HETATM   42  C40 STQ 9 619     -42.842 138.787   6.987  1.00 47.88     0.048 C 
HETATM   43  O23 STQ 9 619     -51.132 146.651  13.697  1.00 47.88    -0.392 OA
ATOM     44  H23 STQ 9 619     -50.972 147.577  13.835  1.00  0.00     0.210 HD
ENDROOT
TORSDOF 12
