REMARK VINA RESULT:    -6.320      2.001     17.213
REMARK INTER + INTRA:          -6.495
REMARK INTER:                  -3.978
REMARK INTRA:                  -2.516
REMARK UNBOUND:                -0.174
REMARK  0 active torsions:
REMARK  status: ('A' for Active; 'I' for Inactive)
REMARK       I    between atoms: C3_3  and  O3_21 
REMARK       I    between atoms: C6_6  and  C7_7 
REMARK       I    between atoms: C8_8  and  C9_9 
REMARK       I    between atoms: C10_10  and  C11_11 
REMARK       I    between atoms: C12_12  and  C13_13 
REMARK       I    between atoms: C14_14  and  C15_15 
REMARK       I    between atoms: C23_25  and  O23_43 
REMARK       I    between atoms: C26_28  and  C27_29 
REMARK       I    between atoms: C28_30  and  C29_31 
REMARK       I    between atoms: C30_32  and  C31_33 
REMARK       I    between atoms: C32_34  and  C33_35 
REMARK       I    between atoms: C34_36  and  C35_37 
ROOT
HETATM    1  C1  STQ 2 615     -48.616 150.269   8.758  1.00 79.94    -0.018 C 
HETATM    2  C2  STQ 2 615     -49.751 151.054   8.104  1.00 79.60     0.045 C 
HETATM    3  C3  STQ 2 615     -51.124 150.401   8.158  1.00 80.06     0.123 C 
HETATM    4  C4  STQ 2 615     -51.424 149.954   9.575  1.00 79.91     0.066 C 
HETATM    5  C5  STQ 2 615     -50.357 148.993  10.026  1.00 78.96    -0.074 C 
HETATM    6  C6  STQ 2 615     -49.070 149.200   9.735  1.00 78.99    -0.048 C 
HETATM    7  C7  STQ 2 615     -48.044 148.359  10.394  1.00 78.77     0.009 C 
HETATM    8  C8  STQ 2 615     -47.777 147.131   9.946  1.00 79.10     0.007 C 
HETATM    9  C9  STQ 2 615     -46.763 146.273  10.586  1.00 80.39    -0.062 C 
HETATM   10  C10 STQ 2 615     -46.568 145.039  10.097  1.00 81.39     0.007 C 
HETATM   11  C11 STQ 2 615     -45.587 144.108  10.650  1.00 81.92     0.001 C 
HETATM   12  C12 STQ 2 615     -45.432 142.944  10.024  1.00 82.76     0.007 C 
HETATM   13  C13 STQ 2 615     -44.467 141.920  10.464  1.00 83.90    -0.062 C 
HETATM   14  C14 STQ 2 615     -44.155 140.938   9.605  1.00 84.98     0.007 C 
HETATM   15  C15 STQ 2 615     -43.195 139.886   9.921  1.00 86.34     0.001 C 
HETATM   16  C16 STQ 2 615     -47.722 151.260   9.493  1.00 79.93     0.020 C 
HETATM   17  C17 STQ 2 615     -47.809 149.581   7.663  1.00 80.89     0.020 C 
HETATM   18  C18 STQ 2 615     -50.753 148.096  11.161  1.00 77.35     0.044 C 
HETATM   19  C19 STQ 2 615     -45.977 146.771  11.762  1.00 80.43     0.048 C 
HETATM   20  C20 STQ 2 615     -43.853 141.977  11.832  1.00 83.80     0.048 C 
HETATM   21  O3  STQ 2 615     -52.114 151.350   7.746  1.00 80.93    -0.395 OA
ATOM     22  H3  STQ 2 615     -52.972 150.942   7.780  1.00  0.00     0.210 HD
HETATM   23  C21 STQ 2 615     -35.148 130.324   7.316  1.00 86.56    -0.035 C 
HETATM   24  C22 STQ 2 615     -34.060 129.342   7.724  1.00 85.76     0.045 C 
HETATM   25  C23 STQ 2 615     -34.533 127.898   7.640  1.00 84.08     0.142 C 
HETATM   26  C24 STQ 2 615     -35.883 127.728   8.294  1.00 85.20     0.007 C 
HETATM   27  C25 STQ 2 615     -36.754 128.738   8.454  1.00 86.87    -0.077 C 
HETATM   28  C26 STQ 2 615     -36.377 130.173   8.211  1.00 87.65     0.044 C 
HETATM   29  C27 STQ 2 615     -37.533 130.935   7.597  1.00 88.79    -0.016 C 
HETATM   30  C28 STQ 2 615     -38.047 131.960   8.272  1.00 89.77     0.003 C 
HETATM   31  C29 STQ 2 615     -39.161 132.770   7.744  1.00 89.92    -0.062 C 
HETATM   32  C30 STQ 2 615     -39.507 133.877   8.416  1.00 89.40     0.007 C 
HETATM   33  C31 STQ 2 615     -40.576 134.771   7.986  1.00 87.93     0.001 C 
HETATM   34  C32 STQ 2 615     -40.779 135.853   8.730  1.00 87.59     0.007 C 
HETATM   35  C33 STQ 2 615     -41.804 136.864   8.418  1.00 88.80    -0.062 C 
HETATM   36  C34 STQ 2 615     -41.978 137.892   9.264  1.00 88.99     0.007 C 
HETATM   37  C35 STQ 2 615     -42.954 138.948   9.007  1.00 88.02     0.001 C 
HETATM   38  C36 STQ 2 615     -35.525 130.115   5.853  1.00 86.59     0.016 C 
HETATM   39  C37 STQ 2 615     -34.602 131.738   7.479  1.00 84.95     0.016 C 
HETATM   40  C38 STQ 2 615     -38.145 128.426   8.913  1.00 87.30     0.044 C 
HETATM   41  C39 STQ 2 615     -39.880 132.374   6.488  1.00 89.99     0.048 C 
HETATM   42  C40 STQ 2 615     -42.626 136.747   7.169  1.00 89.61     0.048 C 
HETATM   43  O23 STQ 2 615     -33.587 127.052   8.306  1.00 82.24    -0.392 OA
ATOM     44  H23 STQ 2 615     -32.737 127.159   7.894  1.00  0.00     0.210 HD
ENDROOT
TORSDOF 12
