REMARK VINA RESULT:    -7.879      0.000      0.000
REMARK INTER + INTRA:         -10.678
REMARK INTER:                  -7.879
REMARK INTRA:                  -2.799
REMARK UNBOUND:                -2.799
REMARK  0 active torsions:
REMARK  status: ('A' for Active; 'I' for Inactive)
REMARK       I    between atoms: C3_3  and  O3_21 
REMARK       I    between atoms: C6_6  and  C7_7 
REMARK       I    between atoms: C8_8  and  C9_9 
REMARK       I    between atoms: C10_10  and  C11_11 
REMARK       I    between atoms: C12_12  and  C13_13 
REMARK       I    between atoms: C14_14  and  C15_15 
REMARK       I    between atoms: C23_25  and  O23_43 
REMARK       I    between atoms: C26_28  and  C27_29 
REMARK       I    between atoms: C28_30  and  C29_31 
REMARK       I    between atoms: C30_32  and  C31_33 
REMARK       I    between atoms: C32_34  and  C33_35 
REMARK       I    between atoms: C34_36  and  C35_37 
ROOT
HETATM    1  C1  STQ N1620     -34.508 126.811   6.144  1.00 57.79    -0.018 C 
HETATM    2  C2  STQ N1620     -33.796 125.957   5.109  1.00 59.26     0.045 C 
HETATM    3  C3  STQ N1620     -32.930 126.758   4.163  1.00 62.25     0.123 C 
HETATM    4  C4  STQ N1620     -31.871 127.477   4.958  1.00 57.83     0.066 C 
HETATM    5  C5  STQ N1620     -32.475 128.288   6.071  1.00 54.66    -0.074 C 
HETATM    6  C6  STQ N1620     -33.671 127.993   6.627  1.00 55.29    -0.048 C 
HETATM    7  C7  STQ N1620     -34.180 128.791   7.773  1.00 55.61     0.009 C 
HETATM    8  C8  STQ N1620     -34.857 129.930   7.617  1.00 56.19     0.007 C 
HETATM    9  C9  STQ N1620     -35.364 130.716   8.740  1.00 61.49    -0.062 C 
HETATM   10  C10 STQ N1620     -36.083 131.782   8.404  1.00 57.47     0.007 C 
HETATM   11  C11 STQ N1620     -36.693 132.695   9.346  1.00 53.29     0.001 C 
HETATM   12  C12 STQ N1620     -37.454 133.606   8.769  1.00 52.45     0.007 C 
HETATM   13  C13 STQ N1620     -38.190 134.602   9.542  1.00 52.04    -0.062 C 
HETATM   14  C14 STQ N1620     -39.115 135.298   8.884  1.00 54.29     0.007 C 
HETATM   15  C15 STQ N1620     -39.952 136.293   9.522  1.00 53.12     0.001 C 
HETATM   16  C16 STQ N1620     -34.918 125.850   7.255  1.00 58.39     0.020 C 
HETATM   17  C17 STQ N1620     -35.773 127.379   5.521  1.00 64.45     0.020 C 
HETATM   18  C18 STQ N1620     -31.602 129.426   6.514  1.00 58.11     0.044 C 
HETATM   19  C19 STQ N1620     -35.063 130.344  10.162  1.00 70.55     0.048 C 
HETATM   20  C20 STQ N1620     -37.919 134.796  10.999  1.00 53.04     0.048 C 
HETATM   21  O3  STQ N1620     -32.278 125.879   3.244  1.00 65.91    -0.395 OA
ATOM     22  H3  STQ N1620     -31.735 126.382   2.649  1.00  0.00     0.210 HD
HETATM   23  C21 STQ N1620     -49.918 143.944  10.804  1.00 70.84    -0.035 C 
HETATM   24  C22 STQ N1620     -50.767 144.803  11.727  1.00 74.16     0.045 C 
HETATM   25  C23 STQ N1620     -50.486 146.296  11.656  1.00 78.08     0.142 C 
HETATM   26  C24 STQ N1620     -49.017 146.601  11.545  1.00 81.23     0.007 C 
HETATM   27  C25 STQ N1620     -48.107 145.695  11.183  1.00 73.41    -0.077 C 
HETATM   28  C26 STQ N1620     -48.425 144.238  10.982  1.00 72.81     0.044 C 
HETATM   29  C27 STQ N1620     -47.630 143.675   9.821  1.00 72.75    -0.016 C 
HETATM   30  C28 STQ N1620     -46.724 142.747  10.093  1.00 71.34     0.003 C 
HETATM   31  C29 STQ N1620     -45.906 142.113   9.057  1.00 71.47    -0.062 C 
HETATM   32  C30 STQ N1620     -45.186 141.068   9.454  1.00 69.97     0.007 C 
HETATM   33  C31 STQ N1620     -44.329 140.271   8.598  1.00 65.68     0.001 C 
HETATM   34  C32 STQ N1620     -43.591 139.394   9.252  1.00 62.75     0.007 C 
HETATM   35  C33 STQ N1620     -42.680 138.466   8.577  1.00 61.08    -0.062 C 
HETATM   36  C34 STQ N1620     -41.839 137.769   9.343  1.00 59.90     0.007 C 
HETATM   37  C35 STQ N1620     -40.926 136.793   8.778  1.00 55.64     0.001 C 
HETATM   38  C36 STQ N1620     -50.380 144.122   9.359  1.00 73.25     0.016 C 
HETATM   39  C37 STQ N1620     -50.178 142.499  11.199  1.00 71.17     0.016 C 
HETATM   40  C38 STQ N1620     -46.707 146.172  11.005  1.00 74.91     0.044 C 
HETATM   41  C39 STQ N1620     -45.894 142.608   7.645  1.00 74.91     0.048 C 
HETATM   42  C40 STQ N1620     -42.729 138.301   7.090  1.00 55.73     0.048 C 
HETATM   43  O23 STQ N1620     -50.979 146.924  12.843  1.00 76.53    -0.392 OA
ATOM     44  H23 STQ N1620     -51.907 146.731  12.913  1.00  0.00     0.210 HD
ENDROOT
TORSDOF 12
