REMARK VINA RESULT:    -5.325      1.174     17.130
REMARK INTER + INTRA:          -7.813
REMARK INTER:                  -7.311
REMARK INTRA:                  -0.502
REMARK UNBOUND:                -2.488
REMARK  0 active torsions:
REMARK  status: ('A' for Active; 'I' for Inactive)
REMARK       I    between atoms: C3_3  and  O3_21 
REMARK       I    between atoms: C6_6  and  C7_7 
REMARK       I    between atoms: C8_8  and  C9_9 
REMARK       I    between atoms: C10_10  and  C11_11 
REMARK       I    between atoms: C12_12  and  C13_13 
REMARK       I    between atoms: C14_14  and  C15_15 
REMARK       I    between atoms: C23_25  and  O23_43 
REMARK       I    between atoms: C26_28  and  C27_29 
REMARK       I    between atoms: C28_30  and  C29_31 
REMARK       I    between atoms: C30_32  and  C31_33 
REMARK       I    between atoms: C32_34  and  C33_35 
REMARK       I    between atoms: C34_36  and  C35_37 
ROOT
HETATM    1  C1  STQ D3620     -51.400 144.617  12.440  1.00 21.49    -0.018 C 
HETATM    2  C2  STQ D3620     -52.055 145.171  13.724  1.00 21.50     0.045 C 
HETATM    3  C3  STQ D3620     -51.490 146.438  14.375  1.00 22.37     0.123 C 
HETATM    4  C4  STQ D3620     -50.560 147.270  13.488  1.00 21.17     0.066 C 
HETATM    5  C5  STQ D3620     -49.804 146.605  12.385  1.00 19.70    -0.074 C 
HETATM    6  C6  STQ D3620     -50.165 145.372  11.874  1.00 20.41    -0.048 C 
HETATM    7  C7  STQ D3620     -49.414 144.721  10.783  1.00 19.41     0.009 C 
HETATM    8  C8  STQ D3620     -48.250 144.061  10.868  1.00 18.90     0.007 C 
HETATM    9  C9  STQ D3620     -47.440 143.542   9.762  1.00 20.60    -0.062 C 
HETATM   10  C10 STQ D3620     -46.350 142.811  10.077  1.00 18.78     0.007 C 
HETATM   11  C11 STQ D3620     -45.433 142.201   9.164  1.00 19.97     0.001 C 
HETATM   12  C12 STQ D3620     -44.499 141.358   9.636  1.00 23.02     0.007 C 
HETATM   13  C13 STQ D3620     -43.491 140.597   8.895  1.00 23.57    -0.062 C 
HETATM   14  C14 STQ D3620     -42.732 139.727   9.595  1.00 23.43     0.007 C 
HETATM   15  C15 STQ D3620     -41.742 138.821   9.088  1.00 24.57     0.001 C 
HETATM   16  C16 STQ D3620     -52.549 144.660  11.414  1.00 19.84     0.020 C 
HETATM   17  C17 STQ D3620     -51.044 143.131  12.707  1.00 19.63     0.020 C 
HETATM   18  C18 STQ D3620     -48.686 147.507  12.003  1.00 19.29     0.044 C 
HETATM   19  C19 STQ D3620     -47.900 143.815   8.347  1.00 18.57     0.048 C 
HETATM   20  C20 STQ D3620     -43.421 140.786   7.412  1.00 22.43     0.048 C 
HETATM   21  O3  STQ D3620     -52.542 147.249  14.871  1.00 22.38    -0.395 OA
ATOM     22  H3  STQ D3620     -52.191 148.035  15.274  1.00  0.00     0.210 HD
HETATM   23  C21 STQ D3620     -34.233 128.648   7.084  1.00 34.58    -0.035 C 
HETATM   24  C22 STQ D3620     -33.347 127.706   6.235  1.00 34.81     0.045 C 
HETATM   25  C23 STQ D3620     -31.838 127.858   6.451  1.00 35.13     0.142 C 
HETATM   26  C24 STQ D3620     -31.413 129.319   6.631  1.00 35.28     0.007 C 
HETATM   27  C25 STQ D3620     -32.273 130.321   6.924  1.00 35.11    -0.077 C 
HETATM   28  C26 STQ D3620     -33.779 130.147   7.107  1.00 34.37     0.044 C 
HETATM   29  C27 STQ D3620     -34.294 130.969   8.283  1.00 33.36    -0.016 C 
HETATM   30  C28 STQ D3620     -35.250 131.927   8.170  1.00 31.26     0.003 C 
HETATM   31  C29 STQ D3620     -35.994 132.596   9.255  1.00 31.15    -0.062 C 
HETATM   32  C30 STQ D3620     -36.901 133.539   8.921  1.00 29.00     0.007 C 
HETATM   33  C31 STQ D3620     -37.718 134.294   9.821  1.00 26.88     0.001 C 
HETATM   34  C32 STQ D3620     -38.547 135.238   9.366  1.00 27.02     0.007 C 
HETATM   35  C33 STQ D3620     -39.439 136.127  10.118  1.00 27.13    -0.062 C 
HETATM   36  C34 STQ D3620     -40.167 137.023   9.414  1.00 25.88     0.007 C 
HETATM   37  C35 STQ D3620     -41.104 137.986   9.915  1.00 25.96     0.001 C 
HETATM   38  C36 STQ D3620     -34.283 128.074   8.526  1.00 33.56     0.016 C 
HETATM   39  C37 STQ D3620     -35.654 128.556   6.512  1.00 32.85     0.016 C 
HETATM   40  C38 STQ D3620     -31.624 131.665   7.031  1.00 34.58     0.044 C 
HETATM   41  C39 STQ D3620     -35.685 132.200  10.671  1.00 30.08     0.048 C 
HETATM   42  C40 STQ D3620     -39.473 135.988  11.612  1.00 24.80     0.048 C 
HETATM   43  O23 STQ D3620     -31.124 127.254   5.379  1.00 36.44    -0.392 OA
ATOM     44  H23 STQ D3620     -30.188 127.349   5.513  1.00  0.00     0.210 HD
ENDROOT
TORSDOF 12
