REMARK VINA RESULT:   -10.313      0.000      0.000
REMARK INTER + INTRA:         -12.921
REMARK INTER:                 -10.313
REMARK INTRA:                  -2.607
REMARK UNBOUND:                -2.607
REMARK  0 active torsions:
REMARK  status: ('A' for Active; 'I' for Inactive)
REMARK       I    between atoms: C3_3  and  O3_21 
REMARK       I    between atoms: C6_6  and  C7_7 
REMARK       I    between atoms: C8_8  and  C9_9 
REMARK       I    between atoms: C10_10  and  C11_11 
REMARK       I    between atoms: C12_12  and  C13_13 
REMARK       I    between atoms: C14_14  and  C15_15 
REMARK       I    between atoms: C23_25  and  O23_43 
REMARK       I    between atoms: C26_28  and  C27_29 
REMARK       I    between atoms: C28_30  and  C29_31 
REMARK       I    between atoms: C30_32  and  C31_33 
REMARK       I    between atoms: C32_34  and  C33_35 
REMARK       I    between atoms: C34_36  and  C35_37 
ROOT
HETATM    1  C1  STQ Z1620     -34.136 127.077   6.777  1.00 27.53    -0.018 C 
HETATM    2  C2  STQ Z1620     -33.592 126.782   5.381  1.00 27.53     0.045 C 
HETATM    3  C3  STQ Z1620     -32.862 127.980   4.805  1.00 27.53     0.123 C 
HETATM    4  C4  STQ Z1620     -31.687 128.225   5.723  1.00 27.53     0.066 C 
HETATM    5  C5  STQ Z1620     -32.289 128.772   6.986  1.00 27.53    -0.074 C 
HETATM    6  C6  STQ Z1620     -33.437 128.240   7.470  1.00 27.53    -0.048 C 
HETATM    7  C7  STQ Z1620     -34.166 128.899   8.573  1.00 27.53     0.009 C 
HETATM    8  C8  STQ Z1620     -34.321 130.219   8.431  1.00 27.53     0.007 C 
HETATM    9  C9  STQ Z1620     -35.196 130.983   9.347  1.00 27.53    -0.062 C 
HETATM   10  C10 STQ Z1620     -35.589 132.204   8.936  1.00 27.53     0.007 C 
HETATM   11  C11 STQ Z1620     -36.556 133.020   9.668  1.00 27.53     0.001 C 
HETATM   12  C12 STQ Z1620     -37.083 134.088   9.079  1.00 27.53     0.007 C 
HETATM   13  C13 STQ Z1620     -38.141 134.885   9.735  1.00 27.53    -0.062 C 
HETATM   14  C14 STQ Z1620     -38.783 135.785   8.965  1.00 27.53     0.007 C 
HETATM   15  C15 STQ Z1620     -39.886 136.633   9.416  1.00 27.53     0.001 C 
HETATM   16  C16 STQ Z1620     -33.883 125.850   7.652  1.00 27.53     0.020 C 
HETATM   17  C17 STQ Z1620     -35.640 127.307   6.655  1.00 27.53     0.020 C 
HETATM   18  C18 STQ Z1620     -31.465 129.823   7.692  1.00 27.53     0.044 C 
HETATM   19  C19 STQ Z1620     -35.633 130.364  10.651  1.00 27.53     0.048 C 
HETATM   20  C20 STQ Z1620     -38.469 134.628  11.182  1.00 27.53     0.048 C 
HETATM   21  O3  STQ Z1620     -32.410 127.739   3.471  1.00 27.53    -0.395 OA
ATOM     22  H3  STQ Z1620     -31.954 128.490   3.111  1.00  0.00     0.210 HD
HETATM   23  C21 STQ Z1620     -49.722 144.404   9.146  1.00 27.53    -0.035 C 
HETATM   24  C22 STQ Z1620     -50.748 144.999  10.090  1.00 27.53     0.045 C 
HETATM   25  C23 STQ Z1620     -50.734 146.522  10.047  1.00 27.53     0.142 C 
HETATM   26  C24 STQ Z1620     -49.330 147.088  10.005  1.00 27.53     0.007 C 
HETATM   27  C25 STQ Z1620     -48.234 146.338   9.798  1.00 27.53    -0.077 C 
HETATM   28  C26 STQ Z1620     -48.324 144.851   9.570  1.00 27.53     0.044 C 
HETATM   29  C27 STQ Z1620     -47.345 144.350   8.532  1.00 27.53    -0.016 C 
HETATM   30  C28 STQ Z1620     -46.548 143.350   8.888  1.00 27.53     0.003 C 
HETATM   31  C29 STQ Z1620     -45.564 142.736   7.980  1.00 27.53    -0.062 C 
HETATM   32  C30 STQ Z1620     -44.872 141.722   8.522  1.00 27.53     0.007 C 
HETATM   33  C31 STQ Z1620     -43.842 140.938   7.859  1.00 27.53     0.001 C 
HETATM   34  C32 STQ Z1620     -43.240 139.996   8.585  1.00 27.53     0.007 C 
HETATM   35  C33 STQ Z1620     -42.155 139.161   8.038  1.00 27.53    -0.062 C 
HETATM   36  C34 STQ Z1620     -41.554 138.307   8.893  1.00 27.53     0.007 C 
HETATM   37  C35 STQ Z1620     -40.445 137.431   8.517  1.00 27.53     0.001 C 
HETATM   38  C36 STQ Z1620     -50.037 144.804   7.707  1.00 27.53     0.016 C 
HETATM   39  C37 STQ Z1620     -49.805 142.883   9.248  1.00 27.53     0.016 C 
HETATM   40  C38 STQ Z1620     -46.894 147.020   9.854  1.00 27.53     0.044 C 
HETATM   41  C39 STQ Z1620     -45.414 143.219   6.564  1.00 27.53     0.048 C 
HETATM   42  C40 STQ Z1620     -41.778 139.328   6.588  1.00 27.53     0.048 C 
HETATM   43  O23 STQ Z1620     -51.389 147.031  11.214  1.00 27.53    -0.392 OA
ATOM     44  H23 STQ Z1620     -52.269 146.676  11.240  1.00  0.00     0.210 HD
ENDROOT
TORSDOF 12
