REMARK VINA RESULT:   -10.118      1.275      1.574
REMARK INTER + INTRA:         -13.273
REMARK INTER:                  -9.528
REMARK INTRA:                  -3.745
REMARK UNBOUND:                -3.155
REMARK  0 active torsions:
REMARK  status: ('A' for Active; 'I' for Inactive)
REMARK       I    between atoms: C3_3  and  O3_21 
REMARK       I    between atoms: C6_6  and  C7_7 
REMARK       I    between atoms: C8_8  and  C9_9 
REMARK       I    between atoms: C10_10  and  C11_11 
REMARK       I    between atoms: C12_12  and  C13_13 
REMARK       I    between atoms: C14_14  and  C15_15 
REMARK       I    between atoms: C23_25  and  O23_43 
REMARK       I    between atoms: C26_28  and  C27_29 
REMARK       I    between atoms: C28_30  and  C29_31 
REMARK       I    between atoms: C30_32  and  C31_33 
REMARK       I    between atoms: C32_34  and  C33_35 
REMARK       I    between atoms: C34_36  and  C35_37 
ROOT
HETATM    1  C1  STQ 5 624     -34.388 126.921   6.140  1.00 23.68    -0.018 C 
HETATM    2  C2  STQ 5 624     -34.028 126.293   4.797  1.00 23.68     0.045 C 
HETATM    3  C3  STQ 5 624     -32.886 126.899   3.991  1.00 23.68     0.123 C 
HETATM    4  C4  STQ 5 624     -31.870 127.590   4.881  1.00 23.68     0.066 C 
HETATM    5  C5  STQ 5 624     -32.592 128.585   5.745  1.00 23.68    -0.074 C 
HETATM    6  C6  STQ 5 624     -33.655 128.213   6.462  1.00 23.68    -0.048 C 
HETATM    7  C7  STQ 5 624     -34.119 129.033   7.614  1.00 23.68     0.009 C 
HETATM    8  C8  STQ 5 624     -34.929 130.088   7.481  1.00 23.68     0.007 C 
HETATM    9  C9  STQ 5 624     -35.397 130.898   8.632  1.00 23.68    -0.062 C 
HETATM   10  C10 STQ 5 624     -36.302 131.860   8.393  1.00 23.68     0.007 C 
HETATM   11  C11 STQ 5 624     -36.915 132.758   9.371  1.00 23.68     0.001 C 
HETATM   12  C12 STQ 5 624     -37.911 133.492   8.869  1.00 23.68     0.007 C 
HETATM   13  C13 STQ 5 624     -38.776 134.476   9.551  1.00 23.68    -0.062 C 
HETATM   14  C14 STQ 5 624     -39.597 135.211   8.782  1.00 23.68     0.007 C 
HETATM   15  C15 STQ 5 624     -40.537 136.187   9.325  1.00 23.68     0.001 C 
HETATM   16  C16 STQ 5 624     -34.122 125.860   7.193  1.00 23.68     0.020 C 
HETATM   17  C17 STQ 5 624     -35.876 127.239   6.131  1.00 23.68     0.020 C 
HETATM   18  C18 STQ 5 624     -31.610 129.590   6.265  1.00 23.68     0.044 C 
HETATM   19  C19 STQ 5 624     -34.882 130.654  10.015  1.00 23.68     0.048 C 
HETATM   20  C20 STQ 5 624     -38.765 134.637  11.039  1.00 23.68     0.048 C 
HETATM   21  O3  STQ 5 624     -32.237 125.850   3.270  1.00 23.68    -0.395 OA
ATOM     22  H3  STQ 5 624     -31.525 126.228   2.768  1.00  0.00     0.210 HD
HETATM   23  C21 STQ 5 624     -49.944 144.755  11.018  1.00 23.68    -0.035 C 
HETATM   24  C22 STQ 5 624     -50.798 145.428  12.077  1.00 23.68     0.045 C 
HETATM   25  C23 STQ 5 624     -50.198 146.704  12.637  1.00 23.68     0.142 C 
HETATM   26  C24 STQ 5 624     -48.767 146.479  13.031  1.00 23.68     0.007 C 
HETATM   27  C25 STQ 5 624     -47.989 145.604  12.387  1.00 23.68    -0.077 C 
HETATM   28  C26 STQ 5 624     -48.536 144.475  11.553  1.00 23.68     0.044 C 
HETATM   29  C27 STQ 5 624     -47.596 144.124  10.417  1.00 23.68    -0.016 C 
HETATM   30  C28 STQ 5 624     -47.049 142.915  10.427  1.00 23.68     0.003 C 
HETATM   31  C29 STQ 5 624     -46.135 142.415   9.388  1.00 23.68    -0.062 C 
HETATM   32  C30 STQ 5 624     -45.588 141.216   9.611  1.00 23.68     0.007 C 
HETATM   33  C31 STQ 5 624     -44.676 140.525   8.710  1.00 23.68     0.001 C 
HETATM   34  C32 STQ 5 624     -43.809 139.687   9.262  1.00 23.68     0.007 C 
HETATM   35  C33 STQ 5 624     -42.846 138.892   8.488  1.00 23.68    -0.062 C 
HETATM   36  C34 STQ 5 624     -42.142 137.958   9.148  1.00 23.68     0.007 C 
HETATM   37  C35 STQ 5 624     -41.179 137.048   8.533  1.00 23.68     0.001 C 
HETATM   38  C36 STQ 5 624     -49.915 145.607   9.754  1.00 23.68     0.016 C 
HETATM   39  C37 STQ 5 624     -50.622 143.437  10.679  1.00 23.68     0.016 C 
HETATM   40  C38 STQ 5 624     -46.517 145.770  12.532  1.00 23.68     0.044 C 
HETATM   41  C39 STQ 5 624     -45.850 143.203   8.146  1.00 23.68     0.048 C 
HETATM   42  C40 STQ 5 624     -42.684 139.132   7.018  1.00 23.68     0.048 C 
HETATM   43  O23 STQ 5 624     -50.932 147.091  13.801  1.00 23.68    -0.392 OA
ATOM     44  H23 STQ 5 624     -51.838 147.234  13.552  1.00  0.00     0.210 HD
ENDROOT
TORSDOF 12
