REMARK VINA RESULT:    -7.210      1.646     16.875
REMARK INTER + INTRA:          -9.757
REMARK INTER:                  -9.419
REMARK INTRA:                  -0.338
REMARK UNBOUND:                -2.547
REMARK  0 active torsions:
REMARK  status: ('A' for Active; 'I' for Inactive)
REMARK       I    between atoms: C3_3  and  O3_21 
REMARK       I    between atoms: C6_6  and  C7_7 
REMARK       I    between atoms: C8_8  and  C9_9 
REMARK       I    between atoms: C10_10  and  C11_11 
REMARK       I    between atoms: C12_12  and  C13_13 
REMARK       I    between atoms: C14_14  and  C15_15 
REMARK       I    between atoms: C23_25  and  O23_43 
REMARK       I    between atoms: C26_28  and  C27_29 
REMARK       I    between atoms: C28_30  and  C29_31 
REMARK       I    between atoms: C30_32  and  C31_33 
REMARK       I    between atoms: C32_34  and  C33_35 
REMARK       I    between atoms: C34_36  and  C35_37 
ROOT
HETATM    1  C1  STQ 7 621     -50.019 145.076  13.245  1.00 16.14    -0.018 C 
HETATM    2  C2  STQ 7 621     -50.693 145.548  14.533  1.00 16.14     0.045 C 
HETATM    3  C3  STQ 7 621     -49.880 146.467  15.429  1.00 16.14     0.123 C 
HETATM    4  C4  STQ 7 621     -49.145 147.495  14.604  1.00 16.14     0.066 C 
HETATM    5  C5  STQ 7 621     -48.232 146.768  13.664  1.00 16.14    -0.074 C 
HETATM    6  C6  STQ 7 621     -48.682 145.732  12.946  1.00 16.14    -0.048 C 
HETATM    7  C7  STQ 7 621     -47.875 145.230  11.811  1.00 16.14     0.009 C 
HETATM    8  C8  STQ 7 621     -46.883 144.345  11.945  1.00 16.14     0.007 C 
HETATM    9  C9  STQ 7 621     -46.116 143.896  10.776  1.00 16.14    -0.062 C 
HETATM   10  C10 STQ 7 621     -45.167 142.964  10.967  1.00 16.14     0.007 C 
HETATM   11  C11 STQ 7 621     -44.293 142.365   9.956  1.00 16.14     0.001 C 
HETATM   12  C12 STQ 7 621     -43.328 141.576  10.423  1.00 16.14     0.007 C 
HETATM   13  C13 STQ 7 621     -42.370 140.828   9.589  1.00 16.14    -0.062 C 
HETATM   14  C14 STQ 7 621     -41.800 139.760  10.163  1.00 16.14     0.007 C 
HETATM   15  C15 STQ 7 621     -40.883 138.851   9.488  1.00 16.14     0.001 C 
HETATM   16  C16 STQ 7 621     -51.014 145.300  12.111  1.00 16.14     0.020 C 
HETATM   17  C17 STQ 7 621     -49.753 143.584  13.367  1.00 16.14     0.020 C 
HETATM   18  C18 STQ 7 621     -47.085 147.627  13.219  1.00 16.14     0.044 C 
HETATM   19  C19 STQ 7 621     -46.399 144.525   9.452  1.00 16.14     0.048 C 
HETATM   20  C20 STQ 7 621     -42.065 141.209   8.174  1.00 16.14     0.048 C 
HETATM   21  O3  STQ 7 621     -50.757 147.146  16.329  1.00 16.14    -0.395 OA
ATOM     22  H3  STQ 7 621     -50.249 147.721  16.890  1.00  0.00     0.210 HD
HETATM   23  C21 STQ 7 621     -34.231 128.406   6.871  1.00 16.14    -0.035 C 
HETATM   24  C22 STQ 7 621     -33.390 127.648   5.852  1.00 16.14     0.045 C 
HETATM   25  C23 STQ 7 621     -31.891 127.731   6.098  1.00 16.14     0.142 C 
HETATM   26  C24 STQ 7 621     -31.467 129.144   6.397  1.00 16.14     0.007 C 
HETATM   27  C25 STQ 7 621     -32.270 130.008   7.028  1.00 16.14    -0.077 C 
HETATM   28  C26 STQ 7 621     -33.772 129.863   6.998  1.00 16.14     0.044 C 
HETATM   29  C27 STQ 7 621     -34.387 130.515   8.222  1.00 16.14    -0.016 C 
HETATM   30  C28 STQ 7 621     -35.230 131.523   8.040  1.00 16.14     0.003 C 
HETATM   31  C29 STQ 7 621     -35.872 132.216   9.168  1.00 16.14    -0.062 C 
HETATM   32  C30 STQ 7 621     -36.926 132.986   8.886  1.00 16.14     0.007 C 
HETATM   33  C31 STQ 7 621     -37.670 133.746   9.879  1.00 16.14     0.001 C 
HETATM   34  C32 STQ 7 621     -38.348 134.768   9.381  1.00 16.14     0.007 C 
HETATM   35  C33 STQ 7 621     -39.169 135.703  10.163  1.00 16.14    -0.062 C 
HETATM   36  C34 STQ 7 621     -39.719 136.728   9.498  1.00 16.14     0.007 C 
HETATM   37  C35 STQ 7 621     -40.582 137.722  10.122  1.00 16.14     0.001 C 
HETATM   38  C36 STQ 7 621     -34.192 127.682   8.213  1.00 16.14     0.016 C 
HETATM   39  C37 STQ 7 621     -35.665 128.377   6.357  1.00 16.14     0.016 C 
HETATM   40  C38 STQ 7 621     -31.634 131.142   7.772  1.00 16.14     0.044 C 
HETATM   41  C39 STQ 7 621     -35.364 132.060  10.567  1.00 16.14     0.048 C 
HETATM   42  C40 STQ 7 621     -39.346 135.524  11.638  1.00 16.14     0.048 C 
HETATM   43  O23 STQ 7 621     -31.215 127.301   4.915  1.00 16.14    -0.392 OA
ATOM     44  H23 STQ 7 621     -30.278 127.353   5.068  1.00  0.00     0.210 HD
ENDROOT
TORSDOF 12
