REMARK VINA RESULT:    -8.050      1.449     16.471
REMARK INTER + INTRA:         -10.440
REMARK INTER:                  -9.776
REMARK INTRA:                  -0.665
REMARK UNBOUND:                -2.390
REMARK  0 active torsions:
REMARK  status: ('A' for Active; 'I' for Inactive)
REMARK       I    between atoms: C3_3  and  O3_21 
REMARK       I    between atoms: C6_6  and  C7_7 
REMARK       I    between atoms: C8_8  and  C9_9 
REMARK       I    between atoms: C10_10  and  C11_11 
REMARK       I    between atoms: C12_12  and  C13_13 
REMARK       I    between atoms: C14_14  and  C15_15 
REMARK       I    between atoms: C23_25  and  O23_43 
REMARK       I    between atoms: C26_28  and  C27_29 
REMARK       I    between atoms: C28_30  and  C29_31 
REMARK       I    between atoms: C30_32  and  C31_33 
REMARK       I    between atoms: C32_34  and  C33_35 
REMARK       I    between atoms: C34_36  and  C35_37 
ROOT
HETATM    1  C1  STQ 2 619     -50.785 144.511  11.264  1.00 46.63    -0.018 C 
HETATM    2  C2  STQ 2 619     -50.759 143.902  12.664  1.00 46.63     0.045 C 
HETATM    3  C3  STQ 2 619     -49.771 144.550  13.625  1.00 46.63     0.123 C 
HETATM    4  C4  STQ 2 619     -49.683 146.039  13.343  1.00 46.63     0.066 C 
HETATM    5  C5  STQ 2 619     -49.131 146.200  11.953  1.00 46.63    -0.074 C 
HETATM    6  C6  STQ 2 619     -49.608 145.409  10.987  1.00 46.63    -0.048 C 
HETATM    7  C7  STQ 2 619     -48.807 145.133   9.797  1.00 46.63     0.009 C 
HETATM    8  C8  STQ 2 619     -47.764 144.394  10.191  1.00 46.63     0.007 C 
HETATM    9  C9  STQ 2 619     -46.806 143.795   9.230  1.00 46.63    -0.062 C 
HETATM   10  C10 STQ 2 619     -45.952 142.866   9.697  1.00 46.63     0.007 C 
HETATM   11  C11 STQ 2 619     -44.996 142.139   8.858  1.00 46.63     0.001 C 
HETATM   12  C12 STQ 2 619     -44.245 141.180   9.388  1.00 46.63     0.007 C 
HETATM   13  C13 STQ 2 619     -43.296 140.400   8.567  1.00 46.63    -0.062 C 
HETATM   14  C14 STQ 2 619     -42.661 139.390   9.186  1.00 46.63     0.007 C 
HETATM   15  C15 STQ 2 619     -41.695 138.489   8.565  1.00 46.63     0.001 C 
HETATM   16  C16 STQ 2 619     -52.034 145.369  11.110  1.00 46.63     0.020 C 
HETATM   17  C17 STQ 2 619     -50.795 143.404  10.221  1.00 46.63     0.020 C 
HETATM   18  C18 STQ 2 619     -47.919 147.080  11.793  1.00 46.63     0.044 C 
HETATM   19  C19 STQ 2 619     -46.837 144.204   7.782  1.00 46.63     0.048 C 
HETATM   20  C20 STQ 2 619     -43.090 140.753   7.122  1.00 46.63     0.048 C 
HETATM   21  O3  STQ 2 619     -50.211 144.354  14.972  1.00 46.63    -0.395 OA
ATOM     22  H3  STQ 2 619     -49.595 144.758  15.572  1.00  0.00     0.210 HD
HETATM   23  C21 STQ 2 619     -34.237 128.481   6.973  1.00 46.63    -0.035 C 
HETATM   24  C22 STQ 2 619     -33.450 127.838   5.852  1.00 46.63     0.045 C 
HETATM   25  C23 STQ 2 619     -31.968 127.801   6.164  1.00 46.63     0.142 C 
HETATM   26  C24 STQ 2 619     -31.477 129.063   6.840  1.00 46.63     0.007 C 
HETATM   27  C25 STQ 2 619     -32.295 130.031   7.278  1.00 46.63    -0.077 C 
HETATM   28  C26 STQ 2 619     -33.784 129.924   7.142  1.00 46.63     0.044 C 
HETATM   29  C27 STQ 2 619     -34.536 130.496   8.318  1.00 46.63    -0.016 C 
HETATM   30  C28 STQ 2 619     -35.342 131.518   8.083  1.00 46.63     0.003 C 
HETATM   31  C29 STQ 2 619     -36.168 132.132   9.128  1.00 46.63    -0.062 C 
HETATM   32  C30 STQ 2 619     -36.975 133.106   8.693  1.00 46.63     0.007 C 
HETATM   33  C31 STQ 2 619     -37.910 133.860   9.511  1.00 46.63     0.001 C 
HETATM   34  C32 STQ 2 619     -38.617 134.787   8.874  1.00 46.63     0.007 C 
HETATM   35  C33 STQ 2 619     -39.598 135.648   9.550  1.00 46.63    -0.062 C 
HETATM   36  C34 STQ 2 619     -40.192 136.598   8.806  1.00 46.63     0.007 C 
HETATM   37  C35 STQ 2 619     -41.172 137.543   9.333  1.00 46.63     0.001 C 
HETATM   38  C36 STQ 2 619     -34.056 127.675   8.252  1.00 46.63     0.016 C 
HETATM   39  C37 STQ 2 619     -35.711 128.453   6.599  1.00 46.63     0.016 C 
HETATM   40  C38 STQ 2 619     -31.687 131.265   7.869  1.00 46.63     0.044 C 
HETATM   41  C39 STQ 2 619     -36.112 131.632  10.541  1.00 46.63     0.048 C 
HETATM   42  C40 STQ 2 619     -39.863 135.413  11.009  1.00 46.63     0.048 C 
HETATM   43  O23 STQ 2 619     -31.284 127.657   4.920  1.00 46.63    -0.392 OA
ATOM     44  H23 STQ 2 619     -31.592 126.865   4.496  1.00  0.00     0.210 HD
ENDROOT
TORSDOF 12
