REMARK VINA RESULT:    -8.578      1.350      1.886
REMARK INTER + INTRA:         -10.942
REMARK INTER:                  -8.436
REMARK INTRA:                  -2.506
REMARK UNBOUND:                -2.364
REMARK  0 active torsions:
REMARK  status: ('A' for Active; 'I' for Inactive)
REMARK       I    between atoms: C3_3  and  O3_21 
REMARK       I    between atoms: C6_6  and  C7_7 
REMARK       I    between atoms: C8_8  and  C9_9 
REMARK       I    between atoms: C10_10  and  C11_11 
REMARK       I    between atoms: C12_12  and  C13_13 
REMARK       I    between atoms: C14_14  and  C15_15 
REMARK       I    between atoms: C23_25  and  O23_43 
REMARK       I    between atoms: C26_28  and  C27_29 
REMARK       I    between atoms: C28_30  and  C29_31 
REMARK       I    between atoms: C30_32  and  C31_33 
REMARK       I    between atoms: C32_34  and  C33_35 
REMARK       I    between atoms: C34_36  and  C35_37 
ROOT
HETATM    1  C1  STQ V1620     -33.726 129.221   7.097  1.00 15.23    -0.018 C 
HETATM    2  C2  STQ V1620     -32.872 129.782   5.978  1.00 15.23     0.045 C 
HETATM    3  C3  STQ V1620     -31.957 130.907   6.387  1.00 15.23     0.123 C 
HETATM    4  C4  STQ V1620     -31.263 130.495   7.651  1.00 15.23     0.066 C 
HETATM    5  C5  STQ V1620     -32.258 130.295   8.751  1.00 15.23    -0.074 C 
HETATM    6  C6  STQ V1620     -33.464 129.797   8.465  1.00 15.23    -0.048 C 
HETATM    7  C7  STQ V1620     -34.629 130.055   9.317  1.00 15.23     0.009 C 
HETATM    8  C8  STQ V1620     -34.822 131.362   9.514  1.00 15.23     0.007 C 
HETATM    9  C9  STQ V1620     -36.043 131.875  10.164  1.00 15.23    -0.062 C 
HETATM   10  C10 STQ V1620     -36.303 133.182  10.020  1.00 15.23     0.007 C 
HETATM   11  C11 STQ V1620     -37.530 133.814  10.485  1.00 15.23     0.001 C 
HETATM   12  C12 STQ V1620     -37.817 135.042  10.081  1.00 15.23     0.007 C 
HETATM   13  C13 STQ V1620     -39.090 135.687  10.433  1.00 15.23    -0.062 C 
HETATM   14  C14 STQ V1620     -39.391 136.829   9.808  1.00 15.23     0.007 C 
HETATM   15  C15 STQ V1620     -40.633 137.569  10.003  1.00 15.23     0.001 C 
HETATM   16  C16 STQ V1620     -33.356 127.755   7.221  1.00 15.23     0.020 C 
HETATM   17  C17 STQ V1620     -35.184 129.385   6.708  1.00 15.23     0.020 C 
HETATM   18  C18 STQ V1620     -31.912 130.993  10.033  1.00 15.23     0.044 C 
HETATM   19  C19 STQ V1620     -36.953 130.936  10.903  1.00 15.23     0.048 C 
HETATM   20  C20 STQ V1620     -39.992 135.026  11.420  1.00 15.23     0.048 C 
HETATM   21  O3  STQ V1620     -30.949 131.076   5.397  1.00 15.23    -0.395 OA
ATOM     22  H3  STQ V1620     -31.389 131.338   4.596  1.00  0.00     0.210 HD
HETATM   23  C21 STQ V1620     -50.194 145.525   8.539  1.00 15.23    -0.035 C 
HETATM   24  C22 STQ V1620     -51.519 145.985   9.092  1.00 15.23     0.045 C 
HETATM   25  C23 STQ V1620     -51.501 147.460   9.409  1.00 15.23     0.142 C 
HETATM   26  C24 STQ V1620     -50.234 147.863  10.110  1.00 15.23     0.007 C 
HETATM   27  C25 STQ V1620     -49.150 147.094  10.177  1.00 15.23    -0.077 C 
HETATM   28  C26 STQ V1620     -49.085 145.735   9.563  1.00 15.23     0.044 C 
HETATM   29  C27 STQ V1620     -47.733 145.524   8.934  1.00 15.23    -0.016 C 
HETATM   30  C28 STQ V1620     -47.061 144.435   9.271  1.00 15.23     0.003 C 
HETATM   31  C29 STQ V1620     -45.749 144.106   8.706  1.00 15.23    -0.062 C 
HETATM   32  C30 STQ V1620     -45.266 142.912   9.057  1.00 15.23     0.007 C 
HETATM   33  C31 STQ V1620     -43.995 142.356   8.630  1.00 15.23     0.001 C 
HETATM   34  C32 STQ V1620     -43.648 141.180   9.137  1.00 15.23     0.007 C 
HETATM   35  C33 STQ V1620     -42.370 140.539   8.815  1.00 15.23    -0.062 C 
HETATM   36  C34 STQ V1620     -42.076 139.405   9.466  1.00 15.23     0.007 C 
HETATM   37  C35 STQ V1620     -40.840 138.659   9.286  1.00 15.23     0.001 C 
HETATM   38  C36 STQ V1620     -49.896 146.250   7.240  1.00 15.23     0.016 C 
HETATM   39  C37 STQ V1620     -50.340 144.055   8.220  1.00 15.23     0.016 C 
HETATM   40  C38 STQ V1620     -47.976 147.622  10.931  1.00 15.23     0.044 C 
HETATM   41  C39 STQ V1620     -45.075 145.059   7.770  1.00 15.23     0.048 C 
HETATM   42  C40 STQ V1620     -41.480 141.198   7.814  1.00 15.23     0.048 C 
HETATM   43  O23 STQ V1620     -52.598 147.709  10.277  1.00 15.23    -0.392 OA
ATOM     44  H23 STQ V1620     -53.399 147.454   9.834  1.00  0.00     0.210 HD
ENDROOT
TORSDOF 12
