REMARK VINA RESULT:   -12.439      0.000      0.000
REMARK INTER + INTRA:         -14.893
REMARK INTER:                 -12.439
REMARK INTRA:                  -2.454
REMARK UNBOUND:                -2.454
REMARK  0 active torsions:
REMARK  status: ('A' for Active; 'I' for Inactive)
REMARK       I    between atoms: C3_3  and  O3_21 
REMARK       I    between atoms: C6_6  and  C7_7 
REMARK       I    between atoms: C8_8  and  C9_9 
REMARK       I    between atoms: C10_10  and  C11_11 
REMARK       I    between atoms: C12_12  and  C13_13 
REMARK       I    between atoms: C14_14  and  C15_15 
REMARK       I    between atoms: C23_25  and  O23_43 
REMARK       I    between atoms: C26_28  and  C27_29 
REMARK       I    between atoms: C28_30  and  C29_31 
REMARK       I    between atoms: C30_32  and  C31_33 
REMARK       I    between atoms: C32_34  and  C33_35 
REMARK       I    between atoms: C34_36  and  C35_37 
ROOT
HETATM    1  C1  STQ S1621     -34.214 127.196   6.683  1.00 56.99    -0.018 C 
HETATM    2  C2  STQ S1621     -33.810 126.754   5.279  1.00 56.99     0.045 C 
HETATM    3  C3  STQ S1621     -32.652 127.482   4.609  1.00 56.99     0.123 C 
HETATM    4  C4  STQ S1621     -31.644 127.987   5.621  1.00 56.99     0.066 C 
HETATM    5  C5  STQ S1621     -32.357 128.836   6.634  1.00 56.99    -0.074 C 
HETATM    6  C6  STQ S1621     -33.515 128.451   7.169  1.00 56.99    -0.048 C 
HETATM    7  C7  STQ S1621     -34.122 129.251   8.266  1.00 56.99     0.009 C 
HETATM    8  C8  STQ S1621     -35.029 130.198   8.019  1.00 56.99     0.007 C 
HETATM    9  C9  STQ S1621     -35.671 131.024   9.060  1.00 56.99    -0.062 C 
HETATM   10  C10 STQ S1621     -36.547 131.943   8.650  1.00 56.99     0.007 C 
HETATM   11  C11 STQ S1621     -37.272 132.844   9.534  1.00 56.99     0.001 C 
HETATM   12  C12 STQ S1621     -37.866 133.866   8.930  1.00 56.99     0.007 C 
HETATM   13  C13 STQ S1621     -38.677 134.871   9.633  1.00 56.99    -0.062 C 
HETATM   14  C14 STQ S1621     -39.350 135.745   8.879  1.00 56.99     0.007 C 
HETATM   15  C15 STQ S1621     -40.224 136.764   9.434  1.00 56.99     0.001 C 
HETATM   16  C16 STQ S1621     -33.991 126.020   7.633  1.00 56.99     0.020 C 
HETATM   17  C17 STQ S1621     -35.697 127.501   6.653  1.00 56.99     0.020 C 
HETATM   18  C18 STQ S1621     -31.579 129.988   7.186  1.00 56.99     0.044 C 
HETATM   19  C19 STQ S1621     -35.359 130.862  10.513  1.00 56.99     0.048 C 
HETATM   20  C20 STQ S1621     -38.753 134.903  11.128  1.00 56.99     0.048 C 
HETATM   21  O3  STQ S1621     -31.986 126.574   3.727  1.00 56.99    -0.395 OA
ATOM     22  H3  STQ S1621     -32.618 126.258   3.092  1.00  0.00     0.210 HD
HETATM   23  C21 STQ S1621     -49.724 145.387   8.948  1.00 56.99    -0.035 C 
HETATM   24  C22 STQ S1621     -50.703 146.158   9.821  1.00 56.99     0.045 C 
HETATM   25  C23 STQ S1621     -50.157 147.494  10.288  1.00 56.99     0.142 C 
HETATM   26  C24 STQ S1621     -48.764 147.348  10.839  1.00 56.99     0.007 C 
HETATM   27  C25 STQ S1621     -47.905 146.426  10.396  1.00 56.99    -0.077 C 
HETATM   28  C26 STQ S1621     -48.372 145.203   9.654  1.00 56.99     0.044 C 
HETATM   29  C27 STQ S1621     -47.336 144.711   8.669  1.00 56.99    -0.016 C 
HETATM   30  C28 STQ S1621     -46.805 143.526   8.930  1.00 56.99     0.003 C 
HETATM   31  C29 STQ S1621     -45.807 142.854   8.092  1.00 56.99    -0.062 C 
HETATM   32  C30 STQ S1621     -45.339 141.712   8.580  1.00 56.99     0.007 C 
HETATM   33  C31 STQ S1621     -44.375 140.841   7.932  1.00 56.99     0.001 C 
HETATM   34  C32 STQ S1621     -43.560 140.175   8.734  1.00 56.99     0.007 C 
HETATM   35  C33 STQ S1621     -42.584 139.221   8.207  1.00 56.99    -0.062 C 
HETATM   36  C34 STQ S1621     -41.810 138.546   9.066  1.00 56.99     0.007 C 
HETATM   37  C35 STQ S1621     -40.874 137.545   8.581  1.00 56.99     0.001 C 
HETATM   38  C36 STQ S1621     -49.583 146.082   7.598  1.00 56.99     0.016 C 
HETATM   39  C37 STQ S1621     -50.342 144.016   8.704  1.00 56.99     0.016 C 
HETATM   40  C38 STQ S1621     -46.451 146.625  10.688  1.00 56.99     0.044 C 
HETATM   41  C39 STQ S1621     -45.355 143.406   6.776  1.00 56.99     0.048 C 
HETATM   42  C40 STQ S1621     -42.506 138.989   6.731  1.00 56.99     0.048 C 
HETATM   43  O23 STQ S1621     -50.998 148.010  11.322  1.00 56.99    -0.392 OA
ATOM     44  H23 STQ S1621     -50.657 148.846  11.615  1.00  0.00     0.210 HD
ENDROOT
TORSDOF 12
