REMARK VINA RESULT:    -8.479      1.512     16.707
REMARK INTER + INTRA:         -10.675
REMARK INTER:                  -9.932
REMARK INTRA:                  -0.743
REMARK UNBOUND:                -2.196
REMARK  0 active torsions:
REMARK  status: ('A' for Active; 'I' for Inactive)
REMARK       I    between atoms: C3_3  and  O3_21 
REMARK       I    between atoms: C6_6  and  C7_7 
REMARK       I    between atoms: C8_8  and  C9_9 
REMARK       I    between atoms: C10_10  and  C11_11 
REMARK       I    between atoms: C12_12  and  C13_13 
REMARK       I    between atoms: C14_14  and  C15_15 
REMARK       I    between atoms: C23_25  and  O23_43 
REMARK       I    between atoms: C26_28  and  C27_29 
REMARK       I    between atoms: C28_30  and  C29_31 
REMARK       I    between atoms: C30_32  and  C31_33 
REMARK       I    between atoms: C32_34  and  C33_35 
REMARK       I    between atoms: C34_36  and  C35_37 
ROOT
HETATM    1  C1  STQ 8 619     -50.797 144.697  12.229  1.00 35.06    -0.018 C 
HETATM    2  C2  STQ 8 619     -51.111 144.316  13.676  1.00 35.06     0.045 C 
HETATM    3  C3  STQ 8 619     -50.339 145.084  14.743  1.00 35.06     0.123 C 
HETATM    4  C4  STQ 8 619     -49.806 146.386  14.175  1.00 35.06     0.066 C 
HETATM    5  C5  STQ 8 619     -48.894 145.989  13.053  1.00 35.06    -0.074 C 
HETATM    6  C6  STQ 8 619     -49.414 145.274  12.055  1.00 35.06    -0.048 C 
HETATM    7  C7  STQ 8 619     -48.622 144.877  10.876  1.00 35.06     0.009 C 
HETATM    8  C8  STQ 8 619     -47.368 144.495  11.116  1.00 35.06     0.007 C 
HETATM    9  C9  STQ 8 619     -46.558 143.885  10.044  1.00 35.06    -0.062 C 
HETATM   10  C10 STQ 8 619     -45.523 143.123  10.424  1.00 35.06     0.007 C 
HETATM   11  C11 STQ 8 619     -44.697 142.353   9.504  1.00 35.06     0.001 C 
HETATM   12  C12 STQ 8 619     -43.805 141.513  10.010  1.00 35.06     0.007 C 
HETATM   13  C13 STQ 8 619     -42.990 140.641   9.157  1.00 35.06    -0.062 C 
HETATM   14  C14 STQ 8 619     -42.297 139.675   9.775  1.00 35.06     0.007 C 
HETATM   15  C15 STQ 8 619     -41.467 138.687   9.102  1.00 35.06     0.001 C 
HETATM   16  C16 STQ 8 619     -51.762 145.790  11.783  1.00 35.06     0.020 C 
HETATM   17  C17 STQ 8 619     -50.964 143.486  11.324  1.00 35.06     0.020 C 
HETATM   18  C18 STQ 8 619     -47.731 146.936  12.890  1.00 35.06     0.044 C 
HETATM   19  C19 STQ 8 619     -46.961 144.094   8.613  1.00 35.06     0.048 C 
HETATM   20  C20 STQ 8 619     -43.008 140.864   7.675  1.00 35.06     0.048 C 
HETATM   21  O3  STQ 8 619     -51.202 145.382  15.847  1.00 35.06    -0.395 OA
ATOM     22  H3  STQ 8 619     -50.721 145.860  16.512  1.00  0.00     0.210 HD
HETATM   23  C21 STQ 8 619     -34.210 128.391   6.967  1.00 35.06    -0.035 C 
HETATM   24  C22 STQ 8 619     -33.441 127.735   5.842  1.00 35.06     0.045 C 
HETATM   25  C23 STQ 8 619     -31.943 127.855   6.041  1.00 35.06     0.142 C 
HETATM   26  C24 STQ 8 619     -31.550 129.235   6.507  1.00 35.06     0.007 C 
HETATM   27  C25 STQ 8 619     -32.436 130.149   6.923  1.00 35.06    -0.077 C 
HETATM   28  C26 STQ 8 619     -33.914 129.882   6.975  1.00 35.06     0.044 C 
HETATM   29  C27 STQ 8 619     -34.551 130.523   8.186  1.00 35.06    -0.016 C 
HETATM   30  C28 STQ 8 619     -35.437 131.488   7.984  1.00 35.06     0.003 C 
HETATM   31  C29 STQ 8 619     -36.123 132.177   9.087  1.00 35.06    -0.062 C 
HETATM   32  C30 STQ 8 619     -36.992 133.129   8.724  1.00 35.06     0.007 C 
HETATM   33  C31 STQ 8 619     -37.774 133.948   9.636  1.00 35.06     0.001 C 
HETATM   34  C32 STQ 8 619     -38.541 134.882   9.089  1.00 35.06     0.007 C 
HETATM   35  C33 STQ 8 619     -39.358 135.805   9.887  1.00 35.06    -0.062 C 
HETATM   36  C34 STQ 8 619     -40.024 136.759   9.215  1.00 35.06     0.007 C 
HETATM   37  C35 STQ 8 619     -40.864 137.772   9.846  1.00 35.06     0.001 C 
HETATM   38  C36 STQ 8 619     -33.869 127.738   8.294  1.00 35.06     0.016 C 
HETATM   39  C37 STQ 8 619     -35.688 128.181   6.696  1.00 35.06     0.016 C 
HETATM   40  C38 STQ 8 619     -31.913 131.497   7.303  1.00 35.06     0.044 C 
HETATM   41  C39 STQ 8 619     -35.841 131.783  10.505  1.00 35.06     0.048 C 
HETATM   42  C40 STQ 8 619     -39.373 135.645  11.376  1.00 35.06     0.048 C 
HETATM   43  O23 STQ 8 619     -31.288 127.575   4.802  1.00 35.06    -0.392 OA
ATOM     44  H23 STQ 8 619     -31.535 126.706   4.508  1.00  0.00     0.210 HD
ENDROOT
TORSDOF 12
