REMARK VINA RESULT:    -9.209      0.000      0.000
REMARK INTER + INTRA:          -9.113
REMARK INTER:                  -9.209
REMARK INTRA:                   0.096
REMARK UNBOUND:                 0.096
REMARK  0 active torsions:
REMARK  status: ('A' for Active; 'I' for Inactive)
REMARK       I    between atoms: C3_3  and  O3_21 
REMARK       I    between atoms: C6_6  and  C7_7 
REMARK       I    between atoms: C8_8  and  C9_9 
REMARK       I    between atoms: C10_10  and  C11_11 
REMARK       I    between atoms: C12_12  and  C13_13 
REMARK       I    between atoms: C14_14  and  C15_15 
REMARK       I    between atoms: C23_25  and  O23_43 
REMARK       I    between atoms: C26_28  and  C27_29 
REMARK       I    between atoms: C28_30  and  C29_31 
REMARK       I    between atoms: C30_32  and  C31_33 
REMARK       I    between atoms: C32_34  and  C33_35 
REMARK       I    between atoms: C34_36  and  C35_37 
ROOT
HETATM    1  C1  STQ E4621     -34.133 128.188   7.212  1.00 16.11    -0.017 A 
HETATM    2  C2  STQ E4621     -33.358 127.360   6.173  1.00 15.05     0.049 A 
HETATM    3  C3  STQ E4621     -31.926 127.734   5.812  1.00 18.47     0.142 A 
HETATM    4  C4  STQ E4621     -31.385 129.019   6.460  1.00 15.72     0.012 A 
HETATM    5  C5  STQ E4621     -32.185 129.820   7.431  1.00 14.51    -0.056 A 
HETATM    6  C6  STQ E4621     -33.454 129.474   7.798  1.00 15.74    -0.044 A 
HETATM    7  C7  STQ E4621     -34.285 130.252   8.752  1.00 14.17     0.009 C 
HETATM    8  C8  STQ E4621     -34.997 131.365   8.511  1.00 12.66     0.007 C 
HETATM    9  C9  STQ E4621     -35.765 132.136   9.480  1.00 13.35    -0.062 C 
HETATM   10  C10 STQ E4621     -36.530 133.143   9.007  1.00 14.12     0.007 C 
HETATM   11  C11 STQ E4621     -37.436 133.971   9.768  1.00 17.35     0.001 C 
HETATM   12  C12 STQ E4621     -38.234 134.887   9.165  1.00 16.42     0.007 C 
HETATM   13  C13 STQ E4621     -39.255 135.735   9.789  1.00 15.51    -0.062 C 
HETATM   14  C14 STQ E4621     -39.974 136.552   8.989  1.00 14.68     0.007 C 
HETATM   15  C15 STQ E4621     -41.049 137.414   9.379  1.00 15.30     0.001 C 
HETATM   16  C16 STQ E4621     -34.393 127.161   8.338  1.00 14.06     0.020 C 
HETATM   17  C17 STQ E4621     -35.491 128.547   6.560  1.00 11.15     0.020 C 
HETATM   18  C18 STQ E4621     -31.404 130.994   7.890  1.00 14.35     0.048 C 
HETATM   19  C19 STQ E4621     -35.718 131.705  10.922  1.00 12.51     0.048 C 
HETATM   20  C20 STQ E4621     -39.457 135.608  11.268  1.00 15.42     0.048 C 
HETATM   21  O3  STQ E4621     -31.051 126.646   6.076  1.00 20.70    -0.392 OA
ATOM     22  H3  STQ E4621     -30.158 126.879   5.851  1.00  0.00     0.210 HD
HETATM   23  C21 STQ E4621     -50.992 145.752   9.994  1.00 21.70    -0.035 C 
HETATM   24  C22 STQ E4621     -52.071 146.538  10.758  1.00 19.94     0.045 C 
HETATM   25  C23 STQ E4621     -51.733 148.013  10.952  1.00 22.24     0.142 C 
HETATM   26  C24 STQ E4621     -50.252 148.259  11.308  1.00 22.23     0.007 C 
HETATM   27  C25 STQ E4621     -49.297 147.306  11.139  1.00 22.92    -0.077 C 
HETATM   28  C26 STQ E4621     -49.564 145.902  10.604  1.00 22.02     0.044 C 
HETATM   29  C27 STQ E4621     -48.427 145.427   9.692  1.00 21.48    -0.016 C 
HETATM   30  C28 STQ E4621     -47.740 144.258   9.822  1.00 19.73     0.003 C 
HETATM   31  C29 STQ E4621     -46.769 143.690   8.868  1.00 19.82    -0.062 C 
HETATM   32  C30 STQ E4621     -46.151 142.532   9.185  1.00 18.83     0.007 C 
HETATM   33  C31 STQ E4621     -45.196 141.819   8.365  1.00 18.73     0.001 C 
HETATM   34  C32 STQ E4621     -44.472 140.776   8.858  1.00 18.34     0.007 C 
HETATM   35  C33 STQ E4621     -43.433 139.966   8.201  1.00 16.35    -0.062 C 
HETATM   36  C34 STQ E4621     -42.772 139.060   8.953  1.00 13.70     0.007 C 
HETATM   37  C35 STQ E4621     -41.684 138.215   8.520  1.00 15.99     0.001 C 
HETATM   38  C36 STQ E4621     -50.995 146.217   8.503  1.00 20.64     0.016 C 
HETATM   39  C37 STQ E4621     -51.432 144.283  10.035  1.00 21.18     0.016 C 
HETATM   40  C38 STQ E4621     -47.910 147.698  11.531  1.00 23.47     0.044 C 
HETATM   41  C39 STQ E4621     -46.469 144.475   7.620  1.00 19.63     0.048 C 
HETATM   42  C40 STQ E4621     -43.118 140.252   6.761  1.00 14.68     0.048 C 
HETATM   43  O23 STQ E4621     -52.600 148.588  11.920  1.00 24.71    -0.392 OA
ATOM     44  H23 STQ E4621     -53.511 148.437  11.701  1.00  0.00     0.210 HD
ENDROOT
TORSDOF 12
