REMARK VINA RESULT:    -9.038      2.083     16.723
REMARK INTER + INTRA:          -9.409
REMARK INTER:                  -6.210
REMARK INTRA:                  -3.199
REMARK UNBOUND:                -0.371
REMARK  0 active torsions:
REMARK  status: ('A' for Active; 'I' for Inactive)
REMARK       I    between atoms: C3_3  and  O3_21 
REMARK       I    between atoms: C6_6  and  C7_7 
REMARK       I    between atoms: C8_8  and  C9_9 
REMARK       I    between atoms: C10_10  and  C11_11 
REMARK       I    between atoms: C12_12  and  C13_13 
REMARK       I    between atoms: C14_14  and  C15_15 
REMARK       I    between atoms: C23_25  and  O23_43 
REMARK       I    between atoms: C26_28  and  C27_29 
REMARK       I    between atoms: C28_30  and  C29_31 
REMARK       I    between atoms: C30_32  and  C31_33 
REMARK       I    between atoms: C32_34  and  C33_35 
REMARK       I    between atoms: C34_36  and  C35_37 
ROOT
HETATM    1  C1  STQ S1620     -34.511 128.359   6.378  1.00 71.46    -0.018 C 
HETATM    2  C2  STQ S1620     -33.474 127.779   5.432  1.00 75.98     0.045 C 
HETATM    3  C3  STQ S1620     -32.115 128.441   5.392  1.00 84.37     0.123 C 
HETATM    4  C4  STQ S1620     -31.608 128.713   6.780  1.00 79.68     0.066 C 
HETATM    5  C5  STQ S1620     -32.616 129.525   7.534  1.00 81.86    -0.074 C 
HETATM    6  C6  STQ S1620     -33.933 129.277   7.446  1.00 72.92    -0.048 C 
HETATM    7  C7  STQ S1620     -34.860 129.877   8.436  1.00 76.42     0.009 C 
HETATM    8  C8  STQ S1620     -35.324 131.116   8.284  1.00 69.46     0.007 C 
HETATM    9  C9  STQ S1620     -36.236 131.726   9.246  1.00 72.46    -0.062 C 
HETATM   10  C10 STQ S1620     -36.622 132.970   8.975  1.00 79.08     0.007 C 
HETATM   11  C11 STQ S1620     -37.530 133.716   9.816  1.00 85.60     0.001 C 
HETATM   12  C12 STQ S1620     -38.133 134.709   9.191  1.00 91.82     0.007 C 
HETATM   13  C13 STQ S1620     -39.122 135.564   9.843  1.00 91.68    -0.062 C 
HETATM   14  C14 STQ S1620     -39.678 136.519   9.100  1.00 95.81     0.007 C 
HETATM   15  C15 STQ S1620     -40.703 137.405   9.618  1.00 93.57     0.001 C 
HETATM   16  C16 STQ S1620     -35.253 127.161   6.952  1.00 75.59     0.020 C 
HETATM   17  C17 STQ S1620     -35.519 129.153   5.561  1.00 74.59     0.020 C 
HETATM   18  C18 STQ S1620     -31.990 130.166   8.734  1.00 90.73     0.044 C 
HETATM   19  C19 STQ S1620     -36.655 130.987  10.475  1.00 83.09     0.048 C 
HETATM   20  C20 STQ S1620     -39.511 135.334  11.270  1.00 93.53     0.048 C 
HETATM   21  O3  STQ S1620     -31.198 127.548   4.760  1.00 94.57    -0.395 OA
ATOM     22  H3  STQ S1620     -31.519 127.377   3.883  1.00  0.00     0.210 HD
HETATM   23  C21 STQ S1620     -50.529 145.330   8.636  1.00 93.68    -0.035 C 
HETATM   24  C22 STQ S1620     -51.690 145.904   9.441  1.00 91.14     0.045 C 
HETATM   25  C23 STQ S1620     -51.522 147.344   9.910  1.00 98.01     0.142 C 
HETATM   26  C24 STQ S1620     -50.088 147.710  10.222  1.00 91.63     0.007 C 
HETATM   27  C25 STQ S1620     -49.039 146.992   9.806  1.00 90.78    -0.077 C 
HETATM   28  C26 STQ S1620     -49.205 145.561   9.373  1.00 96.81     0.044 C 
HETATM   29  C27 STQ S1620     -48.065 145.101   8.494  1.00 98.92    -0.016 C 
HETATM   30  C28 STQ S1620     -47.256 144.157   8.958  1.00 95.46     0.003 C 
HETATM   31  C29 STQ S1620     -46.138 143.633   8.164  1.00 98.36    -0.062 C 
HETATM   32  C30 STQ S1620     -45.488 142.583   8.666  1.00 99.37     0.007 C 
HETATM   33  C31 STQ S1620     -44.372 141.915   8.018  1.00 94.54     0.001 C 
HETATM   34  C32 STQ S1620     -43.878 140.900   8.710  1.00 98.74     0.007 C 
HETATM   35  C33 STQ S1620     -42.770 140.051   8.257  1.00 97.67    -0.062 C 
HETATM   36  C34 STQ S1620     -42.326 139.123   9.109  1.00 93.99     0.007 C 
HETATM   37  C35 STQ S1620     -41.262 138.212   8.731  1.00 93.68     0.001 C 
HETATM   38  C36 STQ S1620     -50.505 145.901   7.219  1.00 98.37     0.016 C 
HETATM   39  C37 STQ S1620     -50.790 143.833   8.507  1.00 91.95     0.016 C 
HETATM   40  C38 STQ S1620     -47.693 147.649   9.794  1.00 91.00     0.044 C 
HETATM   41  C39 STQ S1620     -45.764 144.243   6.850  1.00 97.56     0.048 C 
HETATM   42  C40 STQ S1620     -42.183 140.204   6.888  1.00 95.91     0.048 C 
HETATM   43  O23 STQ S1620     -52.326 147.548  11.080  1.00 99.71    -0.392 OA
ATOM     44  H23 STQ S1620     -52.223 148.446  11.373  1.00  0.00     0.210 HD
ENDROOT
TORSDOF 12
