REMARK VINA RESULT:    -6.053      2.861      3.749
REMARK INTER + INTRA:         -20.433
REMARK INTER:                 -10.775
REMARK INTRA:                  -9.658
REMARK UNBOUND:                -9.427
REMARK  14 active torsions:
REMARK  status: ('A' for Active; 'I' for Inactive)
REMARK    1  A    between atoms: C1_1  and  C2_4 
REMARK    2  A    between atoms: C2_4  and  C3_5 
REMARK    3  A    between atoms: C3_5  and  C4_6 
REMARK    4  A    between atoms: C4_6  and  C5_7 
REMARK    5  A    between atoms: C5_7  and  C6_8 
REMARK    6  A    between atoms: C6_8  and  C7_9 
REMARK    7  A    between atoms: C7_9  and  C8_10 
REMARK    8  A    between atoms: C8_10  and  C9_11 
REMARK    9  A    between atoms: C9_11  and  CA_12 
REMARK   10  A    between atoms: CA_12  and  CB_13 
REMARK   11  A    between atoms: CB_13  and  CC_14 
REMARK   12  A    between atoms: CC_14  and  CD_15 
REMARK   13  A    between atoms: CD_15  and  CE_16 
REMARK   14  A    between atoms: CE_16  and  CF_17 
ROOT
HETATM    1  C7  PLM A 602     -40.275 136.837   6.249  1.00 65.92     0.000 C 
ENDROOT
BRANCH   1   2
HETATM    2  C8  PLM A 602     -39.656 136.207   7.471  1.00 63.91     0.000 C 
BRANCH   2   3
HETATM    3  C9  PLM A 602     -39.432 137.163   8.610  1.00 63.09     0.000 C 
BRANCH   3   4
HETATM    4  CA  PLM A 602     -40.167 136.813   9.873  1.00 60.21     0.000 C 
BRANCH   4   5
HETATM    5  CB  PLM A 602     -40.152 135.345  10.172  1.00 61.66     0.000 C 
BRANCH   5   6
HETATM    6  CC  PLM A 602     -39.497 134.978  11.476  1.00 61.80     0.000 C 
BRANCH   6   7
HETATM    7  CD  PLM A 602     -38.247 134.139  11.345  1.00 61.53     0.000 C 
BRANCH   7   8
HETATM    8  CE  PLM A 602     -37.861 133.790   9.927  1.00 61.91    -0.000 C 
BRANCH   8   9
HETATM    9  CF  PLM A 602     -37.333 132.388   9.741  1.00 62.58    -0.005 C 
HETATM   10  CG  PLM A 602     -37.768 131.729   8.455  1.00 63.16     0.005 C 
ENDBRANCH   8   9
ENDBRANCH   7   8
ENDBRANCH   6   7
ENDBRANCH   5   6
ENDBRANCH   4   5
ENDBRANCH   3   4
ENDBRANCH   2   3
ENDBRANCH   1   2
BRANCH   1  11
HETATM   11  C6  PLM A 602     -41.666 137.385   6.457  1.00 66.51     0.000 C 
BRANCH  11  12
HETATM   12  C5  PLM A 602     -42.694 136.346   6.831  1.00 67.98     0.000 C 
BRANCH  12  13
HETATM   13  C4  PLM A 602     -43.559 136.729   8.002  1.00 68.61     0.001 C 
BRANCH  13  14
HETATM   14  C3  PLM A 602     -43.450 138.194   8.388  1.00 69.45     0.010 C 
BRANCH  14  15
HETATM   15  C2  PLM A 602     -44.717 138.943   8.190  1.00 66.32     0.113 C 
BRANCH  15  16
HETATM   16  C1  PLM A 602     -45.679 138.775   9.346  1.00 67.00     0.172 C 
HETATM   17  O2  PLM A 602     -46.754 138.152   9.135  1.00 60.21    -0.648 OA
HETATM   18  O1  PLM A 602     -45.338 139.233  10.455  1.00 67.82    -0.648 OA
ENDBRANCH  15  16
ENDBRANCH  14  15
ENDBRANCH  13  14
ENDBRANCH  12  13
ENDBRANCH  11  12
ENDBRANCH   1  11
TORSDOF 14
