REMARK VINA RESULT:    -5.865      2.870      5.933
REMARK INTER + INTRA:         -20.123
REMARK INTER:                 -10.759
REMARK INTRA:                  -9.365
REMARK UNBOUND:                -9.458
REMARK  14 active torsions:
REMARK  status: ('A' for Active; 'I' for Inactive)
REMARK    1  A    between atoms: C1_1  and  C2_4 
REMARK    2  A    between atoms: C2_4  and  C3_5 
REMARK    3  A    between atoms: C3_5  and  C4_6 
REMARK    4  A    between atoms: C4_6  and  C5_7 
REMARK    5  A    between atoms: C5_7  and  C6_8 
REMARK    6  A    between atoms: C6_8  and  C7_9 
REMARK    7  A    between atoms: C7_9  and  C8_10 
REMARK    8  A    between atoms: C8_10  and  C9_11 
REMARK    9  A    between atoms: C9_11  and  CA_12 
REMARK   10  A    between atoms: CA_12  and  CB_13 
REMARK   11  A    between atoms: CB_13  and  CC_14 
REMARK   12  A    between atoms: CC_14  and  CD_15 
REMARK   13  A    between atoms: CD_15  and  CE_16 
REMARK   14  A    between atoms: CE_16  and  CF_17 
ROOT
HETATM    1  C7  PLM B 602     -39.868 136.281   7.194  1.00 58.71     0.000 C 
ENDROOT
BRANCH   1   2
HETATM    2  C6  PLM B 602     -39.880 135.101   8.135  1.00 58.80     0.000 C 
BRANCH   2   3
HETATM    3  C5  PLM B 602     -40.607 135.346   9.433  1.00 59.93     0.000 C 
BRANCH   3   4
HETATM    4  C4  PLM B 602     -39.772 135.998  10.502  1.00 61.23     0.001 C 
BRANCH   4   5
HETATM    5  C3  PLM B 602     -39.475 135.098  11.693  1.00 63.10     0.010 C 
BRANCH   5   6
HETATM    6  C2  PLM B 602     -38.355 134.148  11.452  1.00 62.51     0.113 C 
BRANCH   6   7
HETATM    7  C1  PLM B 602     -37.604 133.769  12.713  1.00 63.36     0.172 C 
HETATM    8  O1  PLM B 602     -38.253 133.719  13.779  1.00 65.45    -0.648 OA
HETATM    9  O2  PLM B 602     -36.366 133.550  12.626  1.00 57.35    -0.648 OA
ENDBRANCH   6   7
ENDBRANCH   5   6
ENDBRANCH   4   5
ENDBRANCH   3   4
ENDBRANCH   2   3
ENDBRANCH   1   2
BRANCH   1  10
HETATM   10  C8  PLM B 602     -41.040 136.349   6.245  1.00 57.29     0.000 C 
BRANCH  10  11
HETATM   11  C9  PLM B 602     -42.083 137.363   6.628  1.00 58.28     0.000 C 
BRANCH  11  12
HETATM   12  CA  PLM B 602     -43.285 136.795   7.324  1.00 58.29     0.000 C 
BRANCH  12  13
HETATM   13  CB  PLM B 602     -43.924 137.773   8.265  1.00 59.03     0.000 C 
BRANCH  13  14
HETATM   14  CC  PLM B 602     -43.019 138.872   8.751  1.00 60.78     0.000 C 
BRANCH  14  15
HETATM   15  CD  PLM B 602     -43.472 140.271   8.394  1.00 60.58     0.000 C 
BRANCH  15  16
HETATM   16  CE  PLM B 602     -42.643 140.964   7.333  1.00 60.32    -0.000 C 
BRANCH  16  17
HETATM   17  CF  PLM B 602     -43.380 141.335   6.067  1.00 59.80    -0.005 C 
HETATM   18  CG  PLM B 602     -44.568 140.457   5.771  1.00 60.49     0.005 C 
ENDBRANCH  16  17
ENDBRANCH  15  16
ENDBRANCH  14  15
ENDBRANCH  13  14
ENDBRANCH  12  13
ENDBRANCH  11  12
ENDBRANCH  10  11
ENDBRANCH   1  10
TORSDOF 14
