REMARK VINA RESULT:    -6.105      3.336      5.200
REMARK INTER + INTRA:         -14.063
REMARK INTER:                  -6.106
REMARK INTRA:                  -7.957
REMARK UNBOUND:                -7.958
REMARK  0 active torsions:
REMARK  status: ('A' for Active; 'I' for Inactive)
REMARK       I    between atoms: C1_1  and  C2_4 
REMARK       I    between atoms: C2_4  and  C3_5 
REMARK       I    between atoms: C3_5  and  C4_6 
REMARK       I    between atoms: C4_6  and  C5_7 
REMARK       I    between atoms: C5_7  and  C6_8 
REMARK       I    between atoms: C6_8  and  C7_9 
REMARK       I    between atoms: C7_9  and  C8_10 
REMARK       I    between atoms: C8_10  and  C9_11 
REMARK       I    between atoms: C9_11  and  CA_12 
REMARK       I    between atoms: CA_12  and  CB_13 
REMARK       I    between atoms: CB_13  and  CC_14 
REMARK       I    between atoms: CC_14  and  CD_15 
REMARK       I    between atoms: CD_15  and  CE_16 
REMARK       I    between atoms: CE_16  and  CF_17 
ROOT
HETATM    1  C1  PLM A 602     -46.048 138.475  15.975  1.00 67.00     0.172 C 
HETATM    2  O1  PLM A 602     -45.957 137.262  16.249  1.00 67.82    -0.648 OA
HETATM    3  O2  PLM A 602     -46.562 139.339  16.735  1.00 60.21    -0.648 OA
HETATM    4  C2  PLM A 602     -45.546 138.929  14.622  1.00 66.32     0.113 C 
HETATM    5  C3  PLM A 602     -46.604 139.584  13.809  1.00 69.45     0.010 C 
HETATM    6  C4  PLM A 602     -47.554 138.591  13.160  1.00 68.61     0.001 C 
HETATM    7  C5  PLM A 602     -47.507 138.606  11.655  1.00 67.98     0.000 C 
HETATM    8  C6  PLM A 602     -48.040 139.872  11.033  1.00 66.51     0.000 C 
HETATM    9  C7  PLM A 602     -48.457 139.728   9.590  1.00 65.92     0.000 C 
HETATM   10  C8  PLM A 602     -47.478 138.977   8.722  1.00 63.91     0.000 C 
HETATM   11  C9  PLM A 602     -46.084 139.541   8.736  1.00 63.09     0.000 C 
HETATM   12  CA  PLM A 602     -45.078 138.737   7.962  1.00 60.21     0.000 C 
HETATM   13  CB  PLM A 602     -43.674 138.928   8.451  1.00 61.66     0.000 C 
HETATM   14  CC  PLM A 602     -42.625 138.223   7.633  1.00 61.80     0.000 C 
HETATM   15  CD  PLM A 602     -41.207 138.412   8.121  1.00 61.53     0.000 C 
HETATM   16  CE  PLM A 602     -40.869 139.815   8.564  1.00 61.91    -0.000 C 
HETATM   17  CF  PLM A 602     -41.114 140.093  10.028  1.00 62.58    -0.005 C 
HETATM   18  CG  PLM A 602     -40.479 141.367  10.530  1.00 63.16     0.005 C 
ENDROOT
TORSDOF 14
