REMARK VINA RESULT:    -7.127      4.488      6.867
REMARK INTER + INTRA:         -14.382
REMARK INTER:                  -6.434
REMARK INTRA:                  -7.948
REMARK UNBOUND:                -7.255
REMARK  0 active torsions:
REMARK  status: ('A' for Active; 'I' for Inactive)
REMARK       I    between atoms: C1_1  and  C2_4 
REMARK       I    between atoms: C2_4  and  C3_5 
REMARK       I    between atoms: C3_5  and  C4_6 
REMARK       I    between atoms: C4_6  and  C5_7 
REMARK       I    between atoms: C5_7  and  C6_8 
REMARK       I    between atoms: C6_8  and  C7_9 
REMARK       I    between atoms: C7_9  and  C8_10 
REMARK       I    between atoms: C8_10  and  C9_11 
REMARK       I    between atoms: C9_11  and  CA_12 
REMARK       I    between atoms: CA_12  and  CB_13 
REMARK       I    between atoms: CB_13  and  CC_14 
REMARK       I    between atoms: CC_14  and  CD_15 
REMARK       I    between atoms: CD_15  and  CE_16 
REMARK       I    between atoms: CE_16  and  CF_17 
ROOT
HETATM    1  C1  PLM B 602     -39.828 136.420   8.529  1.00 63.36     0.172 C 
HETATM    2  O1  PLM B 602     -38.822 136.835   9.144  1.00 65.45    -0.648 OA
HETATM    3  O2  PLM B 602     -39.836 135.396   7.795  1.00 57.35    -0.648 OA
HETATM    4  C2  PLM B 602     -41.108 137.222   8.655  1.00 62.51     0.113 C 
HETATM    5  C3  PLM B 602     -41.807 137.427   7.357  1.00 63.10     0.010 C 
HETATM    6  C4  PLM B 602     -41.347 138.672   6.613  1.00 61.23     0.001 C 
HETATM    7  C5  PLM B 602     -42.348 139.796   6.618  1.00 59.93     0.000 C 
HETATM    8  C6  PLM B 602     -43.652 139.474   5.932  1.00 58.80     0.000 C 
HETATM    9  C7  PLM B 602     -44.517 140.677   5.641  1.00 58.71     0.000 C 
HETATM   10  C8  PLM B 602     -44.770 141.579   6.825  1.00 57.29     0.000 C 
HETATM   11  C9  PLM B 602     -45.211 140.854   8.067  1.00 58.28     0.000 C 
HETATM   12  CA  PLM B 602     -45.589 141.746   9.213  1.00 58.29     0.000 C 
HETATM   13  CB  PLM B 602     -45.893 140.981  10.467  1.00 59.03     0.000 C 
HETATM   14  CC  PLM B 602     -46.129 141.829  11.687  1.00 60.78     0.000 C 
HETATM   15  CD  PLM B 602     -46.332 141.052  12.970  1.00 60.58     0.000 C 
HETATM   16  CE  PLM B 602     -47.085 139.747  12.819  1.00 60.32    -0.000 C 
HETATM   17  CF  PLM B 602     -46.249 138.552  12.421  1.00 59.80    -0.005 C 
HETATM   18  CG  PLM B 602     -46.867 137.226  12.782  1.00 60.49     0.005 C 
ENDROOT
TORSDOF 14
