REMARK VINA RESULT:    -9.271      0.000      0.000
REMARK INTER + INTRA:         -16.526
REMARK INTER:                  -9.271
REMARK INTRA:                  -7.255
REMARK UNBOUND:                -7.255
REMARK  0 active torsions:
REMARK  status: ('A' for Active; 'I' for Inactive)
REMARK       I    between atoms: C1_1  and  C2_4 
REMARK       I    between atoms: C2_4  and  C3_5 
REMARK       I    between atoms: C3_5  and  C4_6 
REMARK       I    between atoms: C4_6  and  C5_7 
REMARK       I    between atoms: C5_7  and  C6_8 
REMARK       I    between atoms: C6_8  and  C7_9 
REMARK       I    between atoms: C7_9  and  C8_10 
REMARK       I    between atoms: C8_10  and  C9_11 
REMARK       I    between atoms: C9_11  and  CA_12 
REMARK       I    between atoms: CA_12  and  CB_13 
REMARK       I    between atoms: CB_13  and  CC_14 
REMARK       I    between atoms: CC_14  and  CD_15 
REMARK       I    between atoms: CD_15  and  CE_16 
REMARK       I    between atoms: CE_16  and  CF_17 
ROOT
HETATM    1  C1  PLM B 602     -35.054 130.550   7.469  1.00 63.36     0.172 C 
HETATM    2  O1  PLM B 602     -35.573 129.538   6.951  1.00 65.45    -0.648 OA
HETATM    3  O2  PLM B 602     -33.832 130.649   7.759  1.00 57.35    -0.648 OA
HETATM    4  C2  PLM B 602     -35.965 131.717   7.795  1.00 62.51     0.113 C 
HETATM    5  C3  PLM B 602     -35.719 132.300   9.142  1.00 63.10     0.010 C 
HETATM    6  C4  PLM B 602     -36.526 131.633  10.246  1.00 61.23     0.001 C 
HETATM    7  C5  PLM B 602     -37.657 132.474  10.774  1.00 59.93     0.000 C 
HETATM    8  C6  PLM B 602     -37.226 133.764  11.425  1.00 58.80     0.000 C 
HETATM    9  C7  PLM B 602     -38.302 134.441  12.240  1.00 58.71     0.000 C 
HETATM   10  C8  PLM B 602     -39.612 134.644  11.520  1.00 57.29     0.000 C 
HETATM   11  C9  PLM B 602     -39.474 135.254  10.151  1.00 58.28     0.000 C 
HETATM   12  CA  PLM B 602     -40.773 135.579   9.476  1.00 58.29     0.000 C 
HETATM   13  CB  PLM B 602     -40.588 136.059   8.066  1.00 59.03     0.000 C 
HETATM   14  CC  PLM B 602     -41.862 136.255   7.290  1.00 60.78     0.000 C 
HETATM   15  CD  PLM B 602     -41.667 136.639   5.839  1.00 60.58     0.000 C 
HETATM   16  CE  PLM B 602     -40.488 137.549   5.567  1.00 60.32    -0.000 C 
HETATM   17  CF  PLM B 602     -39.156 136.857   5.391  1.00 59.80    -0.005 C 
HETATM   18  CG  PLM B 602     -38.142 137.668   4.626  1.00 60.49     0.005 C 
ENDROOT
TORSDOF 14
