REMARK VINA RESULT:    -6.206      0.940      1.662
REMARK INTER + INTRA:         -20.713
REMARK INTER:                 -12.273
REMARK INTRA:                  -8.440
REMARK UNBOUND:                -9.427
REMARK  14 active torsions:
REMARK  status: ('A' for Active; 'I' for Inactive)
REMARK    1  A    between atoms: C1_1  and  C2_4 
REMARK    2  A    between atoms: C2_4  and  C3_5 
REMARK    3  A    between atoms: C3_5  and  C4_6 
REMARK    4  A    between atoms: C4_6  and  C5_7 
REMARK    5  A    between atoms: C5_7  and  C6_8 
REMARK    6  A    between atoms: C6_8  and  C7_9 
REMARK    7  A    between atoms: C7_9  and  C8_10 
REMARK    8  A    between atoms: C8_10  and  C9_11 
REMARK    9  A    between atoms: C9_11  and  CA_12 
REMARK   10  A    between atoms: CA_12  and  CB_13 
REMARK   11  A    between atoms: CB_13  and  CC_14 
REMARK   12  A    between atoms: CC_14  and  CD_15 
REMARK   13  A    between atoms: CD_15  and  CE_16 
REMARK   14  A    between atoms: CE_16  and  CF_17 
ROOT
HETATM    1  C7  PLM A 602     -39.962 136.553   9.801  1.00 65.92     0.000 C 
ENDROOT
BRANCH   1   2
HETATM    2  C8  PLM A 602     -40.073 135.157  10.361  1.00 63.91     0.000 C 
BRANCH   2   3
HETATM    3  C9  PLM A 602     -39.476 134.994  11.731  1.00 63.09     0.000 C 
BRANCH   3   4
HETATM    4  CA  PLM A 602     -37.992 134.757  11.742  1.00 60.21     0.000 C 
BRANCH   4   5
HETATM    5  CB  PLM A 602     -37.618 133.406  12.272  1.00 61.66     0.000 C 
BRANCH   5   6
HETATM    6  CC  PLM A 602     -36.964 132.498  11.265  1.00 61.80     0.000 C 
BRANCH   6   7
HETATM    7  CD  PLM A 602     -37.117 132.932   9.825  1.00 61.53     0.000 C 
BRANCH   7   8
HETATM    8  CE  PLM A 602     -37.709 131.890   8.906  1.00 61.91    -0.000 C 
BRANCH   8   9
HETATM    9  CF  PLM A 602     -36.719 131.229   7.978  1.00 62.58    -0.005 C 
HETATM   10  CG  PLM A 602     -35.274 131.487   8.329  1.00 63.16     0.005 C 
ENDBRANCH   8   9
ENDBRANCH   7   8
ENDBRANCH   6   7
ENDBRANCH   5   6
ENDBRANCH   4   5
ENDBRANCH   3   4
ENDBRANCH   2   3
ENDBRANCH   1   2
BRANCH   1  11
HETATM   11  C6  PLM A 602     -40.567 136.734   8.430  1.00 66.51     0.000 C 
BRANCH  11  12
HETATM   12  C5  PLM A 602     -39.566 137.044   7.345  1.00 67.98     0.000 C 
BRANCH  12  13
HETATM   13  C4  PLM A 602     -40.070 136.786   5.950  1.00 68.61     0.001 C 
BRANCH  13  14
HETATM   14  C3  PLM A 602     -39.216 137.422   4.866  1.00 69.45     0.010 C 
BRANCH  14  15
HETATM   15  C2  PLM A 602     -39.020 138.882   5.063  1.00 66.32     0.113 C 
BRANCH  15  16
HETATM   16  C1  PLM A 602     -38.131 139.498   4.004  1.00 67.00     0.172 C 
HETATM   17  O2  PLM A 602     -37.048 138.915   3.730  1.00 60.21    -0.648 OA
HETATM   18  O1  PLM A 602     -38.538 140.531   3.436  1.00 67.82    -0.648 OA
ENDBRANCH  15  16
ENDBRANCH  14  15
ENDBRANCH  13  14
ENDBRANCH  12  13
ENDBRANCH  11  12
ENDBRANCH   1  11
TORSDOF 14
