REMARK VINA RESULT:    -7.305      2.823      3.592
REMARK INTER + INTRA:         -15.262
REMARK INTER:                  -7.324
REMARK INTRA:                  -7.938
REMARK UNBOUND:                -7.958
REMARK  0 active torsions:
REMARK  status: ('A' for Active; 'I' for Inactive)
REMARK       I    between atoms: C1_1  and  C2_4 
REMARK       I    between atoms: C2_4  and  C3_5 
REMARK       I    between atoms: C3_5  and  C4_6 
REMARK       I    between atoms: C4_6  and  C5_7 
REMARK       I    between atoms: C5_7  and  C6_8 
REMARK       I    between atoms: C6_8  and  C7_9 
REMARK       I    between atoms: C7_9  and  C8_10 
REMARK       I    between atoms: C8_10  and  C9_11 
REMARK       I    between atoms: C9_11  and  CA_12 
REMARK       I    between atoms: CA_12  and  CB_13 
REMARK       I    between atoms: CB_13  and  CC_14 
REMARK       I    between atoms: CC_14  and  CD_15 
REMARK       I    between atoms: CD_15  and  CE_16 
REMARK       I    between atoms: CE_16  and  CF_17 
ROOT
HETATM    1  C1  PLM A 602     -39.340 137.866   4.879  1.00 67.00     0.172 C 
HETATM    2  O1  PLM A 602     -39.623 138.186   3.707  1.00 67.82    -0.648 OA
HETATM    3  O2  PLM A 602     -38.389 137.101   5.196  1.00 60.21    -0.648 OA
HETATM    4  C2  PLM A 602     -40.223 138.397   5.986  1.00 66.32     0.113 C 
HETATM    5  C3  PLM A 602     -40.846 137.314   6.790  1.00 69.45     0.010 C 
HETATM    6  C4  PLM A 602     -42.039 136.673   6.101  1.00 68.61     0.001 C 
HETATM    7  C5  PLM A 602     -43.339 136.873   6.833  1.00 67.98     0.000 C 
HETATM    8  C6  PLM A 602     -43.422 136.147   8.153  1.00 66.51     0.000 C 
HETATM    9  C7  PLM A 602     -44.828 135.925   8.653  1.00 65.92     0.000 C 
HETATM   10  C8  PLM A 602     -45.732 137.127   8.551  1.00 63.91     0.000 C 
HETATM   11  C9  PLM A 602     -45.200 138.358   9.232  1.00 63.09     0.000 C 
HETATM   12  CA  PLM A 602     -46.041 139.589   9.044  1.00 60.21     0.000 C 
HETATM   13  CB  PLM A 602     -45.257 140.860   9.176  1.00 61.66     0.000 C 
HETATM   14  CC  PLM A 602     -46.083 142.116   9.100  1.00 61.80     0.000 C 
HETATM   15  CD  PLM A 602     -45.299 143.400   9.234  1.00 61.53     0.000 C 
HETATM   16  CE  PLM A 602     -44.221 143.380  10.291  1.00 61.91    -0.000 C 
HETATM   17  CF  PLM A 602     -42.865 142.929   9.804  1.00 62.58    -0.005 C 
HETATM   18  CG  PLM A 602     -41.736 143.219  10.763  1.00 63.16     0.005 C 
ENDROOT
TORSDOF 14
