REMARK VINA RESULT:    -6.310      1.709      3.939
REMARK INTER + INTRA:         -20.932
REMARK INTER:                 -12.926
REMARK INTRA:                  -8.005
REMARK UNBOUND:                -9.458
REMARK  14 active torsions:
REMARK  status: ('A' for Active; 'I' for Inactive)
REMARK    1  A    between atoms: C1_1  and  C2_4 
REMARK    2  A    between atoms: C2_4  and  C3_5 
REMARK    3  A    between atoms: C3_5  and  C4_6 
REMARK    4  A    between atoms: C4_6  and  C5_7 
REMARK    5  A    between atoms: C5_7  and  C6_8 
REMARK    6  A    between atoms: C6_8  and  C7_9 
REMARK    7  A    between atoms: C7_9  and  C8_10 
REMARK    8  A    between atoms: C8_10  and  C9_11 
REMARK    9  A    between atoms: C9_11  and  CA_12 
REMARK   10  A    between atoms: CA_12  and  CB_13 
REMARK   11  A    between atoms: CB_13  and  CC_14 
REMARK   12  A    between atoms: CC_14  and  CD_15 
REMARK   13  A    between atoms: CD_15  and  CE_16 
REMARK   14  A    between atoms: CE_16  and  CF_17 
ROOT
HETATM    1  C7  PLM B 602     -37.993 133.721  10.959  1.00 58.71     0.000 C 
ENDROOT
BRANCH   1   2
HETATM    2  C6  PLM B 602     -38.704 134.428  12.088  1.00 58.80     0.000 C 
BRANCH   2   3
HETATM    3  C5  PLM B 602     -39.510 135.630  11.661  1.00 59.93     0.000 C 
BRANCH   3   4
HETATM    4  C4  PLM B 602     -39.081 136.235  10.352  1.00 61.23     0.001 C 
BRANCH   4   5
HETATM    5  C3  PLM B 602     -40.233 136.701   9.475  1.00 63.10     0.010 C 
BRANCH   5   6
HETATM    6  C2  PLM B 602     -39.919 136.676   8.021  1.00 62.51     0.113 C 
BRANCH   6   7
HETATM    7  C1  PLM B 602     -40.704 135.633   7.252  1.00 63.36     0.172 C 
HETATM    8  O1  PLM B 602     -40.501 134.432   7.533  1.00 65.45    -0.648 OA
HETATM    9  O2  PLM B 602     -41.499 136.026   6.357  1.00 57.35    -0.648 OA
ENDBRANCH   6   7
ENDBRANCH   5   6
ENDBRANCH   4   5
ENDBRANCH   3   4
ENDBRANCH   2   3
ENDBRANCH   1   2
BRANCH   1  10
HETATM   10  C8  PLM B 602     -36.933 132.739  11.393  1.00 57.29     0.000 C 
BRANCH  10  11
HETATM   11  C9  PLM B 602     -36.758 131.571  10.460  1.00 58.28     0.000 C 
BRANCH  11  12
HETATM   12  CA  PLM B 602     -37.503 131.687   9.164  1.00 58.29     0.000 C 
BRANCH  12  13
HETATM   13  CB  PLM B 602     -36.683 131.257   7.984  1.00 59.03     0.000 C 
BRANCH  13  14
HETATM   14  CC  PLM B 602     -35.231 130.994   8.281  1.00 60.78     0.000 C 
BRANCH  14  15
HETATM   15  CD  PLM B 602     -34.539 130.077   7.296  1.00 60.58     0.000 C 
BRANCH  15  16
HETATM   16  CE  PLM B 602     -33.219 129.504   7.769  1.00 60.32    -0.000 C 
BRANCH  16  17
HETATM   17  CF  PLM B 602     -32.336 128.919   6.691  1.00 59.80    -0.005 C 
HETATM   18  CG  PLM B 602     -32.678 127.498   6.325  1.00 60.49     0.005 C 
ENDBRANCH  16  17
ENDBRANCH  15  16
ENDBRANCH  14  15
ENDBRANCH  13  14
ENDBRANCH  12  13
ENDBRANCH  11  12
ENDBRANCH  10  11
ENDBRANCH   1  10
TORSDOF 14
