REMARK VINA RESULT:    -7.628      4.619      6.388
REMARK INTER + INTRA:         -14.883
REMARK INTER:                  -6.942
REMARK INTRA:                  -7.941
REMARK UNBOUND:                -7.255
REMARK  0 active torsions:
REMARK  status: ('A' for Active; 'I' for Inactive)
REMARK       I    between atoms: C1_1  and  C2_4 
REMARK       I    between atoms: C2_4  and  C3_5 
REMARK       I    between atoms: C3_5  and  C4_6 
REMARK       I    between atoms: C4_6  and  C5_7 
REMARK       I    between atoms: C5_7  and  C6_8 
REMARK       I    between atoms: C6_8  and  C7_9 
REMARK       I    between atoms: C7_9  and  C8_10 
REMARK       I    between atoms: C8_10  and  C9_11 
REMARK       I    between atoms: C9_11  and  CA_12 
REMARK       I    between atoms: CA_12  and  CB_13 
REMARK       I    between atoms: CB_13  and  CC_14 
REMARK       I    between atoms: CC_14  and  CD_15 
REMARK       I    between atoms: CD_15  and  CE_16 
REMARK       I    between atoms: CE_16  and  CF_17 
ROOT
HETATM    1  C1  PLM B 602     -39.913 137.731   5.608  1.00 63.36     0.172 C 
HETATM    2  O1  PLM B 602     -39.919 138.081   4.408  1.00 65.45    -0.648 OA
HETATM    3  O2  PLM B 602     -39.082 136.927   6.107  1.00 57.35    -0.648 OA
HETATM    4  C2  PLM B 602     -40.997 138.291   6.507  1.00 62.51     0.113 C 
HETATM    5  C3  PLM B 602     -41.618 137.268   7.392  1.00 63.10     0.010 C 
HETATM    6  C4  PLM B 602     -42.804 136.558   6.757  1.00 61.23     0.001 C 
HETATM    7  C5  PLM B 602     -44.138 136.958   7.327  1.00 59.93     0.000 C 
HETATM    8  C6  PLM B 602     -44.314 136.634   8.790  1.00 58.80     0.000 C 
HETATM    9  C7  PLM B 602     -45.740 136.722   9.280  1.00 58.71     0.000 C 
HETATM   10  C8  PLM B 602     -46.445 138.016   8.953  1.00 57.29     0.000 C 
HETATM   11  C9  PLM B 602     -45.655 139.250   9.292  1.00 58.28     0.000 C 
HETATM   12  CA  PLM B 602     -46.393 140.541   9.092  1.00 58.29     0.000 C 
HETATM   13  CB  PLM B 602     -45.525 141.744   9.315  1.00 59.03     0.000 C 
HETATM   14  CC  PLM B 602     -46.169 143.063   8.981  1.00 60.78     0.000 C 
HETATM   15  CD  PLM B 602     -45.257 144.264   9.108  1.00 60.58     0.000 C 
HETATM   16  CE  PLM B 602     -44.257 144.195  10.243  1.00 60.32    -0.000 C 
HETATM   17  CF  PLM B 602     -42.972 143.459   9.939  1.00 59.80    -0.005 C 
HETATM   18  CG  PLM B 602     -41.823 143.839  10.836  1.00 60.49     0.005 C 
ENDROOT
TORSDOF 14
