REMARK VINA RESULT:    -7.349      3.450      5.148
REMARK INTER + INTRA:         -15.307
REMARK INTER:                  -8.200
REMARK INTRA:                  -7.107
REMARK UNBOUND:                -7.958
REMARK  0 active torsions:
REMARK  status: ('A' for Active; 'I' for Inactive)
REMARK       I    between atoms: C1_1  and  C2_4 
REMARK       I    between atoms: C2_4  and  C3_5 
REMARK       I    between atoms: C3_5  and  C4_6 
REMARK       I    between atoms: C4_6  and  C5_7 
REMARK       I    between atoms: C5_7  and  C6_8 
REMARK       I    between atoms: C6_8  and  C7_9 
REMARK       I    between atoms: C7_9  and  C8_10 
REMARK       I    between atoms: C8_10  and  C9_11 
REMARK       I    between atoms: C9_11  and  CA_12 
REMARK       I    between atoms: CA_12  and  CB_13 
REMARK       I    between atoms: CB_13  and  CC_14 
REMARK       I    between atoms: CC_14  and  CD_15 
REMARK       I    between atoms: CD_15  and  CE_16 
REMARK       I    between atoms: CE_16  and  CF_17 
ROOT
HETATM    1  C1  PLM A 602     -34.978 130.502   7.623  1.00 67.00     0.172 C 
HETATM    2  O1  PLM A 602     -35.606 129.512   7.197  1.00 67.82    -0.648 OA
HETATM    3  O2  PLM A 602     -33.808 130.452   8.090  1.00 60.21    -0.648 OA
HETATM    4  C2  PLM A 602     -35.684 131.840   7.616  1.00 66.32     0.113 C 
HETATM    5  C3  PLM A 602     -35.779 132.442   8.971  1.00 69.45     0.010 C 
HETATM    6  C4  PLM A 602     -36.881 131.828   9.818  1.00 68.61     0.001 C 
HETATM    7  C5  PLM A 602     -37.973 132.797  10.183  1.00 67.98     0.000 C 
HETATM    8  C6  PLM A 602     -37.540 133.889  11.129  1.00 66.51     0.000 C 
HETATM    9  C7  PLM A 602     -38.672 134.550  11.877  1.00 65.92     0.000 C 
HETATM   10  C8  PLM A 602     -39.867 134.905  11.028  1.00 63.91     0.000 C 
HETATM   11  C9  PLM A 602     -39.545 135.770   9.841  1.00 63.09     0.000 C 
HETATM   12  CA  PLM A 602     -40.708 136.039   8.930  1.00 60.21     0.000 C 
HETATM   13  CB  PLM A 602     -40.292 136.349   7.524  1.00 61.66     0.000 C 
HETATM   14  CC  PLM A 602     -41.423 136.729   6.606  1.00 61.80     0.000 C 
HETATM   15  CD  PLM A 602     -41.010 137.043   5.186  1.00 61.53     0.000 C 
HETATM   16  CE  PLM A 602     -39.748 137.863   5.058  1.00 61.91    -0.000 C 
HETATM   17  CF  PLM A 602     -38.476 137.056   4.954  1.00 62.58    -0.005 C 
HETATM   18  CG  PLM A 602     -37.275 137.851   4.504  1.00 63.16     0.005 C 
ENDROOT
TORSDOF 14
