REMARK VINA RESULT:    -6.861      6.646      8.611
REMARK INTER + INTRA:         -14.116
REMARK INTER:                  -6.184
REMARK INTRA:                  -7.931
REMARK UNBOUND:                -7.255
REMARK  0 active torsions:
REMARK  status: ('A' for Active; 'I' for Inactive)
REMARK       I    between atoms: C1_1  and  C2_4 
REMARK       I    between atoms: C2_4  and  C3_5 
REMARK       I    between atoms: C3_5  and  C4_6 
REMARK       I    between atoms: C4_6  and  C5_7 
REMARK       I    between atoms: C5_7  and  C6_8 
REMARK       I    between atoms: C6_8  and  C7_9 
REMARK       I    between atoms: C7_9  and  C8_10 
REMARK       I    between atoms: C8_10  and  C9_11 
REMARK       I    between atoms: C9_11  and  CA_12 
REMARK       I    between atoms: CA_12  and  CB_13 
REMARK       I    between atoms: CB_13  and  CC_14 
REMARK       I    between atoms: CC_14  and  CD_15 
REMARK       I    between atoms: CD_15  and  CE_16 
REMARK       I    between atoms: CE_16  and  CF_17 
ROOT
HETATM    1  C1  PLM B 602     -46.687 137.467  13.444  1.00 63.36     0.172 C 
HETATM    2  O1  PLM B 602     -45.860 136.851  14.150  1.00 65.45    -0.648 OA
HETATM    3  O2  PLM B 602     -47.903 137.153  13.341  1.00 57.35    -0.648 OA
HETATM    4  C2  PLM B 602     -46.182 138.648  12.639  1.00 62.51     0.113 C 
HETATM    5  C3  PLM B 602     -46.684 138.668  11.239  1.00 63.10     0.010 C 
HETATM    6  C4  PLM B 602     -45.801 137.897  10.268  1.00 61.23     0.001 C 
HETATM    7  C5  PLM B 602     -45.005 138.770   9.336  1.00 59.93     0.000 C 
HETATM    8  C6  PLM B 602     -45.839 139.617   8.408  1.00 58.80     0.000 C 
HETATM    9  C7  PLM B 602     -45.070 140.231   7.264  1.00 58.71     0.000 C 
HETATM   10  C8  PLM B 602     -43.826 140.985   7.666  1.00 57.29     0.000 C 
HETATM   11  C9  PLM B 602     -44.036 141.961   8.792  1.00 58.28     0.000 C 
HETATM   12  CA  PLM B 602     -42.842 142.808   9.118  1.00 58.29     0.000 C 
HETATM   13  CB  PLM B 602     -43.055 143.668  10.329  1.00 59.03     0.000 C 
HETATM   14  CC  PLM B 602     -41.841 144.425  10.793  1.00 60.78     0.000 C 
HETATM   15  CD  PLM B 602     -42.032 145.209  12.073  1.00 60.58     0.000 C 
HETATM   16  CE  PLM B 602     -43.402 145.829  12.249  1.00 60.32    -0.000 C 
HETATM   17  CF  PLM B 602     -44.459 144.924  12.839  1.00 59.80    -0.005 C 
HETATM   18  CG  PLM B 602     -45.606 145.660  13.481  1.00 60.49     0.005 C 
ENDROOT
TORSDOF 14
