REMARK VINA RESULT:    -6.401      2.017      3.243
REMARK INTER + INTRA:         -14.359
REMARK INTER:                  -6.407
REMARK INTRA:                  -7.951
REMARK UNBOUND:                -7.958
REMARK  0 active torsions:
REMARK  status: ('A' for Active; 'I' for Inactive)
REMARK       I    between atoms: C1_1  and  C2_4 
REMARK       I    between atoms: C2_4  and  C3_5 
REMARK       I    between atoms: C3_5  and  C4_6 
REMARK       I    between atoms: C4_6  and  C5_7 
REMARK       I    between atoms: C5_7  and  C6_8 
REMARK       I    between atoms: C6_8  and  C7_9 
REMARK       I    between atoms: C7_9  and  C8_10 
REMARK       I    between atoms: C8_10  and  C9_11 
REMARK       I    between atoms: C9_11  and  CA_12 
REMARK       I    between atoms: CA_12  and  CB_13 
REMARK       I    between atoms: CB_13  and  CC_14 
REMARK       I    between atoms: CC_14  and  CD_15 
REMARK       I    between atoms: CD_15  and  CE_16 
REMARK       I    between atoms: CE_16  and  CF_17 
ROOT
HETATM    1  C1  PLM A 602     -40.671 136.370   7.979  1.00 67.00     0.172 C 
HETATM    2  O1  PLM A 602     -39.479 136.714   8.105  1.00 67.82    -0.648 OA
HETATM    3  O2  PLM A 602     -41.044 135.261   7.510  1.00 60.21    -0.648 OA
HETATM    4  C2  PLM A 602     -41.737 137.367   8.377  1.00 66.32     0.113 C 
HETATM    5  C3  PLM A 602     -42.650 137.706   7.255  1.00 69.45     0.010 C 
HETATM    6  C4  PLM A 602     -42.044 138.696   6.274  1.00 68.61     0.001 C 
HETATM    7  C5  PLM A 602     -42.774 140.010   6.212  1.00 67.98     0.000 C 
HETATM    8  C6  PLM A 602     -44.158 139.920   5.620  1.00 66.51     0.000 C 
HETATM    9  C7  PLM A 602     -44.700 141.230   5.102  1.00 65.92     0.000 C 
HETATM   10  C8  PLM A 602     -44.498 142.405   6.026  1.00 63.91     0.000 C 
HETATM   11  C9  PLM A 602     -45.050 142.204   7.410  1.00 63.09     0.000 C 
HETATM   12  CA  PLM A 602     -44.759 143.323   8.368  1.00 60.21     0.000 C 
HETATM   13  CB  PLM A 602     -44.757 142.884   9.801  1.00 61.66     0.000 C 
HETATM   14  CC  PLM A 602     -44.575 143.997  10.797  1.00 61.80     0.000 C 
HETATM   15  CD  PLM A 602     -44.573 143.560  12.244  1.00 61.53     0.000 C 
HETATM   16  CE  PLM A 602     -45.610 142.520  12.595  1.00 61.91    -0.000 C 
HETATM   17  CF  PLM A 602     -45.147 141.090  12.452  1.00 62.58    -0.005 C 
HETATM   18  CG  PLM A 602     -46.056 140.078  13.105  1.00 63.16     0.005 C 
ENDROOT
TORSDOF 14
