REMARK VINA RESULT:    -7.353      1.237      1.853
REMARK INTER + INTRA:         -15.311
REMARK INTER:                  -7.452
REMARK INTRA:                  -7.859
REMARK UNBOUND:                -7.958
REMARK  0 active torsions:
REMARK  status: ('A' for Active; 'I' for Inactive)
REMARK       I    between atoms: C1_1  and  C2_4 
REMARK       I    between atoms: C2_4  and  C3_5 
REMARK       I    between atoms: C3_5  and  C4_6 
REMARK       I    between atoms: C4_6  and  C5_7 
REMARK       I    between atoms: C5_7  and  C6_8 
REMARK       I    between atoms: C6_8  and  C7_9 
REMARK       I    between atoms: C7_9  and  C8_10 
REMARK       I    between atoms: C8_10  and  C9_11 
REMARK       I    between atoms: C9_11  and  CA_12 
REMARK       I    between atoms: CA_12  and  CB_13 
REMARK       I    between atoms: CB_13  and  CC_14 
REMARK       I    between atoms: CC_14  and  CD_15 
REMARK       I    between atoms: CD_15  and  CE_16 
REMARK       I    between atoms: CE_16  and  CF_17 
ROOT
HETATM    1  C1  PLM A 602     -38.458 134.957  11.585  1.00 67.00     0.172 C 
HETATM    2  O1  PLM A 602     -37.540 135.713  11.960  1.00 67.82    -0.648 OA
HETATM    3  O2  PLM A 602     -38.307 133.735  11.316  1.00 60.21    -0.648 OA
HETATM    4  C2  PLM A 602     -39.834 135.559  11.400  1.00 66.32     0.113 C 
HETATM    5  C3  PLM A 602     -40.348 135.398  10.016  1.00 69.45     0.010 C 
HETATM    6  C4  PLM A 602     -39.745 136.394   9.039  1.00 68.61     0.001 C 
HETATM    7  C5  PLM A 602     -40.751 137.345   8.448  1.00 67.98     0.000 C 
HETATM    8  C6  PLM A 602     -41.748 136.693   7.523  1.00 66.51     0.000 C 
HETATM    9  C7  PLM A 602     -42.423 137.645   6.566  1.00 65.92     0.000 C 
HETATM   10  C8  PLM A 602     -42.907 138.930   7.189  1.00 63.91     0.000 C 
HETATM   11  C9  PLM A 602     -43.830 138.737   8.361  1.00 63.09     0.000 C 
HETATM   12  CA  PLM A 602     -44.230 140.007   9.056  1.00 60.21     0.000 C 
HETATM   13  CB  PLM A 602     -44.609 139.796  10.490  1.00 61.66     0.000 C 
HETATM   14  CC  PLM A 602     -45.118 141.027  11.191  1.00 61.80     0.000 C 
HETATM   15  CD  PLM A 602     -45.503 140.820  12.638  1.00 61.53     0.000 C 
HETATM   16  CE  PLM A 602     -46.252 139.540  12.920  1.00 61.91    -0.000 C 
HETATM   17  CF  PLM A 602     -45.379 138.360  13.273  1.00 62.58    -0.005 C 
HETATM   18  CG  PLM A 602     -46.128 137.191  13.865  1.00 63.16     0.005 C 
ENDROOT
TORSDOF 14
