REMARK VINA RESULT:    -7.355      2.917      5.269
REMARK INTER + INTRA:         -15.313
REMARK INTER:                  -7.385
REMARK INTRA:                  -7.928
REMARK UNBOUND:                -7.958
REMARK  0 active torsions:
REMARK  status: ('A' for Active; 'I' for Inactive)
REMARK       I    between atoms: C1_1  and  C2_4 
REMARK       I    between atoms: C2_4  and  C3_5 
REMARK       I    between atoms: C3_5  and  C4_6 
REMARK       I    between atoms: C4_6  and  C5_7 
REMARK       I    between atoms: C5_7  and  C6_8 
REMARK       I    between atoms: C6_8  and  C7_9 
REMARK       I    between atoms: C7_9  and  C8_10 
REMARK       I    between atoms: C8_10  and  C9_11 
REMARK       I    between atoms: C9_11  and  CA_12 
REMARK       I    between atoms: CA_12  and  CB_13 
REMARK       I    between atoms: CB_13  and  CC_14 
REMARK       I    between atoms: CC_14  and  CD_15 
REMARK       I    between atoms: CD_15  and  CE_16 
REMARK       I    between atoms: CE_16  and  CF_17 
ROOT
HETATM    1  C1  PLM A 602     -47.101 137.603  14.206  1.00 67.00     0.172 C 
HETATM    2  O1  PLM A 602     -47.958 136.718  14.010  1.00 67.82    -0.648 OA
HETATM    3  O2  PLM A 602     -47.169 138.467  15.122  1.00 60.21    -0.648 OA
HETATM    4  C2  PLM A 602     -45.927 137.668  13.255  1.00 66.32     0.113 C 
HETATM    5  C3  PLM A 602     -45.823 138.979  12.563  1.00 69.45     0.010 C 
HETATM    6  C4  PLM A 602     -46.805 139.123  11.412  1.00 68.61     0.001 C 
HETATM    7  C5  PLM A 602     -46.144 139.263  10.067  1.00 67.98     0.000 C 
HETATM    8  C6  PLM A 602     -45.386 140.554   9.883  1.00 66.51     0.000 C 
HETATM    9  C7  PLM A 602     -45.145 140.934   8.443  1.00 65.92     0.000 C 
HETATM   10  C8  PLM A 602     -44.667 139.805   7.564  1.00 63.91     0.000 C 
HETATM   11  C9  PLM A 602     -43.425 139.119   8.064  1.00 63.09     0.000 C 
HETATM   12  CA  PLM A 602     -43.003 137.925   7.255  1.00 60.21     0.000 C 
HETATM   13  CB  PLM A 602     -42.199 136.937   8.044  1.00 61.66     0.000 C 
HETATM   14  CC  PLM A 602     -41.667 135.780   7.242  1.00 61.80     0.000 C 
HETATM   15  CD  PLM A 602     -40.854 134.780   8.032  1.00 61.53     0.000 C 
HETATM   16  CE  PLM A 602     -39.900 135.386   9.034  1.00 61.91    -0.000 C 
HETATM   17  CF  PLM A 602     -40.476 135.590  10.415  1.00 62.58    -0.005 C 
HETATM   18  CG  PLM A 602     -39.446 135.882  11.477  1.00 63.16     0.005 C 
ENDROOT
TORSDOF 14
