REMARK VINA RESULT:    -8.247      3.785      5.762
REMARK INTER + INTRA:         -15.502
REMARK INTER:                  -7.569
REMARK INTRA:                  -7.934
REMARK UNBOUND:                -7.255
REMARK  0 active torsions:
REMARK  status: ('A' for Active; 'I' for Inactive)
REMARK       I    between atoms: C1_1  and  C2_4 
REMARK       I    between atoms: C2_4  and  C3_5 
REMARK       I    between atoms: C3_5  and  C4_6 
REMARK       I    between atoms: C4_6  and  C5_7 
REMARK       I    between atoms: C5_7  and  C6_8 
REMARK       I    between atoms: C6_8  and  C7_9 
REMARK       I    between atoms: C7_9  and  C8_10 
REMARK       I    between atoms: C8_10  and  C9_11 
REMARK       I    between atoms: C9_11  and  CA_12 
REMARK       I    between atoms: CA_12  and  CB_13 
REMARK       I    between atoms: CB_13  and  CC_14 
REMARK       I    between atoms: CC_14  and  CD_15 
REMARK       I    between atoms: CD_15  and  CE_16 
REMARK       I    between atoms: CE_16  and  CF_17 
ROOT
HETATM    1  C1  PLM B 602     -38.501 135.183  11.598  1.00 63.36     0.172 C 
HETATM    2  O1  PLM B 602     -37.606 135.955  12.001  1.00 65.45    -0.648 OA
HETATM    3  O2  PLM B 602     -38.353 133.940  11.453  1.00 57.35    -0.648 OA
HETATM    4  C2  PLM B 602     -39.841 135.792  11.232  1.00 62.51     0.113 C 
HETATM    5  C3  PLM B 602     -40.397 135.272   9.953  1.00 63.10     0.010 C 
HETATM    6  C4  PLM B 602     -39.943 136.057   8.732  1.00 61.23     0.001 C 
HETATM    7  C5  PLM B 602     -41.013 136.922   8.124  1.00 59.93     0.000 C 
HETATM    8  C6  PLM B 602     -42.204 136.162   7.594  1.00 58.80     0.000 C 
HETATM    9  C7  PLM B 602     -43.111 136.971   6.698  1.00 58.71     0.000 C 
HETATM   10  C8  PLM B 602     -43.562 138.291   7.276  1.00 57.29     0.000 C 
HETATM   11  C9  PLM B 602     -44.092 138.198   8.681  1.00 58.28     0.000 C 
HETATM   12  CA  PLM B 602     -44.661 139.477   9.221  1.00 58.29     0.000 C 
HETATM   13  CB  PLM B 602     -45.054 139.370  10.665  1.00 59.03     0.000 C 
HETATM   14  CC  PLM B 602     -45.489 140.663  11.302  1.00 60.78     0.000 C 
HETATM   15  CD  PLM B 602     -45.784 140.571  12.784  1.00 60.58     0.000 C 
HETATM   16  CE  PLM B 602     -46.421 139.273  13.234  1.00 60.32    -0.000 C 
HETATM   17  CF  PLM B 602     -45.464 138.141  13.523  1.00 59.80    -0.005 C 
HETATM   18  CG  PLM B 602     -46.025 137.084  14.439  1.00 60.49     0.005 C 
ENDROOT
TORSDOF 14
