REMARK  2 active torsions:
REMARK  status: ('A' for Active; 'I' for Inactive)
REMARK       I    between atoms: C3_28  and  O3_32 
REMARK    1  A    between atoms: C6_23  and  C7_1 
REMARK       I    between atoms: C8_2  and  C9_3 
REMARK       I    between atoms: C10_4  and  C11_5 
REMARK       I    between atoms: C12_6  and  C13_7 
REMARK       I    between atoms: C14_8  and  C15_9 
REMARK       I    between atoms: C23_39  and  O23_43 
REMARK    2  A    between atoms: C26_34  and  C27_12 
REMARK       I    between atoms: C28_13  and  C29_14 
REMARK       I    between atoms: C30_15  and  C31_16 
REMARK       I    between atoms: C32_17  and  C33_18 
REMARK       I    between atoms: C34_19  and  C35_20 
ROOT
HETATM    1  C7  LUT 3 316     -59.142  35.744 214.134  1.00 78.35     0.009 C 
HETATM    2  C8  LUT 3 316     -58.368  35.593 215.207  1.00 77.95     0.007 C 
HETATM    3  C9  LUT 3 316     -58.675  34.619 216.270  1.00 78.35    -0.062 C 
HETATM    4  C10 LUT 3 316     -57.898  34.619 217.362  1.00 77.38     0.007 C 
HETATM    5  C11 LUT 3 316     -58.099  33.726 218.497  1.00 77.06     0.001 C 
HETATM    6  C12 LUT 3 316     -57.425  34.038 219.599  1.00 77.59     0.007 C 
HETATM    7  C13 LUT 3 316     -57.507  33.282 220.863  1.00 77.36    -0.062 C 
HETATM    8  C14 LUT 3 316     -56.829  33.763 221.915  1.00 75.86     0.007 C 
HETATM    9  C15 LUT 3 316     -56.844  33.129 223.227  1.00 74.54     0.001 C 
HETATM   10  C19 LUT 3 316     -59.827  33.668 216.133  1.00 79.41     0.048 C 
HETATM   11  C20 LUT 3 316     -58.328  32.030 220.969  1.00 77.68     0.048 C 
HETATM   12  C27 LUT 3 316     -53.780  32.012 233.531  1.00 93.06    -0.016 C 
HETATM   13  C28 LUT 3 316     -54.354  31.766 232.358  1.00 90.59     0.003 C 
HETATM   14  C29 LUT 3 316     -54.009  32.537 231.149  1.00 87.05    -0.062 C 
HETATM   15  C30 LUT 3 316     -54.738  32.339 230.044  1.00 83.33     0.007 C 
HETATM   16  C31 LUT 3 316     -54.492  33.056 228.798  1.00 80.71     0.001 C 
HETATM   17  C32 LUT 3 316     -55.272  32.742 227.770  1.00 78.86     0.007 C 
HETATM   18  C33 LUT 3 316     -55.167  33.374 226.443  1.00 77.40    -0.062 C 
HETATM   19  C34 LUT 3 316     -56.066  33.032 225.509  1.00 76.14     0.007 C 
HETATM   20  C35 LUT 3 316     -56.054  33.621 224.176  1.00 74.61     0.001 C 
HETATM   21  C39 LUT 3 316     -52.876  33.521 231.160  1.00 86.53     0.048 C 
HETATM   22  C40 LUT 3 316     -54.084  34.368 226.147  1.00 77.09     0.048 C 
ENDROOT
BRANCH   1  23
HETATM   23  C6  LUT 3 316     -58.783  36.750 213.108  1.00 78.84    -0.048 C 
HETATM   24  C1  LUT 3 316     -59.497  38.090 213.134  1.00 78.71    -0.018 C 
HETATM   25  C16 LUT 3 316     -60.983  37.826 213.357  1.00 78.56     0.020 C 
HETATM   26  C17 LUT 3 316     -58.954  38.901 214.305  1.00 78.60     0.020 C 
HETATM   27  C2  LUT 3 316     -59.342  38.915 211.854  1.00 77.73     0.045 C 
HETATM   28  C3  LUT 3 316     -58.597  38.239 210.710  1.00 76.79     0.123 C 
HETATM   29  C4  LUT 3 316     -57.372  37.523 211.245  1.00 76.86     0.066 C 
HETATM   30  C5  LUT 3 316     -57.840  36.467 212.207  1.00 77.66    -0.074 C 
HETATM   31  C18 LUT 3 316     -57.229  35.098 212.117  1.00 77.80     0.044 C 
HETATM   32  O3  LUT 3 316     -58.184  39.219 209.751  1.00 76.23    -0.395 OA
ATOM     33  H3  LUT 3 316     -57.719  38.797 209.038  1.00  0.00     0.210 HD
ENDBRANCH   1  23
BRANCH  12  34
HETATM   34  C26 LUT 3 316     -54.194  31.184 234.727  1.00 96.07     0.044 C 
HETATM   35  C21 LUT 3 316     -54.745  32.105 235.816  1.00 96.96    -0.035 C 
HETATM   36  C36 LUT 3 316     -53.830  33.309 236.013  1.00 96.87     0.016 C 
HETATM   37  C37 LUT 3 316     -56.112  32.615 235.379  1.00 97.09     0.016 C 
HETATM   38  C22 LUT 3 316     -54.914  31.353 237.129  1.00 97.38     0.045 C 
HETATM   39  C23 LUT 3 316     -53.611  30.735 237.615  1.00 98.02     0.142 C 
HETATM   40  C24 LUT 3 316     -52.897  30.009 236.498  1.00 97.48     0.007 C 
HETATM   41  C25 LUT 3 316     -53.037  30.348 235.207  1.00 96.88    -0.077 C 
HETATM   42  C38 LUT 3 316     -52.018  29.866 234.216  1.00 95.39     0.044 C 
HETATM   43  O23 LUT 3 316     -53.896  29.801 238.662  1.00 99.18    -0.392 OA
ATOM     44  H23 LUT 3 316     -54.345  30.257 239.364  1.00  0.00     0.210 HD
ENDBRANCH  12  34
TORSDOF 12
