REMARK  2 active torsions:
REMARK  status: ('A' for Active; 'I' for Inactive)
REMARK       I    between atoms: C3_28  and  O3_32 
REMARK    1  A    between atoms: C6_23  and  C7_1 
REMARK       I    between atoms: C8_2  and  C9_3 
REMARK       I    between atoms: C10_4  and  C11_5 
REMARK       I    between atoms: C12_6  and  C13_7 
REMARK       I    between atoms: C14_8  and  C15_9 
REMARK       I    between atoms: C23_39  and  O23_43 
REMARK    2  A    between atoms: C26_34  and  C27_12 
REMARK       I    between atoms: C28_13  and  C29_14 
REMARK       I    between atoms: C30_15  and  C31_16 
REMARK       I    between atoms: C32_17  and  C33_18 
REMARK       I    between atoms: C34_19  and  C35_20 
ROOT
HETATM    1  C7  LUT 8 314    -109.802  36.866 140.820  1.00 69.76     0.009 C 
HETATM    2  C8  LUT 8 314    -108.657  36.863 141.506  1.00 67.74     0.007 C 
HETATM    3  C9  LUT 8 314    -108.504  36.180 142.807  1.00 67.19    -0.062 C 
HETATM    4  C10 LUT 8 314    -107.342  36.336 143.455  1.00 64.55     0.007 C 
HETATM    5  C11 LUT 8 314    -107.028  35.753 144.758  1.00 61.91     0.001 C 
HETATM    6  C12 LUT 8 314    -105.902  36.196 145.312  1.00 60.53     0.007 C 
HETATM    7  C13 LUT 8 314    -105.391  35.775 146.630  1.00 59.33    -0.062 C 
HETATM    8  C14 LUT 8 314    -104.318  36.425 147.111  1.00 60.00     0.007 C 
HETATM    9  C15 LUT 8 314    -103.720  36.136 148.412  1.00 60.35     0.001 C 
HETATM   10  C19 LUT 8 314    -109.614  35.354 143.389  1.00 68.15     0.048 C 
HETATM   11  C20 LUT 8 314    -106.056  34.676 147.405  1.00 57.80     0.048 C 
HETATM   12  C27 LUT 8 314     -96.681  37.016 156.546  1.00 81.59    -0.016 C 
HETATM   13  C28 LUT 8 314     -97.719  36.675 155.783  1.00 79.39     0.003 C 
HETATM   14  C29 LUT 8 314     -97.868  37.162 154.395  1.00 75.56    -0.062 C 
HETATM   15  C30 LUT 8 314     -99.048  36.986 153.782  1.00 73.06     0.007 C 
HETATM   16  C31 LUT 8 314     -99.333  37.419 152.415  1.00 70.20     0.001 C 
HETATM   17  C32 LUT 8 314    -100.482  36.984 151.903  1.00 68.68     0.007 C 
HETATM   18  C33 LUT 8 314    -100.992  37.292 150.553  1.00 66.05    -0.062 C 
HETATM   19  C34 LUT 8 314    -102.092  36.645 150.132  1.00 63.06     0.007 C 
HETATM   20  C35 LUT 8 314    -102.697  36.884 148.826  1.00 60.73     0.001 C 
HETATM   21  C39 LUT 8 314     -96.724  37.828 153.687  1.00 73.18     0.048 C 
HETATM   22  C40 LUT 8 314    -100.307  38.301 149.680  1.00 66.25     0.048 C 
ENDROOT
BRANCH   1  23
HETATM   23  C6  LUT 8 314    -109.908  37.587 139.528  1.00 72.89    -0.048 C 
HETATM   24  C1  LUT 8 314    -110.572  38.953 139.547  1.00 73.63    -0.018 C 
HETATM   25  C16 LUT 8 314    -111.985  38.766 140.084  1.00 75.09     0.020 C 
HETATM   26  C17 LUT 8 314    -109.802  39.877 140.484  1.00 73.62     0.020 C 
HETATM   27  C2  LUT 8 314    -110.662  39.635 138.186  1.00 75.58     0.045 C 
HETATM   28  C3  LUT 8 314    -110.633  38.695 136.992  1.00 77.85     0.123 C 
HETATM   29  C4  LUT 8 314    -109.426  37.777 137.091  1.00 76.46     0.066 C 
HETATM   30  C5  LUT 8 314    -109.431  37.035 138.405  1.00 74.82    -0.074 C 
HETATM   31  C18 LUT 8 314    -108.879  35.640 138.406  1.00 74.16     0.044 C 
HETATM   32  O3  LUT 8 314    -110.539  39.474 135.793  1.00 79.25    -0.395 OA
ATOM     33  H3  LUT 8 314    -110.521  38.886 135.047  1.00  0.00     0.210 HD
ENDBRANCH   1  23
BRANCH  12  34
HETATM   34  C26 LUT 8 314     -96.587  36.483 157.962  1.00 82.52     0.044 C 
HETATM   35  C21 LUT 8 314     -96.619  37.633 158.970  1.00 83.87    -0.035 C 
HETATM   36  C36 LUT 8 314     -95.668  38.746 158.546  1.00 84.49     0.016 C 
HETATM   37  C37 LUT 8 314     -98.031  38.203 159.012  1.00 84.41     0.016 C 
HETATM   38  C22 LUT 8 314     -96.260  37.151 160.371  1.00 82.82     0.045 C 
HETATM   39  C23 LUT 8 314     -94.905  36.456 160.430  1.00 81.80     0.142 C 
HETATM   40  C24 LUT 8 314     -94.742  35.480 159.289  1.00 82.59     0.007 C 
HETATM   41  C25 LUT 8 314     -95.345  35.649 158.104  1.00 82.34    -0.077 C 
HETATM   42  C38 LUT 8 314     -94.763  34.986 156.893  1.00 81.79     0.044 C 
HETATM   43  O23 LUT 8 314     -94.800  35.735 161.663  1.00 80.62    -0.392 OA
ATOM     44  H23 LUT 8 314     -93.955  35.302 161.700  1.00  0.00     0.210 HD
ENDBRANCH  12  34
TORSDOF 12
