REMARK  2 active torsions:
REMARK  status: ('A' for Active; 'I' for Inactive)
REMARK       I    between atoms: C3_28  and  O3_32 
REMARK    1  A    between atoms: C6_23  and  C7_1 
REMARK       I    between atoms: C8_2  and  C9_3 
REMARK       I    between atoms: C10_4  and  C11_5 
REMARK       I    between atoms: C12_6  and  C13_7 
REMARK       I    between atoms: C14_8  and  C15_9 
REMARK       I    between atoms: C23_39  and  O23_43 
REMARK    2  A    between atoms: C26_34  and  C27_12 
REMARK       I    between atoms: C28_13  and  C29_14 
REMARK       I    between atoms: C30_15  and  C31_16 
REMARK       I    between atoms: C32_17  and  C33_18 
REMARK       I    between atoms: C34_19  and  C35_20 
ROOT
HETATM    1  C7  LUT 1 316      68.986   2.931 206.294  1.00 71.90     0.009 C 
HETATM    2  C8  LUT 1 316      69.456   1.807 205.748  1.00 71.51     0.007 C 
HETATM    3  C9  LUT 1 316      69.615   0.550 206.510  1.00 70.48    -0.062 C 
HETATM    4  C10 LUT 1 316      70.154  -0.505 205.880  1.00 69.46     0.007 C 
HETATM    5  C11 LUT 1 316      70.384  -1.812 206.493  1.00 69.85     0.001 C 
HETATM    6  C12 LUT 1 316      70.959  -2.734 205.721  1.00 72.15     0.007 C 
HETATM    7  C13 LUT 1 316      71.289  -4.106 206.161  1.00 73.74    -0.062 C 
HETATM    8  C14 LUT 1 316      72.089  -4.841 205.367  1.00 74.04     0.007 C 
HETATM    9  C15 LUT 1 316      72.514  -6.201 205.694  1.00 74.62     0.001 C 
HETATM   10  C19 LUT 1 316      69.179   0.458 207.942  1.00 70.45     0.048 C 
HETATM   11  C20 LUT 1 316      70.746  -4.660 207.448  1.00 72.89     0.048 C 
HETATM   12  C27 LUT 1 316      78.084 -15.383 204.219  1.00 98.61    -0.016 C 
HETATM   13  C28 LUT 1 316      77.358 -14.405 204.754  1.00 97.01     0.003 C 
HETATM   14  C29 LUT 1 316      77.050 -13.158 204.028  1.00 94.72    -0.062 C 
HETATM   15  C30 LUT 1 316      76.324 -12.226 204.661  1.00 91.32     0.007 C 
HETATM   16  C31 LUT 1 316      75.961 -10.938 204.075  1.00 87.88     0.001 C 
HETATM   17  C32 LUT 1 316      75.142 -10.174 204.792  1.00 84.19     0.007 C 
HETATM   18  C33 LUT 1 316      74.688  -8.833 204.382  1.00 80.79    -0.062 C 
HETATM   19  C34 LUT 1 316      73.820  -8.180 205.175  1.00 78.84     0.007 C 
HETATM   20  C35 LUT 1 316      73.345  -6.834 204.863  1.00 76.79     0.001 C 
HETATM   21  C39 LUT 1 316      77.546 -12.938 202.631  1.00 95.37     0.048 C 
HETATM   22  C40 LUT 1 316      75.209  -8.211 203.121  1.00 90.13     0.048 C 
ENDROOT
BRANCH   1  23
HETATM   23  C6  LUT 1 316      68.853   4.164 205.480  1.00 72.79    -0.048 C 
HETATM   24  C1  LUT 1 316      69.972   5.190 205.527  1.00 73.24    -0.018 C 
HETATM   25  C16 LUT 1 316      70.316   5.431 206.992  1.00 72.68     0.020 C 
HETATM   26  C17 LUT 1 316      71.187   4.612 204.813  1.00 73.05     0.020 C 
HETATM   27  C2  LUT 1 316      69.642   6.539 204.884  1.00 72.84     0.045 C 
HETATM   28  C3  LUT 1 316      68.204   6.747 204.428  1.00 72.53     0.123 C 
HETATM   29  C4  LUT 1 316      67.681   5.490 203.758  1.00 72.61     0.066 C 
HETATM   30  C5  LUT 1 316      67.767   4.340 204.726  1.00 72.68    -0.074 C 
HETATM   31  C18 LUT 1 316      66.600   3.401 204.835  1.00 72.13     0.044 C 
HETATM   32  O3  LUT 1 316      68.152   7.835 203.495  1.00 71.04    -0.395 OA
ATOM     33  H3  LUT 1 316      68.479   8.622 203.914  1.00  0.00     0.210 HD
ENDBRANCH   1  23
BRANCH  12  34
HETATM   34  C26 LUT 1 316      78.356 -16.613 205.059  1.00 99.69     0.044 C 
HETATM   35  C21 LUT 1 316      79.865 -16.809 205.184  1.00 90.36    -0.035 C 
HETATM   36  C36 LUT 1 316      80.530 -16.698 203.817  1.00 90.82     0.016 C 
HETATM   37  C37 LUT 1 316      80.421 -15.712 206.084  1.00 99.86     0.016 C 
HETATM   38  C22 LUT 1 316      80.192 -18.154 205.817  1.00 90.85     0.045 C 
HETATM   39  C23 LUT 1 316      79.588 -19.331 205.064  1.00 91.26     0.142 C 
HETATM   40  C24 LUT 1 316      78.153 -19.060 204.677  1.00 91.05     0.007 C 
HETATM   41  C25 LUT 1 316      77.674 -17.822 204.480  1.00 90.19    -0.077 C 
HETATM   42  C38 LUT 1 316      76.423 -17.648 203.673  1.00 99.64     0.044 C 
HETATM   43  O23 LUT 1 316      79.628 -20.489 205.906  1.00 91.59    -0.392 OA
ATOM     44  H23 LUT 1 316      79.251 -21.224 205.436  1.00  0.00     0.210 HD
ENDBRANCH  12  34
TORSDOF 12
