REMARK  2 active torsions:
REMARK  status: ('A' for Active; 'I' for Inactive)
REMARK       I    between atoms: C3_28  and  O3_32 
REMARK    1  A    between atoms: C6_23  and  C7_1 
REMARK       I    between atoms: C8_2  and  C9_3 
REMARK       I    between atoms: C10_4  and  C11_5 
REMARK       I    between atoms: C12_6  and  C13_7 
REMARK       I    between atoms: C14_8  and  C15_9 
REMARK       I    between atoms: C23_39  and  O23_43 
REMARK    2  A    between atoms: C26_34  and  C27_12 
REMARK       I    between atoms: C28_13  and  C29_14 
REMARK       I    between atoms: C30_15  and  C31_16 
REMARK       I    between atoms: C32_17  and  C33_18 
REMARK       I    between atoms: C34_19  and  C35_20 
ROOT
HETATM    1  C7  LUT 9 616     -17.722  32.458 117.675  1.00 74.01     0.009 C 
HETATM    2  C8  LUT 9 616     -16.681  31.654 117.476  1.00 71.77     0.007 C 
HETATM    3  C9  LUT 9 616     -16.057  30.876 118.560  1.00 69.92    -0.062 C 
HETATM    4  C10 LUT 9 616     -15.041  30.072 118.225  1.00 69.51     0.007 C 
HETATM    5  C11 LUT 9 616     -14.288  29.233 119.150  1.00 69.37     0.001 C 
HETATM    6  C12 LUT 9 616     -13.177  28.722 118.627  1.00 71.55     0.007 C 
HETATM    7  C13 LUT 9 616     -12.226  27.854 119.342  1.00 72.10    -0.062 C 
HETATM    8  C14 LUT 9 616     -11.080  27.547 118.711  1.00 74.51     0.007 C 
HETATM    9  C15 LUT 9 616     -10.046  26.710 119.310  1.00 77.06     0.001 C 
HETATM   10  C19 LUT 9 616     -16.542  30.996 119.974  1.00 68.71     0.048 C 
HETATM   11  C20 LUT 9 616     -12.529  27.341 120.719  1.00 70.74     0.048 C 
HETATM   12  C27 LUT 9 616      -0.543  21.641 120.122  1.00 90.90    -0.016 C 
HETATM   13  C28 LUT 9 616      -1.783  22.061 120.362  1.00 97.79     0.003 C 
HETATM   14  C29 LUT 9 616      -2.543  22.854 119.377  1.00 94.71    -0.062 C 
HETATM   15  C30 LUT 9 616      -3.753  23.312 119.729  1.00 92.10     0.007 C 
HETATM   16  C31 LUT 9 616      -4.589  24.119 118.843  1.00 90.22     0.001 C 
HETATM   17  C32 LUT 9 616      -5.756  24.516 119.340  1.00 87.90     0.007 C 
HETATM   18  C33 LUT 9 616      -6.738  25.344 118.614  1.00 85.43    -0.062 C 
HETATM   19  C34 LUT 9 616      -7.887  25.643 119.242  1.00 81.82     0.007 C 
HETATM   20  C35 LUT 9 616      -8.925  26.465 118.631  1.00 79.00     0.001 C 
HETATM   21  C39 LUT 9 616      -1.974  23.146 118.019  1.00 94.19     0.048 C 
HETATM   22  C40 LUT 9 616      -6.457  25.838 117.224  1.00 84.99     0.048 C 
ENDROOT
BRANCH   1  23
HETATM   23  C6  LUT 9 616     -18.283  33.207 116.530  1.00 75.82    -0.048 C 
HETATM   24  C1  LUT 9 616     -17.808  34.626 116.302  1.00 76.22    -0.018 C 
HETATM   25  C16 LUT 9 616     -17.719  35.302 117.665  1.00 75.57     0.020 C 
HETATM   26  C17 LUT 9 616     -16.420  34.574 115.676  1.00 77.01     0.020 C 
HETATM   27  C2  LUT 9 616     -18.721  35.460 115.401  1.00 77.20     0.045 C 
HETATM   28  C3  LUT 9 616     -19.958  34.762 114.844  1.00 77.70     0.123 C 
HETATM   29  C4  LUT 9 616     -19.650  33.322 114.484  1.00 77.16     0.066 C 
HETATM   30  C5  LUT 9 616     -19.166  32.620 115.722  1.00 77.00    -0.074 C 
HETATM   31  C18 LUT 9 616     -19.703  31.253 116.030  1.00 76.92     0.044 C 
HETATM   32  O3  LUT 9 616     -20.397  35.443 113.663  1.00 79.46    -0.395 OA
ATOM     33  H3  LUT 9 616     -21.167  35.008 113.316  1.00  0.00     0.210 HD
ENDBRANCH   1  23
BRANCH  12  34
HETATM   34  C26 LUT 9 616       0.184  20.842 121.184  1.00 93.11     0.044 C 
HETATM   35  C21 LUT 9 616       1.459  21.581 121.591  1.00 93.43    -0.035 C 
HETATM   36  C36 LUT 9 616       2.166  22.141 120.361  1.00 93.91     0.016 C 
HETATM   37  C37 LUT 9 616       1.071  22.743 122.499  1.00 93.24     0.016 C 
HETATM   38  C22 LUT 9 616       2.405  20.671 122.361  1.00 93.14     0.045 C 
HETATM   39  C23 LUT 9 616       2.795  19.437 121.560  1.00 93.43     0.142 C 
HETATM   40  C24 LUT 9 616       1.577  18.779 120.958  1.00 94.29     0.007 C 
HETATM   41  C25 LUT 9 616       0.441  19.442 120.694  1.00 94.25    -0.077 C 
HETATM   42  C38 LUT 9 616      -0.625  18.752 119.895  1.00 94.53     0.044 C 
HETATM   43  O23 LUT 9 616       3.438  18.503 122.434  1.00 92.63    -0.392 OA
ATOM     44  H23 LUT 9 616       3.681  17.733 121.934  1.00  0.00     0.210 HD
ENDBRANCH  12  34
TORSDOF 12
