REMARK  2 active torsions:
REMARK  status: ('A' for Active; 'I' for Inactive)
REMARK       I    between atoms: C3_28  and  O3_32 
REMARK    1  A    between atoms: C6_23  and  C7_1 
REMARK       I    between atoms: C8_2  and  C9_3 
REMARK       I    between atoms: C10_4  and  C11_5 
REMARK       I    between atoms: C12_6  and  C13_7 
REMARK       I    between atoms: C14_8  and  C15_9 
REMARK       I    between atoms: C23_39  and  O23_43 
REMARK    2  A    between atoms: C26_34  and  C27_12 
REMARK       I    between atoms: C28_13  and  C29_14 
REMARK       I    between atoms: C30_15  and  C31_16 
REMARK       I    between atoms: C32_17  and  C33_18 
REMARK       I    between atoms: C34_19  and  C35_20 
ROOT
HETATM    1  C7  LUT 2 615     -14.163  41.553 234.276  1.00 78.77     0.009 C 
HETATM    2  C8  LUT 2 615     -13.000  41.242 234.852  1.00 79.10     0.007 C 
HETATM    3  C9  LUT 2 615     -12.918  40.278 235.966  1.00 80.39    -0.062 C 
HETATM    4  C10 LUT 2 615     -11.711  39.994 236.478  1.00 81.39     0.007 C 
HETATM    5  C11 LUT 2 615     -11.514  39.059 237.583  1.00 81.92     0.001 C 
HETATM    6  C12 LUT 2 615     -10.277  38.925 238.054  1.00 82.76     0.007 C 
HETATM    7  C13 LUT 2 615      -9.939  38.030 239.176  1.00 83.90    -0.062 C 
HETATM    8  C14 LUT 2 615      -8.754  38.199 239.781  1.00 84.98     0.007 C 
HETATM    9  C15 LUT 2 615      -8.324  37.390 240.917  1.00 86.34     0.001 C 
HETATM   10  C19 LUT 2 615     -14.158  39.628 236.503  1.00 80.43     0.048 C 
HETATM   11  C20 LUT 2 615     -10.895  36.965 239.627  1.00 83.80     0.048 C 
HETATM   12  C27 LUT 2 615      -1.265  34.521 248.632  1.00 88.79    -0.016 C 
HETATM   13  C28 LUT 2 615      -2.334  34.519 247.839  1.00 89.77     0.003 C 
HETATM   14  C29 LUT 2 615      -2.417  35.358 246.629  1.00 89.92    -0.062 C 
HETATM   15  C30 LUT 2 615      -3.589  35.413 245.981  1.00 89.40     0.007 C 
HETATM   16  C31 LUT 2 615      -3.804  36.221 244.786  1.00 87.93     0.001 C 
HETATM   17  C32 LUT 2 615      -5.031  36.209 244.276  1.00 87.59     0.007 C 
HETATM   18  C33 LUT 2 615      -5.415  36.988 243.086  1.00 88.80    -0.062 C 
HETATM   19  C34 LUT 2 615      -6.663  36.864 242.606  1.00 88.99     0.007 C 
HETATM   20  C35 LUT 2 615      -7.125  37.625 241.449  1.00 88.02     0.001 C 
HETATM   21  C39 LUT 2 615      -1.229  36.135 246.142  1.00 89.99     0.048 C 
HETATM   22  C40 LUT 2 615      -4.429  37.912 242.436  1.00 89.61     0.048 C 
ENDROOT
BRANCH   1  23
HETATM   23  C6  LUT 2 615     -14.218  42.522 233.157  1.00 78.99    -0.048 C 
HETATM   24  C1  LUT 2 615     -14.630  43.952 233.453  1.00 79.94    -0.018 C 
HETATM   25  C16 LUT 2 615     -16.005  43.910 234.109  1.00 79.93     0.020 C 
HETATM   26  C17 LUT 2 615     -13.628  44.562 234.425  1.00 80.89     0.020 C 
HETATM   27  C2  LUT 2 615     -14.706  44.858 232.225  1.00 79.60     0.045 C 
HETATM   28  C3  LUT 2 615     -14.803  44.147 230.884  1.00 80.06     0.123 C 
HETATM   29  C4  LUT 2 615     -13.733  43.077 230.791  1.00 79.91     0.066 C 
HETATM   30  C5  LUT 2 615     -13.909  42.104 231.926  1.00 78.96    -0.074 C 
HETATM   31  C18 LUT 2 615     -13.736  40.643 231.633  1.00 77.35     0.044 C 
HETATM   32  O3  LUT 2 615     -14.607  45.097 229.831  1.00 80.93    -0.395 OA
ATOM     33  H3  LUT 2 615     -14.668  44.653 228.993  1.00  0.00     0.210 HD
ENDBRANCH   1  23
BRANCH  12  34
HETATM   34  C26 LUT 2 615      -1.279  33.640 249.864  1.00 87.65     0.044 C 
HETATM   35  C21 LUT 2 615      -1.192  34.521 251.109  1.00 86.56    -0.035 C 
HETATM   36  C36 LUT 2 615      -0.119  35.590 250.932  1.00 86.59     0.016 C 
HETATM   37  C37 LUT 2 615      -2.537  35.212 251.307  1.00 84.95     0.016 C 
HETATM   38  C22 LUT 2 615      -0.899  33.683 252.344  1.00 85.76     0.045 C 
HETATM   39  C23 LUT 2 615       0.408  32.914 252.216  1.00 84.08     0.142 C 
HETATM   40  C24 LUT 2 615       0.500  32.214 250.881  1.00 85.20     0.007 C 
HETATM   41  C25 LUT 2 615      -0.184  32.611 249.796  1.00 86.87    -0.077 C 
HETATM   42  C38 LUT 2 615       0.139  31.990 248.471  1.00 87.30     0.044 C 
HETATM   43  O23 LUT 2 615       0.482  31.933 253.258  1.00 82.24    -0.392 OA
ATOM     44  H23 LUT 2 615       0.424  32.373 254.098  1.00  0.00     0.210 HD
ENDBRANCH  12  34
TORSDOF 12
