REMARK  2 active torsions:
REMARK  status: ('A' for Active; 'I' for Inactive)
REMARK       I    between atoms: C3_28  and  O3_32 
REMARK    1  A    between atoms: C6_23  and  C7_1 
REMARK       I    between atoms: C8_2  and  C9_3 
REMARK       I    between atoms: C10_4  and  C11_5 
REMARK       I    between atoms: C12_6  and  C13_7 
REMARK       I    between atoms: C14_8  and  C15_9 
REMARK       I    between atoms: C23_39  and  O23_43 
REMARK    2  A    between atoms: C26_34  and  C27_12 
REMARK       I    between atoms: C28_13  and  C29_14 
REMARK       I    between atoms: C30_15  and  C31_16 
REMARK       I    between atoms: C32_17  and  C33_18 
REMARK       I    between atoms: C34_19  and  C35_20 
ROOT
HETATM    1  C7  LUT 7 615     -61.370  45.753 138.559  1.00 73.20     0.009 C 
HETATM    2  C8  LUT 7 615     -60.080  45.417 138.635  1.00 73.76     0.007 C 
HETATM    3  C9  LUT 7 615     -59.518  44.676 139.782  1.00 74.91    -0.062 C 
HETATM    4  C10 LUT 7 615     -58.189  44.510 139.827  1.00 76.80     0.007 C 
HETATM    5  C11 LUT 7 615     -57.492  43.816 140.907  1.00 78.16     0.001 C 
HETATM    6  C12 LUT 7 615     -56.163  43.824 140.841  1.00 79.81     0.007 C 
HETATM    7  C13 LUT 7 615     -55.288  43.207 141.854  1.00 80.85    -0.062 C 
HETATM    8  C14 LUT 7 615     -53.978  43.491 141.792  1.00 82.27     0.007 C 
HETATM    9  C15 LUT 7 615     -53.004  42.982 142.752  1.00 83.03     0.001 C 
HETATM   10  C19 LUT 7 615     -60.402  44.127 140.863  1.00 74.86     0.048 C 
HETATM   11  C20 LUT 7 615     -55.846  42.308 142.918  1.00 80.14     0.048 C 
HETATM   12  C27 LUT 7 615     -43.155  42.168 147.165  1.00 94.32    -0.016 C 
HETATM   13  C28 LUT 7 615     -44.443  42.014 146.873  1.00 91.91     0.003 C 
HETATM   14  C29 LUT 7 615     -45.045  42.504 145.619  1.00 88.65    -0.062 C 
HETATM   15  C30 LUT 7 615     -46.384  42.508 145.546  1.00 87.62     0.007 C 
HETATM   16  C31 LUT 7 615     -47.159  42.981 144.403  1.00 86.36     0.001 C 
HETATM   17  C32 LUT 7 615     -48.476  42.800 144.473  1.00 84.48     0.007 C 
HETATM   18  C33 LUT 7 615     -49.432  43.239 143.438  1.00 83.44    -0.062 C 
HETATM   19  C34 LUT 7 615     -50.725  42.913 143.578  1.00 83.36     0.007 C 
HETATM   20  C35 LUT 7 615     -51.732  43.353 142.619  1.00 83.46     0.001 C 
HETATM   21  C39 LUT 7 615     -44.192  42.983 144.482  1.00 86.98     0.048 C 
HETATM   22  C40 LUT 7 615     -48.975  44.058 142.268  1.00 83.08     0.048 C 
ENDROOT
BRANCH   1  23
HETATM   23  C6  LUT 7 615     -61.896  46.512 137.397  1.00 72.79    -0.048 C 
HETATM   24  C1  LUT 7 615     -62.143  48.000 137.580  1.00 73.60    -0.018 C 
HETATM   25  C16 LUT 7 615     -63.183  48.158 138.681  1.00 74.39     0.020 C 
HETATM   26  C17 LUT 7 615     -60.851  48.674 138.026  1.00 72.12     0.020 C 
HETATM   27  C2  LUT 7 615     -62.650  48.714 136.330  1.00 75.55     0.045 C 
HETATM   28  C3  LUT 7 615     -63.385  47.816 135.346  1.00 76.70     0.123 C 
HETATM   29  C4  LUT 7 615     -62.502  46.635 134.992  1.00 74.32     0.066 C 
HETATM   30  C5  LUT 7 615     -62.146  45.880 136.245  1.00 72.24    -0.074 C 
HETATM   31  C18 LUT 7 615     -62.085  44.384 136.157  1.00 72.14     0.044 C 
HETATM   32  O3  LUT 7 615     -63.687  48.555 134.157  1.00 78.13    -0.395 OA
ATOM     33  H3  LUT 7 615     -64.146  47.994 133.543  1.00  0.00     0.210 HD
ENDBRANCH   1  23
BRANCH  12  34
HETATM   34  C26 LUT 7 615     -42.671  41.640 148.500  1.00 96.06     0.044 C 
HETATM   35  C21 LUT 7 615     -42.107  42.796 149.331  1.00 96.64    -0.035 C 
HETATM   36  C36 LUT 7 615     -41.216  43.696 148.483  1.00 95.07     0.016 C 
HETATM   37  C37 LUT 7 615     -43.271  43.635 149.846  1.00 96.78     0.016 C 
HETATM   38  C22 LUT 7 615     -41.328  42.276 150.530  1.00 97.77     0.045 C 
HETATM   39  C23 LUT 7 615     -40.182  41.364 150.115  1.00 98.19     0.142 C 
HETATM   40  C24 LUT 7 615     -40.643  40.327 149.118  1.00 97.38     0.007 C 
HETATM   41  C25 LUT 7 615     -41.703  40.502 148.315  1.00 96.37    -0.077 C 
HETATM   42  C38 LUT 7 615     -41.942  39.514 147.215  1.00 95.67     0.044 C 
HETATM   43  O23 LUT 7 615     -39.663  40.695 151.271  1.00 98.22    -0.392 OA
ATOM     44  H23 LUT 7 615     -39.373  41.347 151.898  1.00  0.00     0.210 HD
ENDBRANCH  12  34
TORSDOF 12
