REMARK  2 active torsions:
REMARK  status: ('A' for Active; 'I' for Inactive)
REMARK       I    between atoms: C3_28  and  O3_32 
REMARK    1  A    between atoms: C6_23  and  C7_1 
REMARK       I    between atoms: C8_2  and  C9_3 
REMARK       I    between atoms: C10_4  and  C11_5 
REMARK       I    between atoms: C12_6  and  C13_7 
REMARK       I    between atoms: C14_8  and  C15_9 
REMARK       I    between atoms: C23_39  and  O23_43 
REMARK    2  A    between atoms: C26_34  and  C27_12 
REMARK       I    between atoms: C28_13  and  C29_14 
REMARK       I    between atoms: C30_15  and  C31_16 
REMARK       I    between atoms: C32_17  and  C33_18 
REMARK       I    between atoms: C34_19  and  C35_20 
ROOT
HETATM    1  C7  LUT 7 621     129.174 176.453 165.080  1.00 16.14     0.009 C 
HETATM    2  C8  LUT 7 621     129.187 176.922 166.331  1.00 16.14     0.007 C 
HETATM    3  C9  LUT 7 621     128.891 176.038 167.466  1.00 16.14    -0.062 C 
HETATM    4  C10 LUT 7 621     128.866 176.580 168.695  1.00 16.14     0.007 C 
HETATM    5  C11 LUT 7 621     128.586 175.899 169.961  1.00 16.14     0.001 C 
HETATM    6  C12 LUT 7 621     128.775 176.626 171.060  1.00 16.14     0.007 C 
HETATM    7  C13 LUT 7 621     128.505 176.167 172.435  1.00 16.14    -0.062 C 
HETATM    8  C14 LUT 7 621     128.300 177.127 173.346  1.00 16.14     0.007 C 
HETATM    9  C15 LUT 7 621     127.950 176.882 174.739  1.00 16.14     0.001 C 
HETATM   10  C19 LUT 7 621     128.676 174.584 167.201  1.00 16.14     0.048 C 
HETATM   11  C20 LUT 7 621     128.431 174.717 172.799  1.00 16.14     0.048 C 
HETATM   12  C27 LUT 7 621     125.433 179.137 184.832  1.00 16.14    -0.016 C 
HETATM   13  C28 LUT 7 621     125.578 178.566 183.643  1.00 16.14     0.003 C 
HETATM   14  C29 LUT 7 621     126.107 179.301 182.484  1.00 16.14    -0.062 C 
HETATM   15  C30 LUT 7 621     125.920 178.752 181.281  1.00 16.14     0.007 C 
HETATM   16  C31 LUT 7 621     126.386 179.341 180.035  1.00 16.14     0.001 C 
HETATM   17  C32 LUT 7 621     126.522 178.473 179.044  1.00 16.14     0.007 C 
HETATM   18  C33 LUT 7 621     126.987 178.799 177.689  1.00 16.14    -0.062 C 
HETATM   19  C34 LUT 7 621     127.140 177.775 176.839  1.00 16.14     0.007 C 
HETATM   20  C35 LUT 7 621     127.563 177.934 175.454  1.00 16.14     0.001 C 
HETATM   21  C39 LUT 7 621     126.821 180.606 182.651  1.00 16.14     0.048 C 
HETATM   22  C40 LUT 7 621     127.304 180.209 177.302  1.00 16.14     0.048 C 
ENDROOT
BRANCH   1  23
HETATM   23  C6  LUT 7 621     129.472 177.285 163.892  1.00 16.14    -0.048 C 
HETATM   24  C1  LUT 7 621     128.319 177.893 163.112  1.00 16.14    -0.018 C 
HETATM   25  C16 LUT 7 621     127.340 176.763 162.835  1.00 16.14     0.020 C 
HETATM   26  C17 LUT 7 621     127.603 178.967 163.924  1.00 16.14     0.020 C 
HETATM   27  C2  LUT 7 621     128.709 178.526 161.777  1.00 16.14     0.045 C 
HETATM   28  C3  LUT 7 621     130.143 178.320 161.320  1.00 16.14     0.123 C 
HETATM   29  C4  LUT 7 621     131.096 178.483 162.479  1.00 16.14     0.066 C 
HETATM   30  C5  LUT 7 621     130.744 177.459 163.515  1.00 16.14    -0.074 C 
HETATM   31  C18 LUT 7 621     131.874 176.638 164.064  1.00 16.14     0.044 C 
HETATM   32  O3  LUT 7 621     130.466 179.292 160.323  1.00 16.14    -0.395 OA
ATOM     33  H3  LUT 7 621     131.363 179.163 160.037  1.00  0.00     0.210 HD
ENDBRANCH   1  23
BRANCH  12  34
HETATM   34  C26 LUT 7 621     124.881 178.299 185.969  1.00 16.14     0.044 C 
HETATM   35  C21 LUT 7 621     123.524 178.840 186.434  1.00 16.14    -0.035 C 
HETATM   36  C36 LUT 7 621     123.532 180.361 186.551  1.00 16.14     0.016 C 
HETATM   37  C37 LUT 7 621     122.456 178.448 185.421  1.00 16.14     0.016 C 
HETATM   38  C22 LUT 7 621     123.108 178.224 187.763  1.00 16.14     0.045 C 
HETATM   39  C23 LUT 7 621     124.153 178.349 188.861  1.00 16.14     0.142 C 
HETATM   40  C24 LUT 7 621     125.522 177.983 188.352  1.00 16.14     0.007 C 
HETATM   41  C25 LUT 7 621     125.891 178.203 187.086  1.00 16.14    -0.077 C 
HETATM   42  C38 LUT 7 621     127.354 178.350 186.798  1.00 16.14     0.044 C 
HETATM   43  O23 LUT 7 621     123.811 177.448 189.916  1.00 16.14    -0.392 OA
ATOM     44  H23 LUT 7 621     124.464 177.526 190.602  1.00  0.00     0.210 HD
ENDBRANCH  12  34
TORSDOF 12
