REMARK  2 active torsions:
REMARK  status: ('A' for Active; 'I' for Inactive)
REMARK       I    between atoms: C3_28  and  O3_32 
REMARK    1  A    between atoms: C6_23  and  C7_1 
REMARK       I    between atoms: C8_2  and  C9_3 
REMARK       I    between atoms: C10_4  and  C11_5 
REMARK       I    between atoms: C12_6  and  C13_7 
REMARK       I    between atoms: C14_8  and  C15_9 
REMARK       I    between atoms: C23_39  and  O23_43 
REMARK    2  A    between atoms: C26_34  and  C27_12 
REMARK       I    between atoms: C28_13  and  C29_14 
REMARK       I    between atoms: C30_15  and  C31_16 
REMARK       I    between atoms: C32_17  and  C33_18 
REMARK       I    between atoms: C34_19  and  C35_20 
ROOT
HETATM    1  C7  LUT 2 617     258.028 161.679 147.937  1.00 73.56     0.009 C 
HETATM    2  C8  LUT 2 617     258.249 161.709 149.254  1.00 73.56     0.007 C 
HETATM    3  C9  LUT 2 617     257.822 160.602 150.130  1.00 73.56    -0.062 C 
HETATM    4  C10 LUT 2 617     257.813 160.801 151.456  1.00 73.56     0.007 C 
HETATM    5  C11 LUT 2 617     257.414 159.777 152.418  1.00 73.56     0.001 C 
HETATM    6  C12 LUT 2 617     257.715 159.989 153.697  1.00 73.56     0.007 C 
HETATM    7  C13 LUT 2 617     257.362 159.046 154.775  1.00 73.56    -0.062 C 
HETATM    8  C14 LUT 2 617     257.320 159.525 156.025  1.00 73.56     0.007 C 
HETATM    9  C15 LUT 2 617     256.967 158.722 157.191  1.00 73.56     0.001 C 
HETATM   10  C19 LUT 2 617     257.411 159.285 149.546  1.00 73.56     0.048 C 
HETATM   11  C20 LUT 2 617     257.066 157.604 154.483  1.00 73.56     0.048 C 
HETATM   12  C27 LUT 2 617     254.296 160.029 167.745  1.00 73.56    -0.016 C 
HETATM   13  C28 LUT 2 617     254.474 159.444 166.563  1.00 73.56     0.003 C 
HETATM   14  C29 LUT 2 617     254.936 160.158 165.358  1.00 73.56    -0.062 C 
HETATM   15  C30 LUT 2 617     255.090 159.442 164.236  1.00 73.56     0.007 C 
HETATM   16  C31 LUT 2 617     255.532 160.010 162.967  1.00 73.56     0.001 C 
HETATM   17  C32 LUT 2 617     255.686 159.187 161.931  1.00 73.56     0.007 C 
HETATM   18  C33 LUT 2 617     256.116 159.687 160.614  1.00 73.56    -0.062 C 
HETATM   19  C34 LUT 2 617     256.258 158.859 159.563  1.00 73.56     0.007 C 
HETATM   20  C35 LUT 2 617     256.666 159.426 158.277  1.00 73.56     0.001 C 
HETATM   21  C39 LUT 2 617     255.221 161.630 165.390  1.00 73.56     0.048 C 
HETATM   22  C40 LUT 2 617     256.388 161.152 160.464  1.00 73.56     0.048 C 
ENDROOT
BRANCH   1  23
HETATM   23  C6  LUT 2 617     258.443 162.776 147.028  1.00 73.56    -0.048 C 
HETATM   24  C1  LUT 2 617     257.420 163.832 146.636  1.00 73.56    -0.018 C 
HETATM   25  C16 LUT 2 617     256.149 163.091 146.240  1.00 73.56     0.020 C 
HETATM   26  C17 LUT 2 617     257.104 164.748 147.817  1.00 73.56     0.020 C 
HETATM   27  C2  LUT 2 617     257.842 164.721 145.464  1.00 73.56     0.045 C 
HETATM   28  C3  LUT 2 617     259.241 164.536 144.880  1.00 73.56     0.123 C 
HETATM   29  C4  LUT 2 617     260.230 164.077 145.940  1.00 73.56     0.066 C 
HETATM   30  C5  LUT 2 617     259.689 162.809 146.543  1.00 73.56    -0.074 C 
HETATM   31  C18 LUT 2 617     260.566 161.589 146.546  1.00 73.56     0.044 C 
HETATM   32  O3  LUT 2 617     259.684 165.783 144.330  1.00 73.56    -0.395 OA
ATOM     33  H3  LUT 2 617     260.554 165.668 143.967  1.00  0.00     0.210 HD
ENDBRANCH   1  23
BRANCH  12  34
HETATM   34  C26 LUT 2 617     253.813 159.143 168.875  1.00 73.56     0.044 C 
HETATM   35  C21 LUT 2 617     252.571 159.720 169.554  1.00 73.56    -0.035 C 
HETATM   36  C36 LUT 2 617     252.821 161.150 170.024  1.00 73.56     0.016 C 
HETATM   37  C37 LUT 2 617     251.433 159.752 168.538  1.00 73.56     0.016 C 
HETATM   38  C22 LUT 2 617     252.134 158.829 170.719  1.00 73.56     0.045 C 
HETATM   39  C23 LUT 2 617     253.239 158.405 171.689  1.00 73.56     0.142 C 
HETATM   40  C24 LUT 2 617     254.567 158.188 170.994  1.00 73.56     0.007 C 
HETATM   41  C25 LUT 2 617     254.877 158.909 169.909  1.00 73.56    -0.077 C 
HETATM   42  C38 LUT 2 617     256.255 159.481 169.757  1.00 73.56     0.044 C 
HETATM   43  O23 LUT 2 617     252.853 157.188 172.336  1.00 73.56    -0.392 OA
ATOM     44  H23 LUT 2 617     253.539 156.925 172.938  1.00  0.00     0.210 HD
ENDBRANCH  12  34
TORSDOF 12
