REMARK  2 active torsions:
REMARK  status: ('A' for Active; 'I' for Inactive)
REMARK       I    between atoms: C3_28  and  O3_32 
REMARK    1  A    between atoms: C6_23  and  C7_1 
REMARK       I    between atoms: C8_2  and  C9_3 
REMARK       I    between atoms: C10_4  and  C11_5 
REMARK       I    between atoms: C12_6  and  C13_7 
REMARK       I    between atoms: C14_8  and  C15_9 
REMARK       I    between atoms: C23_39  and  O23_43 
REMARK    2  A    between atoms: C26_34  and  C27_12 
REMARK       I    between atoms: C28_13  and  C29_14 
REMARK       I    between atoms: C30_15  and  C31_16 
REMARK       I    between atoms: C32_17  and  C33_18 
REMARK       I    between atoms: C34_19  and  C35_20 
ROOT
HETATM    1  C7  LUT 1 618     210.873 215.156 216.153  1.00 19.63     0.009 C 
HETATM    2  C8  LUT 1 618     209.726 214.496 216.323  1.00 19.63     0.007 C 
HETATM    3  C9  LUT 1 618     209.670 213.162 216.950  1.00 19.63    -0.062 C 
HETATM    4  C10 LUT 1 618     208.566 212.431 216.770  1.00 19.63     0.007 C 
HETATM    5  C11 LUT 1 618     208.372 211.086 217.305  1.00 19.63     0.001 C 
HETATM    6  C12 LUT 1 618     207.262 210.487 216.895  1.00 19.63     0.007 C 
HETATM    7  C13 LUT 1 618     206.810 209.129 217.237  1.00 19.63    -0.062 C 
HETATM    8  C14 LUT 1 618     205.612 208.766 216.761  1.00 19.63     0.007 C 
HETATM    9  C15 LUT 1 618     205.030 207.447 216.965  1.00 19.63     0.001 C 
HETATM   10  C19 LUT 1 618     210.815 212.639 217.762  1.00 19.63     0.048 C 
HETATM   11  C20 LUT 1 618     207.651 208.198 218.054  1.00 19.63     0.048 C 
HETATM   12  C27 LUT 1 618     197.481 199.932 216.890  1.00 19.63    -0.016 C 
HETATM   13  C28 LUT 1 618     198.596 200.562 216.541  1.00 19.63     0.003 C 
HETATM   14  C29 LUT 1 618     198.711 202.022 216.404  1.00 19.63    -0.062 C 
HETATM   15  C30 LUT 1 618     199.919 202.506 216.098  1.00 19.63     0.007 C 
HETATM   16  C31 LUT 1 618     200.223 203.919 215.921  1.00 19.63     0.001 C 
HETATM   17  C32 LUT 1 618     201.436 204.297 216.304  1.00 19.63     0.007 C 
HETATM   18  C33 LUT 1 618     201.952 205.669 216.198  1.00 19.63    -0.062 C 
HETATM   19  C34 LUT 1 618     203.237 205.877 216.503  1.00 19.63     0.007 C 
HETATM   20  C35 LUT 1 618     203.859 207.189 216.393  1.00 19.63     0.001 C 
HETATM   21  C39 LUT 1 618     197.532 202.923 216.609  1.00 19.63     0.048 C 
HETATM   22  C40 LUT 1 618     201.065 206.794 215.773  1.00 19.63     0.048 C 
ENDROOT
BRANCH   1  23
HETATM   23  C6  LUT 1 618     210.937 216.488 215.500  1.00 19.63    -0.048 C 
HETATM   24  C1  LUT 1 618     211.405 216.546 214.056  1.00 19.63    -0.018 C 
HETATM   25  C16 LUT 1 618     212.713 215.781 213.984  1.00 19.63     0.020 C 
HETATM   26  C17 LUT 1 618     210.399 215.874 213.129  1.00 19.63     0.020 C 
HETATM   27  C2  LUT 1 618     211.657 217.950 213.513  1.00 19.63     0.045 C 
HETATM   28  C3  LUT 1 618     211.475 219.113 214.475  1.00 19.63     0.123 C 
HETATM   29  C4  LUT 1 618     210.301 218.855 215.395  1.00 19.63     0.066 C 
HETATM   30  C5  LUT 1 618     210.629 217.609 216.158  1.00 19.63    -0.074 C 
HETATM   31  C18 LUT 1 618     210.645 217.701 217.652  1.00 19.63     0.044 C 
HETATM   32  O3  LUT 1 618     211.225 220.300 213.719  1.00 19.63    -0.395 OA
ATOM     33  H3  LUT 1 618     211.962 220.462 213.142  1.00  0.00     0.210 HD
ENDBRANCH   1  23
BRANCH  12  34
HETATM   34  C26 LUT 1 618     197.548 198.421 216.990  1.00 19.63     0.044 C 
HETATM   35  C21 LUT 1 618     196.557 197.743 216.033  1.00 19.63    -0.035 C 
HETATM   36  C36 LUT 1 618     195.191 198.412 216.064  1.00 19.63     0.016 C 
HETATM   37  C37 LUT 1 618     197.082 197.860 214.610  1.00 19.63     0.016 C 
HETATM   38  C22 LUT 1 618     196.410 196.259 216.349  1.00 19.63     0.045 C 
HETATM   39  C23 LUT 1 618     196.068 195.971 217.804  1.00 19.63     0.142 C 
HETATM   40  C24 LUT 1 618     196.958 196.752 218.728  1.00 19.63     0.007 C 
HETATM   41  C25 LUT 1 618     197.379 197.978 218.422  1.00 19.63    -0.077 C 
HETATM   42  C38 LUT 1 618     197.702 198.902 219.556  1.00 19.63     0.044 C 
HETATM   43  O23 LUT 1 618     196.238 194.578 218.083  1.00 19.63    -0.392 OA
ATOM     44  H23 LUT 1 618     196.025 194.398 218.991  1.00  0.00     0.210 HD
ENDBRANCH  12  34
TORSDOF 12
