REMARK  2 active torsions:
REMARK  status: ('A' for Active; 'I' for Inactive)
REMARK       I    between atoms: C3_28  and  O3_32 
REMARK    1  A    between atoms: C6_23  and  C7_1 
REMARK       I    between atoms: C8_2  and  C9_3 
REMARK       I    between atoms: C10_4  and  C11_5 
REMARK       I    between atoms: C12_6  and  C13_7 
REMARK       I    between atoms: C14_8  and  C15_9 
REMARK       I    between atoms: C23_39  and  O23_43 
REMARK    2  A    between atoms: C26_34  and  C27_12 
REMARK       I    between atoms: C28_13  and  C29_14 
REMARK       I    between atoms: C30_15  and  C31_16 
REMARK       I    between atoms: C32_17  and  C33_18 
REMARK       I    between atoms: C34_19  and  C35_20 
ROOT
HETATM    1  C7  LUT 5 624      99.666 166.049 151.696  1.00 23.68     0.009 C 
HETATM    2  C8  LUT 5 624     100.438 164.961 151.614  1.00 23.68     0.007 C 
HETATM    3  C9  LUT 5 624     100.781 164.123 152.788  1.00 23.68    -0.062 C 
HETATM    4  C10 LUT 5 624     101.659 163.124 152.609  1.00 23.68     0.007 C 
HETATM    5  C11 LUT 5 624     102.156 162.192 153.621  1.00 23.68     0.001 C 
HETATM    6  C12 LUT 5 624     103.155 161.419 153.188  1.00 23.68     0.007 C 
HETATM    7  C13 LUT 5 624     103.922 160.393 153.924  1.00 23.68    -0.062 C 
HETATM    8  C14 LUT 5 624     104.767 159.629 153.211  1.00 23.68     0.007 C 
HETATM    9  C15 LUT 5 624     105.620 158.608 153.814  1.00 23.68     0.001 C 
HETATM   10  C19 LUT 5 624     100.172 164.379 154.131  1.00 23.68     0.048 C 
HETATM   11  C20 LUT 5 624     103.790 160.222 155.405  1.00 23.68     0.048 C 
HETATM   12  C27 LUT 5 624     112.226 150.362 155.355  1.00 23.68    -0.016 C 
HETATM   13  C28 LUT 5 624     111.732 151.594 155.336  1.00 23.68     0.003 C 
HETATM   14  C29 LUT 5 624     110.923 152.141 154.236  1.00 23.68    -0.062 C 
HETATM   15  C30 LUT 5 624     110.412 153.361 154.430  1.00 23.68     0.007 C 
HETATM   16  C31 LUT 5 624     109.603 154.098 153.469  1.00 23.68     0.001 C 
HETATM   17  C32 LUT 5 624     108.733 154.969 153.963  1.00 23.68     0.007 C 
HETATM   18  C33 LUT 5 624     107.867 155.811 153.126  1.00 23.68    -0.062 C 
HETATM   19  C34 LUT 5 624     107.156 156.770 153.741  1.00 23.68     0.007 C 
HETATM   20  C35 LUT 5 624     106.283 157.726 153.064  1.00 23.68     0.001 C 
HETATM   21  C39 LUT 5 624     110.700 151.375 152.968  1.00 23.68     0.048 C 
HETATM   22  C40 LUT 5 624     107.808 155.589 151.646  1.00 23.68     0.048 C 
ENDROOT
BRANCH   1  23
HETATM   23  C6  LUT 5 624      99.327 166.897 150.521  1.00 23.68    -0.048 C 
HETATM   24  C1  LUT 5 624     100.138 168.158 150.270  1.00 23.68    -0.018 C 
HETATM   25  C16 LUT 5 624     100.297 168.865 151.608  1.00 23.68     0.020 C 
HETATM   26  C17 LUT 5 624     101.517 167.827 149.727  1.00 23.68     0.020 C 
HETATM   27  C2  LUT 5 624      99.513 169.141 149.284  1.00 23.68     0.045 C 
HETATM   28  C3  LUT 5 624      98.255 168.720 148.534  1.00 23.68     0.123 C 
HETATM   29  C4  LUT 5 624      98.172 167.216 148.367  1.00 23.68     0.066 C 
HETATM   30  C5  LUT 5 624      98.307 166.578 149.721  1.00 23.68    -0.074 C 
HETATM   31  C18 LUT 5 624      97.246 165.613 150.154  1.00 23.68     0.044 C 
HETATM   32  O3  LUT 5 624      98.275 169.332 147.243  1.00 23.68    -0.395 OA
ATOM     33  H3  LUT 5 624      97.491 169.070 146.775  1.00  0.00     0.210 HD
ENDBRANCH   1  23
BRANCH  12  34
HETATM   34  C26 LUT 5 624     113.060 149.962 156.555  1.00 23.68     0.044 C 
HETATM   35  C21 LUT 5 624     114.491 149.624 156.126  1.00 23.68    -0.035 C 
HETATM   36  C36 LUT 5 624     114.522 148.784 154.854  1.00 23.68     0.016 C 
HETATM   37  C37 LUT 5 624     115.249 150.914 155.854  1.00 23.68     0.016 C 
HETATM   38  C22 LUT 5 624     115.232 148.906 157.240  1.00 23.68     0.045 C 
HETATM   39  C23 LUT 5 624     114.536 147.654 157.739  1.00 23.68     0.142 C 
HETATM   40  C24 LUT 5 624     113.090 147.938 158.025  1.00 23.68     0.007 C 
HETATM   41  C25 LUT 5 624     112.402 148.851 157.333  1.00 23.68    -0.077 C 
HETATM   42  C38 LUT 5 624     110.918 148.749 157.364  1.00 23.68     0.044 C 
HETATM   43  O23 LUT 5 624     115.162 147.226 158.951  1.00 23.68    -0.392 OA
ATOM     44  H23 LUT 5 624     116.077 147.046 158.770  1.00  0.00     0.210 HD
ENDBRANCH  12  34
TORSDOF 12
