REMARK  2 active torsions:
REMARK  status: ('A' for Active; 'I' for Inactive)
REMARK       I    between atoms: C3_28  and  O3_32 
REMARK    1  A    between atoms: C6_23  and  C7_1 
REMARK       I    between atoms: C8_2  and  C9_3 
REMARK       I    between atoms: C10_4  and  C11_5 
REMARK       I    between atoms: C12_6  and  C13_7 
REMARK       I    between atoms: C14_8  and  C15_9 
REMARK       I    between atoms: C23_39  and  O23_43 
REMARK    2  A    between atoms: C26_34  and  C27_12 
REMARK       I    between atoms: C28_13  and  C29_14 
REMARK       I    between atoms: C30_15  and  C31_16 
REMARK       I    between atoms: C32_17  and  C33_18 
REMARK       I    between atoms: C34_19  and  C35_20 
ROOT
HETATM    1  C7  LUT 6 621      96.406 190.362 177.658  1.00 27.76     0.009 C 
HETATM    2  C8  LUT 6 621      96.461 190.790 178.924  1.00 27.76     0.007 C 
HETATM    3  C9  LUT 6 621      96.187 189.885 180.054  1.00 27.76    -0.062 C 
HETATM    4  C10 LUT 6 621      96.220 190.389 181.302  1.00 27.76     0.007 C 
HETATM    5  C11 LUT 6 621      95.998 189.652 182.547  1.00 27.76     0.001 C 
HETATM    6  C12 LUT 6 621      96.248 190.320 183.669  1.00 27.76     0.007 C 
HETATM    7  C13 LUT 6 621      96.095 189.841 185.056  1.00 27.76    -0.062 C 
HETATM    8  C14 LUT 6 621      96.086 190.779 186.013  1.00 27.76     0.007 C 
HETATM    9  C15 LUT 6 621      95.910 190.515 187.436  1.00 27.76     0.001 C 
HETATM   10  C19 LUT 6 621      95.890 188.447 179.774  1.00 27.76     0.048 C 
HETATM   11  C20 LUT 6 621      95.952 188.391 185.391  1.00 27.76     0.048 C 
HETATM   12  C27 LUT 6 621      94.415 193.981 197.542  1.00 27.76    -0.016 C 
HETATM   13  C28 LUT 6 621      94.409 193.292 196.407  1.00 27.76     0.003 C 
HETATM   14  C29 LUT 6 621      94.874 193.842 195.125  1.00 27.76    -0.062 C 
HETATM   15  C30 LUT 6 621      94.632 193.090 194.048  1.00 27.76     0.007 C 
HETATM   16  C31 LUT 6 621      94.978 193.436 192.677  1.00 27.76     0.001 C 
HETATM   17  C32 LUT 6 621      94.922 192.425 191.819  1.00 27.76     0.007 C 
HETATM   18  C33 LUT 6 621      95.198 192.553 190.384  1.00 27.76    -0.062 C 
HETATM   19  C34 LUT 6 621      95.310 191.449 189.627  1.00 27.76     0.007 C 
HETATM   20  C35 LUT 6 621      95.554 191.554 188.190  1.00 27.76     0.001 C 
HETATM   21  C39 LUT 6 621      95.568 195.168 195.040  1.00 27.76     0.048 C 
HETATM   22  C40 LUT 6 621      95.315 193.917 189.790  1.00 27.76     0.048 C 
ENDROOT
BRANCH   1  23
HETATM   23  C6  LUT 6 621      96.687 191.243 176.497  1.00 27.76    -0.048 C 
HETATM   24  C1  LUT 6 621      95.561 192.056 175.892  1.00 27.76    -0.018 C 
HETATM   25  C16 LUT 6 621      94.337 191.156 175.837  1.00 27.76     0.020 C 
HETATM   26  C17 LUT 6 621      95.223 193.278 176.742  1.00 27.76     0.020 C 
HETATM   27  C2  LUT 6 621      95.857 192.555 174.481  1.00 27.76     0.045 C 
HETATM   28  C3  LUT 6 621      97.257 192.385 173.905  1.00 27.76     0.123 C 
HETATM   29  C4  LUT 6 621      98.319 192.319 174.980  1.00 27.76     0.066 C 
HETATM   30  C5  LUT 6 621      97.924 191.284 175.996  1.00 27.76    -0.074 C 
HETATM   31  C18 LUT 6 621      98.974 190.299 176.421  1.00 27.76     0.044 C 
HETATM   32  O3  LUT 6 621      97.553 193.486 173.041  1.00 27.76    -0.395 OA
ATOM     33  H3  LUT 6 621      98.426 193.380 172.682  1.00  0.00     0.210 HD
ENDBRANCH   1  23
BRANCH  12  34
HETATM   34  C26 LUT 6 621      93.884 193.277 198.772  1.00 27.76     0.044 C 
HETATM   35  C21 LUT 6 621      92.763 194.099 199.413  1.00 27.76    -0.035 C 
HETATM   36  C36 LUT 6 621      93.190 195.547 199.635  1.00 27.76     0.016 C 
HETATM   37  C37 LUT 6 621      91.566 194.112 198.473  1.00 27.76     0.016 C 
HETATM   38  C22 LUT 6 621      92.298 193.465 200.721  1.00 27.76     0.045 C 
HETATM   39  C23 LUT 6 621      93.410 193.105 201.701  1.00 27.76     0.142 C 
HETATM   40  C24 LUT 6 621      94.665 192.616 201.014  1.00 27.76     0.007 C 
HETATM   41  C25 LUT 6 621      94.973 192.975 199.764  1.00 27.76    -0.077 C 
HETATM   42  C38 LUT 6 621      96.419 193.067 199.378  1.00 27.76     0.044 C 
HETATM   43  O23 LUT 6 621      92.941 192.076 202.580  1.00 27.76    -0.392 OA
ATOM     44  H23 LUT 6 621      93.634 191.852 203.190  1.00  0.00     0.210 HD
ENDBRANCH  12  34
TORSDOF 12
