REMARK  2 active torsions:
REMARK  status: ('A' for Active; 'I' for Inactive)
REMARK       I    between atoms: C3_28  and  O3_32 
REMARK    1  A    between atoms: C6_23  and  C7_1 
REMARK       I    between atoms: C8_2  and  C9_3 
REMARK       I    between atoms: C10_4  and  C11_5 
REMARK       I    between atoms: C12_6  and  C13_7 
REMARK       I    between atoms: C14_8  and  C15_9 
REMARK       I    between atoms: C23_39  and  O23_43 
REMARK    2  A    between atoms: C26_34  and  C27_12 
REMARK       I    between atoms: C28_13  and  C29_14 
REMARK       I    between atoms: C30_15  and  C31_16 
REMARK       I    between atoms: C32_17  and  C33_18 
REMARK       I    between atoms: C34_19  and  C35_20 
ROOT
HETATM    1  C7  LUT 5 620      99.292 153.810 142.014  1.00 27.86     0.009 C 
HETATM    2  C8  LUT 5 620      99.174 154.194 143.279  1.00 27.86     0.007 C 
HETATM    3  C9  LUT 5 620      98.497 153.366 144.293  1.00 27.86    -0.062 C 
HETATM    4  C10 LUT 5 620      98.184 153.946 145.459  1.00 27.86     0.007 C 
HETATM    5  C11 LUT 5 620      97.498 153.255 146.547  1.00 27.86     0.001 C 
HETATM    6  C12 LUT 5 620      96.974 154.037 147.483  1.00 27.86     0.007 C 
HETATM    7  C13 LUT 5 620      96.227 153.534 148.649  1.00 27.86    -0.062 C 
HETATM    8  C14 LUT 5 620      95.475 154.414 149.323  1.00 27.86     0.007 C 
HETATM    9  C15 LUT 5 620      94.681 154.027 150.480  1.00 27.86     0.001 C 
HETATM   10  C19 LUT 5 620      98.170 151.930 144.023  1.00 27.86     0.048 C 
HETATM   11  C20 LUT 5 620      96.296 152.095 149.065  1.00 27.86     0.048 C 
HETATM   12  C27 LUT 5 620      87.844 156.037 158.605  1.00 27.86    -0.016 C 
HETATM   13  C28 LUT 5 620      88.628 155.424 157.726  1.00 27.86     0.003 C 
HETATM   14  C29 LUT 5 620      89.382 156.137 156.681  1.00 27.86    -0.062 C 
HETATM   15  C30 LUT 5 620      89.995 155.391 155.755  1.00 27.86     0.007 C 
HETATM   16  C31 LUT 5 620      90.774 155.949 154.657  1.00 27.86     0.001 C 
HETATM   17  C32 LUT 5 620      91.470 155.085 153.926  1.00 27.86     0.007 C 
HETATM   18  C33 LUT 5 620      92.294 155.501 152.780  1.00 27.86    -0.062 C 
HETATM   19  C34 LUT 5 620      93.029 154.574 152.151  1.00 27.86     0.007 C 
HETATM   20  C35 LUT 5 620      93.854 154.925 151.004  1.00 27.86     0.001 C 
HETATM   21  C39 LUT 5 620      89.459 157.633 156.654  1.00 27.86     0.048 C 
HETATM   22  C40 LUT 5 620      92.301 156.929 152.323  1.00 27.86     0.048 C 
ENDROOT
BRANCH   1  23
HETATM   23  C6  LUT 5 620      99.976 154.727 141.080  1.00 27.86    -0.048 C 
HETATM   24  C1  LUT 5 620      99.213 155.158 139.850  1.00 27.86    -0.018 C 
HETATM   25  C16 LUT 5 620      99.136 153.969 138.901  1.00 27.86     0.020 C 
HETATM   26  C17 LUT 5 620      97.805 155.536 140.292  1.00 27.86     0.020 C 
HETATM   27  C2  LUT 5 620      99.847 156.343 139.131  1.00 27.86     0.045 C 
HETATM   28  C3  LUT 5 620     101.367 156.365 139.198  1.00 27.86     0.123 C 
HETATM   29  C4  LUT 5 620     101.814 156.336 140.648  1.00 27.86     0.066 C 
HETATM   30  C5  LUT 5 620     101.216 155.147 141.352  1.00 27.86    -0.074 C 
HETATM   31  C18 LUT 5 620     102.047 154.440 142.383  1.00 27.86     0.044 C 
HETATM   32  O3  LUT 5 620     101.849 157.561 138.578  1.00 27.86    -0.395 OA
ATOM     33  H3  LUT 5 620     102.798 157.575 138.620  1.00  0.00     0.210 HD
ENDBRANCH   1  23
BRANCH  12  34
HETATM   34  C26 LUT 5 620      87.133 155.155 159.606  1.00 27.86     0.044 C 
HETATM   35  C21 LUT 5 620      85.628 155.332 159.473  1.00 27.86    -0.035 C 
HETATM   36  C36 LUT 5 620      85.249 156.788 159.695  1.00 27.86     0.016 C 
HETATM   37  C37 LUT 5 620      85.206 154.916 158.070  1.00 27.86     0.016 C 
HETATM   38  C22 LUT 5 620      84.927 154.441 160.488  1.00 27.86     0.045 C 
HETATM   39  C23 LUT 5 620      85.343 154.733 161.927  1.00 27.86     0.142 C 
HETATM   40  C24 LUT 5 620      86.817 155.052 162.052  1.00 27.86     0.007 C 
HETATM   41  C25 LUT 5 620      87.568 155.447 161.014  1.00 27.86    -0.077 C 
HETATM   42  C38 LUT 5 620      88.851 156.179 161.270  1.00 27.86     0.044 C 
HETATM   43  O23 LUT 5 620      85.049 153.586 162.731  1.00 27.86    -0.392 OA
ATOM     44  H23 LUT 5 620      85.308 153.768 163.627  1.00  0.00     0.210 HD
ENDBRANCH  12  34
TORSDOF 12
