REMARK  2 active torsions:
REMARK  status: ('A' for Active; 'I' for Inactive)
REMARK       I    between atoms: C3_28  and  O3_32 
REMARK    1  A    between atoms: C6_23  and  C7_1 
REMARK       I    between atoms: C8_2  and  C9_3 
REMARK       I    between atoms: C10_4  and  C11_5 
REMARK       I    between atoms: C12_6  and  C13_7 
REMARK       I    between atoms: C14_8  and  C15_9 
REMARK       I    between atoms: C23_39  and  O23_43 
REMARK    2  A    between atoms: C26_34  and  C27_12 
REMARK       I    between atoms: C28_13  and  C29_14 
REMARK       I    between atoms: C30_15  and  C31_16 
REMARK       I    between atoms: C32_17  and  C33_18 
REMARK       I    between atoms: C34_19  and  C35_20 
ROOT
HETATM    1  C7  LUT Z 618     177.993 232.401 231.713  1.00 27.67     0.009 C 
HETATM    2  C8  LUT Z 618     176.860 231.740 231.955  1.00 27.67     0.007 C 
HETATM    3  C9  LUT Z 618     176.850 230.472 232.697  1.00 27.67    -0.062 C 
HETATM    4  C10 LUT Z 618     175.788 229.682 232.521  1.00 27.67     0.007 C 
HETATM    5  C11 LUT Z 618     175.595 228.375 233.136  1.00 27.67     0.001 C 
HETATM    6  C12 LUT Z 618     174.529 227.742 232.663  1.00 27.67     0.007 C 
HETATM    7  C13 LUT Z 618     174.070 226.397 233.032  1.00 27.67    -0.062 C 
HETATM    8  C14 LUT Z 618     172.938 225.967 232.458  1.00 27.67     0.007 C 
HETATM    9  C15 LUT Z 618     172.396 224.636 232.685  1.00 27.67     0.001 C 
HETATM   10  C19 LUT Z 618     177.980 230.096 233.604  1.00 27.67     0.048 C 
HETATM   11  C20 LUT Z 618     174.848 225.537 233.979  1.00 27.67     0.048 C 
HETATM   12  C27 LUT Z 618     165.660 216.444 232.827  1.00 27.67    -0.016 C 
HETATM   13  C28 LUT Z 618     166.740 217.151 232.518  1.00 27.67     0.003 C 
HETATM   14  C29 LUT Z 618     166.704 218.602 232.277  1.00 27.67    -0.062 C 
HETATM   15  C30 LUT Z 618     167.856 219.195 231.950  1.00 27.67     0.007 C 
HETATM   16  C31 LUT Z 618     168.004 220.617 231.675  1.00 27.67     0.001 C 
HETATM   17  C32 LUT Z 618     169.137 221.163 232.103  1.00 27.67     0.007 C 
HETATM   18  C33 LUT Z 618     169.498 222.576 231.918  1.00 27.67    -0.062 C 
HETATM   19  C34 LUT Z 618     170.732 222.947 232.279  1.00 27.67     0.007 C 
HETATM   20  C35 LUT Z 618     171.246 224.300 232.108  1.00 27.67     0.001 C 
HETATM   21  C39 LUT Z 618     165.424 219.372 232.398  1.00 27.67     0.048 C 
HETATM   22  C40 LUT Z 618     168.525 223.563 231.356  1.00 27.67     0.048 C 
ENDROOT
BRANCH   1  23
HETATM   23  C6  LUT Z 618     178.017 233.672 230.948  1.00 27.67    -0.048 C 
HETATM   24  C1  LUT Z 618     178.429 233.615 229.487  1.00 27.67    -0.018 C 
HETATM   25  C16 LUT Z 618     179.725 232.820 229.422  1.00 27.67     0.020 C 
HETATM   26  C17 LUT Z 618     177.378 232.893 228.650  1.00 27.67     0.020 C 
HETATM   27  C2  LUT Z 618     178.676 234.973 228.834  1.00 27.67     0.045 C 
HETATM   28  C3  LUT Z 618     178.528 236.203 229.717  1.00 27.67     0.123 C 
HETATM   29  C4  LUT Z 618     177.386 236.031 230.695  1.00 27.67     0.066 C 
HETATM   30  C5  LUT Z 618     177.709 234.831 231.534  1.00 27.67    -0.074 C 
HETATM   31  C18 LUT Z 618     177.694 235.002 233.023  1.00 27.67     0.044 C 
HETATM   32  O3  LUT Z 618     178.270 237.338 228.889  1.00 27.67    -0.395 OA
ATOM     33  H3  LUT Z 618     178.987 237.446 228.275  1.00  0.00     0.210 HD
ENDBRANCH   1  23
BRANCH  12  34
HETATM   34  C26 LUT Z 618     165.820 214.955 233.050  1.00 27.67     0.044 C 
HETATM   35  C21 LUT Z 618     164.958 214.152 232.067  1.00 27.67    -0.035 C 
HETATM   36  C36 LUT Z 618     163.564 214.743 231.910  1.00 27.67     0.016 C 
HETATM   37  C37 LUT Z 618     165.626 214.182 230.700  1.00 27.67     0.016 C 
HETATM   38  C22 LUT Z 618     164.838 212.691 232.488  1.00 27.67     0.045 C 
HETATM   39  C23 LUT Z 618     164.409 212.484 233.932  1.00 27.67     0.142 C 
HETATM   40  C24 LUT Z 618     165.201 213.367 234.852  1.00 27.67     0.007 C 
HETATM   41  C25 LUT Z 618     165.543 214.603 234.487  1.00 27.67    -0.077 C 
HETATM   42  C38 LUT Z 618     165.644 215.637 235.560  1.00 27.67     0.044 C 
HETATM   43  O23 LUT Z 618     164.636 211.124 234.308  1.00 27.67    -0.392 OA
ATOM     44  H23 LUT Z 618     164.368 210.995 235.210  1.00  0.00     0.210 HD
ENDBRANCH  12  34
TORSDOF 12
