REMARK  2 active torsions:
REMARK  status: ('A' for Active; 'I' for Inactive)
REMARK       I    between atoms: C3_28  and  O3_32 
REMARK    1  A    between atoms: C6_23  and  C7_1 
REMARK       I    between atoms: C8_2  and  C9_3 
REMARK       I    between atoms: C10_4  and  C11_5 
REMARK       I    between atoms: C12_6  and  C13_7 
REMARK       I    between atoms: C14_8  and  C15_9 
REMARK       I    between atoms: C23_39  and  O23_43 
REMARK    2  A    between atoms: C26_34  and  C27_12 
REMARK       I    between atoms: C28_13  and  C29_14 
REMARK       I    between atoms: C30_15  and  C31_16 
REMARK       I    between atoms: C32_17  and  C33_18 
REMARK       I    between atoms: C34_19  and  C35_20 
ROOT
HETATM    1  C7  LUT 1 617     196.831 218.248 219.468  1.00 21.49     0.009 C 
HETATM    2  C8  LUT 1 617     197.924 217.926 220.161  1.00 21.49     0.007 C 
HETATM    3  C9  LUT 1 617     197.909 217.069 221.356  1.00 21.49    -0.062 C 
HETATM    4  C10 LUT 1 617     199.075 216.935 221.996  1.00 21.49     0.007 C 
HETATM    5  C11 LUT 1 617     199.321 216.154 223.201  1.00 21.49     0.001 C 
HETATM    6  C12 LUT 1 617     200.582 216.229 223.600  1.00 21.49     0.007 C 
HETATM    7  C13 LUT 1 617     201.147 215.588 224.793  1.00 21.49    -0.062 C 
HETATM    8  C14 LUT 1 617     202.383 215.962 225.134  1.00 21.49     0.007 C 
HETATM    9  C15 LUT 1 617     203.066 215.451 226.311  1.00 21.49     0.001 C 
HETATM   10  C19 LUT 1 617     196.660 216.376 221.804  1.00 21.49     0.048 C 
HETATM   11  C20 LUT 1 617     200.380 214.586 225.599  1.00 21.49     0.048 C 
HETATM   12  C27 LUT 1 617     210.765 214.370 233.519  1.00 21.49    -0.016 C 
HETATM   13  C28 LUT 1 617     209.622 214.383 232.849  1.00 21.49     0.003 C 
HETATM   14  C29 LUT 1 617     209.517 214.999 231.522  1.00 21.49    -0.062 C 
HETATM   15  C30 LUT 1 617     208.282 215.201 231.072  1.00 21.49     0.007 C 
HETATM   16  C31 LUT 1 617     207.965 215.818 229.797  1.00 21.49     0.001 C 
HETATM   17  C32 LUT 1 617     206.745 215.536 229.371  1.00 21.49     0.007 C 
HETATM   18  C33 LUT 1 617     206.154 216.031 228.126  1.00 21.49    -0.062 C 
HETATM   19  C34 LUT 1 617     204.927 215.592 227.826  1.00 21.49     0.007 C 
HETATM   20  C35 LUT 1 617     204.215 216.030 226.640  1.00 21.49     0.001 C 
HETATM   21  C39 LUT 1 617     210.726 215.392 230.730  1.00 21.49     0.048 C 
HETATM   22  C40 LUT 1 617     206.896 216.991 227.252  1.00 21.49     0.048 C 
ENDROOT
BRANCH   1  23
HETATM   23  C6  LUT 1 617     196.901 219.118 218.263  1.00 21.49    -0.048 C 
HETATM   24  C1  LUT 1 617     196.856 220.627 218.446  1.00 21.49    -0.018 C 
HETATM   25  C16 LUT 1 617     195.843 220.928 219.539  1.00 21.49     0.020 C 
HETATM   26  C17 LUT 1 617     198.213 221.188 218.867  1.00 21.49     0.020 C 
HETATM   27  C2  LUT 1 617     196.432 221.400 217.202  1.00 21.49     0.045 C 
HETATM   28  C3  LUT 1 617     196.150 220.605 215.937  1.00 21.49     0.123 C 
HETATM   29  C4  LUT 1 617     197.062 219.407 215.805  1.00 21.49     0.066 C 
HETATM   30  C5  LUT 1 617     196.988 218.563 217.046  1.00 21.49    -0.074 C 
HETATM   31  C18 LUT 1 617     197.008 217.075 216.846  1.00 21.49     0.044 C 
HETATM   32  O3  LUT 1 617     196.382 221.461 214.814  1.00 21.49    -0.395 OA
ATOM     33  H3  LUT 1 617     196.206 220.964 214.024  1.00  0.00     0.210 HD
ENDBRANCH   1  23
BRANCH  12  34
HETATM   34  C26 LUT 1 617     210.774 213.740 234.891  1.00 21.49     0.044 C 
HETATM   35  C21 LUT 1 617     211.343 214.740 235.898  1.00 21.49    -0.035 C 
HETATM   36  C36 LUT 1 617     212.692 215.289 235.441  1.00 21.49     0.016 C 
HETATM   37  C37 LUT 1 617     210.385 215.919 236.013  1.00 21.49     0.016 C 
HETATM   38  C22 LUT 1 617     211.454 214.111 237.283  1.00 21.49     0.045 C 
HETATM   39  C23 LUT 1 617     212.091 212.727 237.344  1.00 21.49     0.142 C 
HETATM   40  C24 LUT 1 617     211.859 211.896 236.102  1.00 21.49     0.007 C 
HETATM   41  C25 LUT 1 617     211.543 212.450 234.926  1.00 21.49    -0.077 C 
HETATM   42  C38 LUT 1 617     211.967 211.763 233.664  1.00 21.49     0.044 C 
HETATM   43  O23 LUT 1 617     211.547 212.033 238.469  1.00 21.49    -0.392 OA
ATOM     44  H23 LUT 1 617     211.944 211.171 238.507  1.00  0.00     0.210 HD
ENDBRANCH  12  34
TORSDOF 12
