REMARK  2 active torsions:
REMARK  status: ('A' for Active; 'I' for Inactive)
REMARK       I    between atoms: C3_28  and  O3_32 
REMARK    1  A    between atoms: C6_23  and  C7_1 
REMARK       I    between atoms: C8_2  and  C9_3 
REMARK       I    between atoms: C10_4  and  C11_5 
REMARK       I    between atoms: C12_6  and  C13_7 
REMARK       I    between atoms: C14_8  and  C15_9 
REMARK       I    between atoms: C23_39  and  O23_43 
REMARK    2  A    between atoms: C26_34  and  C27_12 
REMARK       I    between atoms: C28_13  and  C29_14 
REMARK       I    between atoms: C30_15  and  C31_16 
REMARK       I    between atoms: C32_17  and  C33_18 
REMARK       I    between atoms: C34_19  and  C35_20 
ROOT
HETATM    1  C7  LUT Y1620     186.069 276.378 237.941  1.00 33.25     0.009 C 
HETATM    2  C8  LUT Y1620     187.225 276.076 237.372  1.00 33.25     0.007 C 
HETATM    3  C9  LUT Y1620     187.356 275.761 235.956  1.00 33.25    -0.062 C 
HETATM    4  C10 LUT Y1620     188.609 275.690 235.525  1.00 33.25     0.007 C 
HETATM    5  C11 LUT Y1620     189.015 275.369 234.180  1.00 33.25     0.001 C 
HETATM    6  C12 LUT Y1620     190.284 275.021 234.131  1.00 33.25     0.007 C 
HETATM    7  C13 LUT Y1620     190.929 274.595 232.902  1.00 33.25    -0.062 C 
HETATM    8  C14 LUT Y1620     192.190 274.197 232.993  1.00 33.25     0.007 C 
HETATM    9  C15 LUT Y1620     192.884 273.695 231.829  1.00 33.25     0.001 C 
HETATM   10  C19 LUT Y1620     186.159 275.551 235.085  1.00 33.25     0.048 C 
HETATM   11  C20 LUT Y1620     190.178 274.575 231.615  1.00 33.25     0.048 C 
HETATM   12  C27 LUT Y1620     201.021 269.340 226.647  1.00 33.25    -0.016 C 
HETATM   13  C28 LUT Y1620     199.824 269.786 226.976  1.00 33.25     0.003 C 
HETATM   14  C29 LUT Y1620     199.588 270.434 228.264  1.00 33.25    -0.062 C 
HETATM   15  C30 LUT Y1620     198.318 270.573 228.616  1.00 33.25     0.007 C 
HETATM   16  C31 LUT Y1620     197.895 271.181 229.857  1.00 33.25     0.001 C 
HETATM   17  C32 LUT Y1620     196.647 271.593 229.845  1.00 33.25     0.007 C 
HETATM   18  C33 LUT Y1620     196.036 272.202 231.018  1.00 33.25    -0.062 C 
HETATM   19  C34 LUT Y1620     194.771 272.584 230.907  1.00 33.25     0.007 C 
HETATM   20  C35 LUT Y1620     194.065 273.151 232.033  1.00 33.25     0.001 C 
HETATM   21  C39 LUT Y1620     200.709 270.922 229.126  1.00 33.25     0.048 C 
HETATM   22  C40 LUT Y1620     196.803 272.354 232.289  1.00 33.25     0.048 C 
ENDROOT
BRANCH   1  23
HETATM   23  C6  LUT Y1620     186.024 276.676 239.384  1.00 33.25    -0.048 C 
HETATM   24  C1  LUT Y1620     185.859 275.532 240.370  1.00 33.25    -0.018 C 
HETATM   25  C16 LUT Y1620     184.882 274.538 239.768  1.00 33.25     0.020 C 
HETATM   26  C17 LUT Y1620     187.169 274.805 240.654  1.00 33.25     0.020 C 
HETATM   27  C2  LUT Y1620     185.293 275.956 241.717  1.00 33.25     0.045 C 
HETATM   28  C3  LUT Y1620     185.049 277.439 241.931  1.00 33.25     0.123 C 
HETATM   29  C4  LUT Y1620     186.093 278.267 241.240  1.00 33.25     0.066 C 
HETATM   30  C5  LUT Y1620     186.118 277.941 239.789  1.00 33.25    -0.074 C 
HETATM   31  C18 LUT Y1620     186.238 279.107 238.859  1.00 33.25     0.044 C 
HETATM   32  O3  LUT Y1620     185.143 277.735 243.323  1.00 33.25    -0.395 OA
ATOM     33  H3  LUT Y1620     184.990 278.663 243.457  1.00  0.00     0.210 HD
ENDBRANCH   1  23
BRANCH  12  34
HETATM   34  C26 LUT Y1620     201.179 268.681 225.298  1.00 33.25     0.044 C 
HETATM   35  C21 LUT Y1620     201.656 267.241 225.476  1.00 33.25    -0.035 C 
HETATM   36  C36 LUT Y1620     202.793 267.130 226.489  1.00 33.25     0.016 C 
HETATM   37  C37 LUT Y1620     200.511 266.388 225.992  1.00 33.25     0.016 C 
HETATM   38  C22 LUT Y1620     202.047 266.661 224.127  1.00 33.25     0.045 C 
HETATM   39  C23 LUT Y1620     203.088 267.470 223.374  1.00 33.25     0.142 C 
HETATM   40  C24 LUT Y1620     202.828 268.950 223.454  1.00 33.25     0.007 C 
HETATM   41  C25 LUT Y1620     202.092 269.499 224.422  1.00 33.25    -0.077 C 
HETATM   42  C38 LUT Y1620     202.193 270.981 224.601  1.00 33.25     0.044 C 
HETATM   43  O23 LUT Y1620     203.052 267.087 221.997  1.00 33.25    -0.392 OA
ATOM     44  H23 LUT Y1620     203.703 267.593 221.526  1.00  0.00     0.210 HD
ENDBRANCH  12  34
TORSDOF 12
