REMARK  2 active torsions:
REMARK  status: ('A' for Active; 'I' for Inactive)
REMARK       I    between atoms: C3_28  and  O3_32 
REMARK    1  A    between atoms: C6_23  and  C7_1 
REMARK       I    between atoms: C8_2  and  C9_3 
REMARK       I    between atoms: C10_4  and  C11_5 
REMARK       I    between atoms: C12_6  and  C13_7 
REMARK       I    between atoms: C14_8  and  C15_9 
REMARK       I    between atoms: C23_39  and  O23_43 
REMARK    2  A    between atoms: C26_34  and  C27_12 
REMARK       I    between atoms: C28_13  and  C29_14 
REMARK       I    between atoms: C30_15  and  C31_16 
REMARK       I    between atoms: C32_17  and  C33_18 
REMARK       I    between atoms: C34_19  and  C35_20 
ROOT
HETATM    1  C7  LUT Y1621     199.767 281.576 238.927  1.00 37.60     0.009 C 
HETATM    2  C8  LUT Y1621     198.666 281.704 238.179  1.00 37.60     0.007 C 
HETATM    3  C9  LUT Y1621     198.712 282.140 236.782  1.00 37.60    -0.062 C 
HETATM    4  C10 LUT Y1621     197.616 282.730 236.309  1.00 37.60     0.007 C 
HETATM    5  C11 LUT Y1621     197.462 283.252 234.962  1.00 37.60     0.001 C 
HETATM    6  C12 LUT Y1621     196.321 283.899 234.791  1.00 37.60     0.007 C 
HETATM    7  C13 LUT Y1621     195.877 284.568 233.566  1.00 37.60    -0.062 C 
HETATM    8  C14 LUT Y1621     194.630 285.042 233.532  1.00 37.60     0.007 C 
HETATM    9  C15 LUT Y1621     194.141 285.751 232.362  1.00 37.60     0.001 C 
HETATM   10  C19 LUT Y1621     199.925 281.927 235.939  1.00 37.60     0.048 C 
HETATM   11  C20 LUT Y1621     196.799 284.736 232.401  1.00 37.60     0.048 C 
HETATM   12  C27 LUT Y1621     187.051 290.292 225.891  1.00 37.60    -0.016 C 
HETATM   13  C28 LUT Y1621     188.174 290.056 226.553  1.00 37.60     0.003 C 
HETATM   14  C29 LUT Y1621     188.191 289.228 227.763  1.00 37.60    -0.062 C 
HETATM   15  C30 LUT Y1621     189.311 289.244 228.481  1.00 37.60     0.007 C 
HETATM   16  C31 LUT Y1621     189.521 288.492 229.704  1.00 37.60     0.001 C 
HETATM   17  C32 LUT Y1621     190.749 288.025 229.851  1.00 37.60     0.007 C 
HETATM   18  C33 LUT Y1621     191.161 287.254 231.024  1.00 37.60    -0.062 C 
HETATM   19  C34 LUT Y1621     192.411 286.799 231.091  1.00 37.60     0.007 C 
HETATM   20  C35 LUT Y1621     192.860 286.055 232.257  1.00 37.60     0.001 C 
HETATM   21  C39 LUT Y1621     187.004 288.411 228.155  1.00 37.60     0.048 C 
HETATM   22  C40 LUT Y1621     190.189 287.012 232.129  1.00 37.60     0.048 C 
ENDROOT
BRANCH   1  23
HETATM   23  C6  LUT Y1621     199.747 281.148 240.352  1.00 37.60    -0.048 C 
HETATM   24  C1  LUT Y1621     199.850 282.227 241.412  1.00 37.60    -0.018 C 
HETATM   25  C16 LUT Y1621     201.176 282.912 241.176  1.00 37.60     0.020 C 
HETATM   26  C17 LUT Y1621     198.753 283.274 241.301  1.00 37.60     0.020 C 
HETATM   27  C2  LUT Y1621     199.812 281.732 242.848  1.00 37.60     0.045 C 
HETATM   28  C3  LUT Y1621     200.260 280.307 243.074  1.00 37.60     0.123 C 
HETATM   29  C4  LUT Y1621     199.545 279.399 242.109  1.00 37.60     0.066 C 
HETATM   30  C5  LUT Y1621     199.684 279.851 240.687  1.00 37.60    -0.074 C 
HETATM   31  C18 LUT Y1621     199.754 278.742 239.683  1.00 37.60     0.044 C 
HETATM   32  O3  LUT Y1621     199.861 279.918 244.388  1.00 37.60    -0.395 OA
ATOM     33  H3  LUT Y1621     200.312 280.491 244.997  1.00  0.00     0.210 HD
ENDBRANCH   1  23
BRANCH  12  34
HETATM   34  C26 LUT Y1621     187.085 291.153 224.649  1.00 37.60     0.044 C 
HETATM   35  C21 LUT Y1621     186.352 292.474 224.879  1.00 37.60    -0.035 C 
HETATM   36  C36 LUT Y1621     185.079 292.302 225.702  1.00 37.60     0.016 C 
HETATM   37  C37 LUT Y1621     187.287 293.398 225.636  1.00 37.60     0.016 C 
HETATM   38  C22 LUT Y1621     186.025 293.154 223.563  1.00 37.60     0.045 C 
HETATM   39  C23 LUT Y1621     185.175 292.281 222.661  1.00 37.60     0.142 C 
HETATM   40  C24 LUT Y1621     185.806 290.920 222.517  1.00 37.60     0.007 C 
HETATM   41  C25 LUT Y1621     186.552 290.370 223.483  1.00 37.60    -0.077 C 
HETATM   42  C38 LUT Y1621     186.901 288.920 223.389  1.00 37.60     0.044 C 
HETATM   43  O23 LUT Y1621     185.110 292.914 221.383  1.00 37.60    -0.392 OA
ATOM     44  H23 LUT Y1621     184.577 292.367 220.818  1.00  0.00     0.210 HD
ENDBRANCH  12  34
TORSDOF 12
