REMARK  2 active torsions:
REMARK  status: ('A' for Active; 'I' for Inactive)
REMARK       I    between atoms: C3_28  and  O3_32 
REMARK    1  A    between atoms: C6_23  and  C7_1 
REMARK       I    between atoms: C8_2  and  C9_3 
REMARK       I    between atoms: C10_4  and  C11_5 
REMARK       I    between atoms: C12_6  and  C13_7 
REMARK       I    between atoms: C14_8  and  C15_9 
REMARK       I    between atoms: C23_39  and  O23_43 
REMARK    2  A    between atoms: C26_34  and  C27_12 
REMARK       I    between atoms: C28_13  and  C29_14 
REMARK       I    between atoms: C30_15  and  C31_16 
REMARK       I    between atoms: C32_17  and  C33_18 
REMARK       I    between atoms: C34_19  and  C35_20 
ROOT
HETATM    1  C7  LUT G1620     213.619 306.919 241.855  1.00 66.29     0.009 C 
HETATM    2  C8  LUT G1620     213.307 308.079 241.272  1.00 66.29     0.007 C 
HETATM    3  C9  LUT G1620     213.728 308.416 239.906  1.00 66.29    -0.062 C 
HETATM    4  C10 LUT G1620     213.285 309.568 239.395  1.00 66.29     0.007 C 
HETATM    5  C11 LUT G1620     213.633 310.035 238.064  1.00 66.29     0.001 C 
HETATM    6  C12 LUT G1620     213.290 311.286 237.796  1.00 66.29     0.007 C 
HETATM    7  C13 LUT G1620     213.572 311.942 236.512  1.00 66.29    -0.062 C 
HETATM    8  C14 LUT G1620     213.291 313.245 236.411  1.00 66.29     0.007 C 
HETATM    9  C15 LUT G1620     213.551 314.004 235.199  1.00 66.29     0.001 C 
HETATM   10  C19 LUT G1620     214.627 307.503 239.129  1.00 66.29     0.048 C 
HETATM   11  C20 LUT G1620     214.162 311.179 235.365  1.00 66.29     0.048 C 
HETATM   12  C27 LUT G1620     213.797 323.096 229.471  1.00 66.29    -0.016 C 
HETATM   13  C28 LUT G1620     213.798 321.807 229.792  1.00 66.29     0.003 C 
HETATM   14  C29 LUT G1620     213.234 321.323 231.060  1.00 66.29    -0.062 C 
HETATM   15  C30 LUT G1620     213.616 320.107 231.458  1.00 66.29     0.007 C 
HETATM   16  C31 LUT G1620     213.180 319.469 232.692  1.00 66.29     0.001 C 
HETATM   17  C32 LUT G1620     213.574 318.213 232.857  1.00 66.29     0.007 C 
HETATM   18  C33 LUT G1620     213.246 317.424 234.050  1.00 66.29    -0.062 C 
HETATM   19  C34 LUT G1620     213.648 316.150 234.089  1.00 66.29     0.007 C 
HETATM   20  C35 LUT G1620     213.379 315.319 235.253  1.00 66.29     0.001 C 
HETATM   21  C39 LUT G1620     212.280 322.158 231.862  1.00 66.29     0.048 C 
HETATM   22  C40 LUT G1620     212.499 318.052 235.189  1.00 66.29     0.048 C 
ENDROOT
BRANCH   1  23
HETATM   23  C6  LUT G1620     213.192 306.607 243.243  1.00 66.29    -0.048 C 
HETATM   24  C1  LUT G1620     214.151 306.920 244.378  1.00 66.29    -0.018 C 
HETATM   25  C16 LUT G1620     215.547 306.510 243.936  1.00 66.29     0.020 C 
HETATM   26  C17 LUT G1620     214.162 308.412 244.686  1.00 66.29     0.020 C 
HETATM   27  C2  LUT G1620     213.850 306.186 245.679  1.00 66.29     0.045 C 
HETATM   28  C3  LUT G1620     212.603 305.316 245.742  1.00 66.29     0.123 C 
HETATM   29  C4  LUT G1620     211.493 305.873 244.878  1.00 66.29     0.066 C 
HETATM   30  C5  LUT G1620     211.998 306.051 243.477  1.00 66.29    -0.074 C 
HETATM   31  C18 LUT G1620     211.104 305.563 242.375  1.00 66.29     0.044 C 
HETATM   32  O3  LUT G1620     212.149 305.273 247.098  1.00 66.29    -0.395 OA
ATOM     33  H3  LUT G1620     211.371 304.730 247.137  1.00  0.00     0.210 HD
ENDBRANCH   1  23
BRANCH  12  34
HETATM   34  C26 LUT G1620     214.417 323.491 228.151  1.00 66.29     0.044 C 
HETATM   35  C21 LUT G1620     215.500 324.548 228.379  1.00 66.29    -0.035 C 
HETATM   36  C36 LUT G1620     214.986 325.701 229.238  1.00 66.29     0.016 C 
HETATM   37  C37 LUT G1620     216.663 323.909 229.120  1.00 66.29     0.016 C 
HETATM   38  C22 LUT G1620     216.043 325.063 227.050  1.00 66.29     0.045 C 
HETATM   39  C23 LUT G1620     214.977 325.524 226.062  1.00 66.29     0.142 C 
HETATM   40  C24 LUT G1620     213.769 324.616 226.066  1.00 66.29     0.007 C 
HETATM   41  C25 LUT G1620     213.382 323.986 227.181  1.00 66.29    -0.077 C 
HETATM   42  C38 LUT G1620     211.917 323.796 227.440  1.00 66.29     0.044 C 
HETATM   43  O23 LUT G1620     215.526 325.540 224.742  1.00 66.29    -0.392 OA
ATOM     44  H23 LUT G1620     214.862 325.827 224.126  1.00  0.00     0.210 HD
ENDBRANCH  12  34
TORSDOF 12
