REMARK  2 active torsions:
REMARK  status: ('A' for Active; 'I' for Inactive)
REMARK       I    between atoms: C3_28  and  O3_32 
REMARK    1  A    between atoms: C6_23  and  C7_1 
REMARK       I    between atoms: C8_2  and  C9_3 
REMARK       I    between atoms: C10_4  and  C11_5 
REMARK       I    between atoms: C12_6  and  C13_7 
REMARK       I    between atoms: C14_8  and  C15_9 
REMARK       I    between atoms: C23_39  and  O23_43 
REMARK    2  A    between atoms: C26_34  and  C27_12 
REMARK       I    between atoms: C28_13  and  C29_14 
REMARK       I    between atoms: C30_15  and  C31_16 
REMARK       I    between atoms: C32_17  and  C33_18 
REMARK       I    between atoms: C34_19  and  C35_20 
ROOT
HETATM    1  C7  LUT N1621     171.041 301.075 236.983  1.00 51.88     0.009 C 
HETATM    2  C8  LUT N1621     171.853 301.985 236.441  1.00 51.88     0.007 C 
HETATM    3  C9  LUT N1621     172.396 301.899 235.079  1.00 51.88    -0.062 C 
HETATM    4  C10 LUT N1621     173.476 302.649 234.859  1.00 51.88     0.007 C 
HETATM    5  C11 LUT N1621     174.243 302.729 233.627  1.00 51.88     0.001 C 
HETATM    6  C12 LUT N1621     175.294 303.536 233.691  1.00 51.88     0.007 C 
HETATM    7  C13 LUT N1621     176.229 303.713 232.573  1.00 51.88    -0.062 C 
HETATM    8  C14 LUT N1621     177.248 304.569 232.721  1.00 51.88     0.007 C 
HETATM    9  C15 LUT N1621     178.234 304.764 231.666  1.00 51.88     0.001 C 
HETATM   10  C19 LUT N1621     171.789 301.029 234.024  1.00 51.88     0.048 C 
HETATM   11  C20 LUT N1621     176.055 302.911 231.321  1.00 51.88     0.048 C 
HETATM   12  C27 LUT N1621     186.417 309.567 226.578  1.00 51.88    -0.016 C 
HETATM   13  C28 LUT N1621     185.657 308.588 227.050  1.00 51.88     0.003 C 
HETATM   14  C29 LUT N1621     184.768 308.759 228.207  1.00 51.88    -0.062 C 
HETATM   15  C30 LUT N1621     184.125 307.673 228.651  1.00 51.88     0.007 C 
HETATM   16  C31 LUT N1621     183.207 307.656 229.783  1.00 51.88     0.001 C 
HETATM   17  C32 LUT N1621     182.178 306.813 229.719  1.00 51.88     0.007 C 
HETATM   18  C33 LUT N1621     181.193 306.708 230.805  1.00 51.88    -0.062 C 
HETATM   19  C34 LUT N1621     180.169 305.845 230.717  1.00 51.88     0.007 C 
HETATM   20  C35 LUT N1621     179.178 305.696 231.780  1.00 51.88     0.001 C 
HETATM   21  C39 LUT N1621     184.601 310.102 228.847  1.00 51.88     0.048 C 
HETATM   22  C40 LUT N1621     181.363 307.577 232.000  1.00 51.88     0.048 C 
ENDROOT
BRANCH   1  23
HETATM   23  C6  LUT N1621     170.554 301.178 238.384  1.00 51.88    -0.048 C 
HETATM   24  C1  LUT N1621     171.314 300.391 239.436  1.00 51.88    -0.018 C 
HETATM   25  C16 LUT N1621     171.548 299.006 238.879  1.00 51.88     0.020 C 
HETATM   26  C17 LUT N1621     172.675 301.009 239.714  1.00 51.88     0.020 C 
HETATM   27  C2  LUT N1621     170.602 300.224 240.771  1.00 51.88     0.045 C 
HETATM   28  C3  LUT N1621     169.199 300.781 240.870  1.00 51.88     0.123 C 
HETATM   29  C4  LUT N1621     169.126 302.111 240.159  1.00 51.88     0.066 C 
HETATM   30  C5  LUT N1621     169.497 301.920 238.719  1.00 51.88    -0.074 C 
HETATM   31  C18 LUT N1621     168.623 302.594 237.707  1.00 51.88     0.044 C 
HETATM   32  O3  LUT N1621     168.886 300.997 242.248  1.00 51.88    -0.395 OA
ATOM     33  H3  LUT N1621     168.005 301.347 242.310  1.00  0.00     0.210 HD
ENDBRANCH   1  23
BRANCH  12  34
HETATM   34  C26 LUT N1621     187.290 309.255 225.382  1.00 51.88     0.044 C 
HETATM   35  C21 LUT N1621     188.780 309.222 225.742  1.00 51.88    -0.035 C 
HETATM   36  C36 LUT N1621     189.135 310.223 226.833  1.00 51.88     0.016 C 
HETATM   37  C37 LUT N1621     189.126 307.832 226.246  1.00 51.88     0.016 C 
HETATM   38  C22 LUT N1621     189.657 309.474 224.526  1.00 51.88     0.045 C 
HETATM   39  C23 LUT N1621     189.329 310.776 223.820  1.00 51.88     0.142 C 
HETATM   40  C24 LUT N1621     187.853 310.859 223.540  1.00 51.88     0.007 C 
HETATM   41  C25 LUT N1621     186.942 310.196 224.262  1.00 51.88    -0.077 C 
HETATM   42  C38 LUT N1621     185.500 310.380 223.920  1.00 51.88     0.044 C 
HETATM   43  O23 LUT N1621     190.038 310.790 222.582  1.00 51.88    -0.392 OA
ATOM     44  H23 LUT N1621     189.833 311.605 222.140  1.00  0.00     0.210 HD
ENDBRANCH  12  34
TORSDOF 12
