REMARK  2 active torsions:
REMARK  status: ('A' for Active; 'I' for Inactive)
REMARK       I    between atoms: C3_28  and  O3_32 
REMARK    1  A    between atoms: C6_23  and  C7_1 
REMARK       I    between atoms: C8_2  and  C9_3 
REMARK       I    between atoms: C10_4  and  C11_5 
REMARK       I    between atoms: C12_6  and  C13_7 
REMARK       I    between atoms: C14_8  and  C15_9 
REMARK       I    between atoms: C23_39  and  O23_43 
REMARK    2  A    between atoms: C26_34  and  C27_12 
REMARK       I    between atoms: C28_13  and  C29_14 
REMARK       I    between atoms: C30_15  and  C31_16 
REMARK       I    between atoms: C32_17  and  C33_18 
REMARK       I    between atoms: C34_19  and  C35_20 
ROOT
HETATM    1  C7  LUT N1620     173.453 315.501 238.303  1.00 61.00     0.009 C 
HETATM    2  C8  LUT N1620     172.676 314.711 237.561  1.00 61.00     0.007 C 
HETATM    3  C9  LUT N1620     172.415 314.933 236.134  1.00 61.00    -0.062 C 
HETATM    4  C10 LUT N1620     171.744 313.969 235.499  1.00 61.00     0.007 C 
HETATM    5  C11 LUT N1620     171.370 314.023 234.094  1.00 61.00     0.001 C 
HETATM    6  C12 LUT N1620     170.534 313.072 233.698  1.00 61.00     0.007 C 
HETATM    7  C13 LUT N1620     170.007 312.975 232.333  1.00 61.00    -0.062 C 
HETATM    8  C14 LUT N1620     169.007 312.111 232.123  1.00 61.00     0.007 C 
HETATM    9  C15 LUT N1620     168.360 311.931 230.831  1.00 61.00     0.001 C 
HETATM   10  C19 LUT N1620     172.879 316.174 235.436  1.00 61.00     0.048 C 
HETATM   11  C20 LUT N1620     170.556 313.830 231.237  1.00 61.00     0.048 C 
HETATM   12  C27 LUT N1620     161.210 307.715 223.998  1.00 61.00    -0.016 C 
HETATM   13  C28 LUT N1620     162.232 308.363 224.539  1.00 61.00     0.003 C 
HETATM   14  C29 LUT N1620     162.736 308.064 225.886  1.00 61.00    -0.062 C 
HETATM   15  C30 LUT N1620     163.461 309.020 226.472  1.00 61.00     0.007 C 
HETATM   16  C31 LUT N1620     164.045 308.953 227.806  1.00 61.00     0.001 C 
HETATM   17  C32 LUT N1620     164.994 309.847 228.061  1.00 61.00     0.007 C 
HETATM   18  C33 LUT N1620     165.679 309.949 229.357  1.00 61.00    -0.062 C 
HETATM   19  C34 LUT N1620     166.630 310.883 229.502  1.00 61.00     0.007 C 
HETATM   20  C35 LUT N1620     167.337 311.083 230.762  1.00 61.00     0.001 C 
HETATM   21  C39 LUT N1620     162.448 306.760 226.562  1.00 61.00     0.048 C 
HETATM   22  C40 LUT N1620     165.308 309.038 230.485  1.00 61.00     0.048 C 
ENDROOT
BRANCH   1  23
HETATM   23  C6  LUT N1620     173.680 315.236 239.747  1.00 61.00    -0.048 C 
HETATM   24  C1  LUT N1620     172.739 315.867 240.757  1.00 61.00    -0.018 C 
HETATM   25  C16 LUT N1620     172.448 317.285 240.283  1.00 61.00     0.020 C 
HETATM   26  C17 LUT N1620     171.431 315.089 240.842  1.00 61.00     0.020 C 
HETATM   27  C2  LUT N1620     173.293 315.953 242.177  1.00 61.00     0.045 C 
HETATM   28  C3  LUT N1620     174.668 315.359 242.444  1.00 61.00     0.123 C 
HETATM   29  C4  LUT N1620     174.937 314.145 241.582  1.00 61.00     0.066 C 
HETATM   30  C5  LUT N1620     174.705 314.468 240.133  1.00 61.00    -0.074 C 
HETATM   31  C18 LUT N1620     175.685 313.900 239.146  1.00 61.00     0.044 C 
HETATM   32  O3  LUT N1620     174.723 314.952 243.816  1.00 61.00    -0.395 OA
ATOM     33  H3  LUT N1620     174.554 315.714 244.357  1.00  0.00     0.210 HD
ENDBRANCH   1  23
BRANCH  12  34
HETATM   34  C26 LUT N1620     160.756 308.117 222.609  1.00 61.00     0.044 C 
HETATM   35  C21 LUT N1620     159.333 308.696 222.655  1.00 61.00    -0.035 C 
HETATM   36  C36 LUT N1620     158.424 307.940 223.620  1.00 61.00     0.016 C 
HETATM   37  C37 LUT N1620     159.407 310.141 223.120  1.00 61.00     0.016 C 
HETATM   38  C22 LUT N1620     158.700 308.715 221.277  1.00 61.00     0.045 C 
HETATM   39  C23 LUT N1620     158.673 307.341 220.638  1.00 61.00     0.142 C 
HETATM   40  C24 LUT N1620     160.047 306.731 220.657  1.00 61.00     0.007 C 
HETATM   41  C25 LUT N1620     160.919 306.972 221.640  1.00 61.00    -0.077 C 
HETATM   42  C38 LUT N1620     162.113 306.077 221.751  1.00 61.00     0.044 C 
HETATM   43  O23 LUT N1620     158.255 307.474 219.276  1.00 61.00    -0.392 OA
ATOM     44  H23 LUT N1620     158.238 306.613 218.875  1.00  0.00     0.210 HD
ENDBRANCH  12  34
TORSDOF 12
