REMARK  2 active torsions:
REMARK  status: ('A' for Active; 'I' for Inactive)
REMARK       I    between atoms: C3_28  and  O3_32 
REMARK    1  A    between atoms: C6_23  and  C7_1 
REMARK       I    between atoms: C8_2  and  C9_3 
REMARK       I    between atoms: C10_4  and  C11_5 
REMARK       I    between atoms: C12_6  and  C13_7 
REMARK       I    between atoms: C14_8  and  C15_9 
REMARK       I    between atoms: C23_39  and  O23_43 
REMARK    2  A    between atoms: C26_34  and  C27_12 
REMARK       I    between atoms: C28_13  and  C29_14 
REMARK       I    between atoms: C30_15  and  C31_16 
REMARK       I    between atoms: C32_17  and  C33_18 
REMARK       I    between atoms: C34_19  and  C35_20 
ROOT
HETATM    1  C7  LUT 6 619     134.174 258.069 230.200  1.00 45.52     0.009 C 
HETATM    2  C8  LUT 6 619     134.370 259.253 230.785  1.00 45.52     0.007 C 
HETATM    3  C9  LUT 6 619     133.984 259.528 232.186  1.00 45.52    -0.062 C 
HETATM    4  C10 LUT 6 619     134.002 260.815 232.562  1.00 45.52     0.007 C 
HETATM    5  C11 LUT 6 619     133.579 261.294 233.875  1.00 45.52     0.001 C 
HETATM    6  C12 LUT 6 619     133.510 262.601 234.076  1.00 45.52     0.007 C 
HETATM    7  C13 LUT 6 619     133.036 263.182 235.340  1.00 45.52    -0.062 C 
HETATM    8  C14 LUT 6 619     132.863 264.509 235.332  1.00 45.52     0.007 C 
HETATM    9  C15 LUT 6 619     132.374 265.301 236.452  1.00 45.52     0.001 C 
HETATM   10  C19 LUT 6 619     133.576 258.406 233.099  1.00 45.52     0.048 C 
HETATM   11  C20 LUT 6 619     132.775 262.300 236.525  1.00 45.52     0.048 C 
HETATM   12  C27 LUT 6 619     129.572 274.484 241.313  1.00 45.52    -0.016 C 
HETATM   13  C28 LUT 6 619     129.790 273.211 241.017  1.00 45.52     0.003 C 
HETATM   14  C29 LUT 6 619     130.270 272.794 239.694  1.00 45.52    -0.062 C 
HETATM   15  C30 LUT 6 619     130.440 271.477 239.524  1.00 45.52     0.007 C 
HETATM   16  C31 LUT 6 619     130.906 270.849 238.297  1.00 45.52     0.001 C 
HETATM   17  C32 LUT 6 619     131.059 269.534 238.310  1.00 45.52     0.007 C 
HETATM   18  C33 LUT 6 619     131.550 268.795 237.141  1.00 45.52    -0.062 C 
HETATM   19  C34 LUT 6 619     131.734 267.473 237.297  1.00 45.52     0.007 C 
HETATM   20  C35 LUT 6 619     132.226 266.599 236.240  1.00 45.52     0.001 C 
HETATM   21  C39 LUT 6 619     130.503 273.825 238.631  1.00 45.52     0.048 C 
HETATM   22  C40 LUT 6 619     131.827 269.555 235.876  1.00 45.52     0.048 C 
ENDROOT
BRANCH   1  23
HETATM   23  C6  LUT 6 619     134.503 258.185 228.777  1.00 45.52    -0.048 C 
HETATM   24  C1  LUT 6 619     133.375 258.189 227.778  1.00 45.52    -0.018 C 
HETATM   25  C16 LUT 6 619     132.238 257.347 228.337  1.00 45.52     0.020 C 
HETATM   26  C17 LUT 6 619     132.916 259.637 227.650  1.00 45.52     0.020 C 
HETATM   27  C2  LUT 6 619     133.796 257.668 226.406  1.00 45.52     0.045 C 
HETATM   28  C3  LUT 6 619     135.302 257.666 226.174  1.00 45.52     0.123 C 
HETATM   29  C4  LUT 6 619     135.933 258.827 226.920  1.00 45.52     0.066 C 
HETATM   30  C5  LUT 6 619     135.727 258.561 228.383  1.00 45.52    -0.074 C 
HETATM   31  C18 LUT 6 619     136.936 258.630 229.284  1.00 45.52     0.044 C 
HETATM   32  O3  LUT 6 619     135.584 257.797 224.778  1.00 45.52    -0.395 OA
ATOM     33  H3  LUT 6 619     136.523 257.796 224.633  1.00  0.00     0.210 HD
ENDBRANCH   1  23
BRANCH  12  34
HETATM   34  C26 LUT 6 619     129.050 274.804 242.692  1.00 45.52     0.044 C 
HETATM   35  C21 LUT 6 619     127.860 275.740 242.539  1.00 45.52    -0.035 C 
HETATM   36  C36 LUT 6 619     128.245 277.043 241.849  1.00 45.52     0.016 C 
HETATM   37  C37 LUT 6 619     126.794 275.046 241.704  1.00 45.52     0.016 C 
HETATM   38  C22 LUT 6 619     127.248 276.019 243.896  1.00 45.52     0.045 C 
HETATM   39  C23 LUT 6 619     128.240 276.536 244.927  1.00 45.52     0.142 C 
HETATM   40  C24 LUT 6 619     129.682 276.157 244.653  1.00 45.52     0.007 C 
HETATM   41  C25 LUT 6 619     130.071 275.394 243.620  1.00 45.52    -0.077 C 
HETATM   42  C38 LUT 6 619     131.538 275.142 243.425  1.00 45.52     0.044 C 
HETATM   43  O23 LUT 6 619     127.841 276.054 246.216  1.00 45.52    -0.392 OA
ATOM     44  H23 LUT 6 619     128.460 276.377 246.860  1.00  0.00     0.210 HD
ENDBRANCH  12  34
TORSDOF 12
