REMARK  2 active torsions:
REMARK  status: ('A' for Active; 'I' for Inactive)
REMARK       I    between atoms: C3_28  and  O3_32 
REMARK    1  A    between atoms: C6_23  and  C7_1 
REMARK       I    between atoms: C8_2  and  C9_3 
REMARK       I    between atoms: C10_4  and  C11_5 
REMARK       I    between atoms: C12_6  and  C13_7 
REMARK       I    between atoms: C14_8  and  C15_9 
REMARK       I    between atoms: C23_39  and  O23_43 
REMARK    2  A    between atoms: C26_34  and  C27_12 
REMARK       I    between atoms: C28_13  and  C29_14 
REMARK       I    between atoms: C30_15  and  C31_16 
REMARK       I    between atoms: C32_17  and  C33_18 
REMARK       I    between atoms: C34_19  and  C35_20 
ROOT
HETATM    1  C7  LUT 4 619     153.095 305.192 233.114  1.00 50.20     0.009 C 
HETATM    2  C8  LUT 4 619     153.413 306.314 233.754  1.00 50.20     0.007 C 
HETATM    3  C9  LUT 4 619     153.117 306.513 235.180  1.00 50.20    -0.062 C 
HETATM    4  C10 LUT 4 619     153.569 307.634 235.751  1.00 50.20     0.007 C 
HETATM    5  C11 LUT 4 619     153.347 307.991 237.145  1.00 50.20     0.001 C 
HETATM    6  C12 LUT 4 619     153.872 309.152 237.512  1.00 50.20     0.007 C 
HETATM    7  C13 LUT 4 619     153.737 309.728 238.856  1.00 50.20    -0.062 C 
HETATM    8  C14 LUT 4 619     154.177 310.978 239.018  1.00 50.20     0.007 C 
HETATM    9  C15 LUT 4 619     154.075 311.713 240.267  1.00 50.20     0.001 C 
HETATM   10  C19 LUT 4 619     152.336 305.490 235.948  1.00 50.20     0.048 C 
HETATM   11  C20 LUT 4 619     153.114 308.967 239.983  1.00 50.20     0.048 C 
HETATM   12  C27 LUT 4 619     154.864 320.477 246.260  1.00 50.20    -0.016 C 
HETATM   13  C28 LUT 4 619     154.687 319.247 245.793  1.00 50.20     0.003 C 
HETATM   14  C29 LUT 4 619     155.253 318.808 244.511  1.00 50.20    -0.062 C 
HETATM   15  C30 LUT 4 619     154.641 317.778 243.930  1.00 50.20     0.007 C 
HETATM   16  C31 LUT 4 619     155.014 317.181 242.659  1.00 50.20     0.001 C 
HETATM   17  C32 LUT 4 619     154.512 315.968 242.486  1.00 50.20     0.007 C 
HETATM   18  C33 LUT 4 619     154.703 315.145 241.288  1.00 50.20    -0.062 C 
HETATM   19  C34 LUT 4 619     154.259 313.885 241.338  1.00 50.20     0.007 C 
HETATM   20  C35 LUT 4 619     154.363 313.007 240.186  1.00 50.20     0.001 C 
HETATM   21  C39 LUT 4 619     156.433 319.488 243.888  1.00 50.20     0.048 C 
HETATM   22  C40 LUT 4 619     155.343 315.705 240.053  1.00 50.20     0.048 C 
ENDROOT
BRANCH   1  23
HETATM   23  C6  LUT 4 619     153.406 305.055 231.676  1.00 50.20    -0.048 C 
HETATM   24  C1  LUT 4 619     152.351 305.490 230.676  1.00 50.20    -0.018 C 
HETATM   25  C16 LUT 4 619     151.007 304.981 231.179  1.00 50.20     0.020 C 
HETATM   26  C17 LUT 4 619     152.296 307.011 230.596  1.00 50.20     0.020 C 
HETATM   27  C2  LUT 4 619     152.572 304.959 229.265  1.00 50.20     0.045 C 
HETATM   28  C3  LUT 4 619     153.766 304.038 229.070  1.00 50.20     0.123 C 
HETATM   29  C4  LUT 4 619     154.970 304.520 229.850  1.00 50.20     0.066 C 
HETATM   30  C5  LUT 4 619     154.586 304.562 231.299  1.00 50.20    -0.074 C 
HETATM   31  C18 LUT 4 619     155.564 304.016 232.293  1.00 50.20     0.044 C 
HETATM   32  O3  LUT 4 619     154.093 303.984 227.680  1.00 50.20    -0.395 OA
ATOM     33  H3  LUT 4 619     154.839 303.409 227.558  1.00  0.00     0.210 HD
ENDBRANCH   1  23
BRANCH  12  34
HETATM   34  C26 LUT 4 619     154.215 320.834 247.577  1.00 50.20     0.044 C 
HETATM   35  C21 LUT 4 619     153.303 322.037 247.342  1.00 50.20    -0.035 C 
HETATM   36  C36 LUT 4 619     154.008 323.091 246.495  1.00 50.20     0.016 C 
HETATM   37  C37 LUT 4 619     152.054 321.582 246.599  1.00 50.20     0.016 C 
HETATM   38  C22 LUT 4 619     152.852 322.637 248.662  1.00 50.20     0.045 C 
HETATM   39  C23 LUT 4 619     154.019 323.052 249.540  1.00 50.20     0.142 C 
HETATM   40  C24 LUT 4 619     155.023 321.933 249.651  1.00 50.20     0.007 C 
HETATM   41  C25 LUT 4 619     155.250 321.086 248.640  1.00 50.20    -0.077 C 
HETATM   42  C38 LUT 4 619     156.560 320.361 248.589  1.00 50.20     0.044 C 
HETATM   43  O23 LUT 4 619     153.517 323.342 250.846  1.00 50.20    -0.392 OA
ATOM     44  H23 LUT 4 619     152.884 324.047 250.776  1.00  0.00     0.210 HD
ENDBRANCH  12  34
TORSDOF 12
