REMARK  2 active torsions:
REMARK  status: ('A' for Active; 'I' for Inactive)
REMARK       I    between atoms: C3_28  and  O3_32 
REMARK    1  A    between atoms: C6_23  and  C7_1 
REMARK       I    between atoms: C8_2  and  C9_3 
REMARK       I    between atoms: C10_4  and  C11_5 
REMARK       I    between atoms: C12_6  and  C13_7 
REMARK       I    between atoms: C14_8  and  C15_9 
REMARK       I    between atoms: C23_39  and  O23_43 
REMARK    2  A    between atoms: C26_34  and  C27_12 
REMARK       I    between atoms: C28_13  and  C29_14 
REMARK       I    between atoms: C30_15  and  C31_16 
REMARK       I    between atoms: C32_17  and  C33_18 
REMARK       I    between atoms: C34_19  and  C35_20 
ROOT
HETATM    1  C7  LUT Z1620     260.757 180.901 227.790  1.00 27.53     0.009 C 
HETATM    2  C8  LUT Z1620     261.886 180.526 228.400  1.00 27.53     0.007 C 
HETATM    3  C9  LUT Z1620     262.174 180.947 229.788  1.00 27.53    -0.062 C 
HETATM    4  C10 LUT Z1620     263.453 180.852 230.200  1.00 27.53     0.007 C 
HETATM    5  C11 LUT Z1620     263.914 181.350 231.495  1.00 27.53     0.001 C 
HETATM    6  C12 LUT Z1620     265.219 181.452 231.724  1.00 27.53     0.007 C 
HETATM    7  C13 LUT Z1620     265.736 182.048 232.975  1.00 27.53    -0.062 C 
HETATM    8  C14 LUT Z1620     267.051 182.336 233.006  1.00 27.53     0.007 C 
HETATM    9  C15 LUT Z1620     267.740 182.969 234.130  1.00 27.53     0.001 C 
HETATM   10  C19 LUT Z1620     261.061 181.490 230.649  1.00 27.53     0.048 C 
HETATM   11  C20 LUT Z1620     264.783 182.335 234.105  1.00 27.53     0.048 C 
HETATM   12  C27 LUT Z1620     276.213 186.770 239.583  1.00 27.53    -0.016 C 
HETATM   13  C28 LUT Z1620     275.021 186.413 239.121  1.00 27.53     0.003 C 
HETATM   14  C29 LUT Z1620     274.812 185.832 237.784  1.00 27.53    -0.062 C 
HETATM   15  C30 LUT Z1620     273.529 185.562 237.495  1.00 27.53     0.007 C 
HETATM   16  C31 LUT Z1620     273.034 184.987 236.255  1.00 27.53     0.001 C 
HETATM   17  C32 LUT Z1620     271.723 184.756 236.178  1.00 27.53     0.007 C 
HETATM   18  C33 LUT Z1620     271.106 184.142 234.988  1.00 27.53    -0.062 C 
HETATM   19  C34 LUT Z1620     269.787 183.866 235.061  1.00 27.53     0.007 C 
HETATM   20  C35 LUT Z1620     269.031 183.233 233.981  1.00 27.53     0.001 C 
HETATM   21  C39 LUT Z1620     275.968 185.615 236.847  1.00 27.53     0.048 C 
HETATM   22  C40 LUT Z1620     271.978 183.846 233.795  1.00 27.53     0.048 C 
ENDROOT
BRANCH   1  23
HETATM   23  C6  LUT Z1620     260.699 180.586 226.348  1.00 27.53    -0.048 C 
HETATM   24  C1  LUT Z1620     260.419 181.744 225.398  1.00 27.53    -0.018 C 
HETATM   25  C16 LUT Z1620     259.137 182.486 225.768  1.00 27.53     0.020 C 
HETATM   26  C17 LUT Z1620     261.608 182.694 225.529  1.00 27.53     0.020 C 
HETATM   27  C2  LUT Z1620     260.311 181.321 223.934  1.00 27.53     0.045 C 
HETATM   28  C3  LUT Z1620     260.003 179.842 223.806  1.00 27.53     0.123 C 
HETATM   29  C4  LUT Z1620     261.184 179.122 224.415  1.00 27.53     0.066 C 
HETATM   30  C5  LUT Z1620     261.065 179.364 225.893  1.00 27.53    -0.074 C 
HETATM   31  C18 LUT Z1620     261.217 178.135 226.758  1.00 27.53     0.044 C 
HETATM   32  O3  LUT Z1620     259.829 179.449 222.443  1.00 27.53    -0.395 OA
ATOM     33  H3  LUT Z1620     259.636 178.522 222.363  1.00  0.00     0.210 HD
ENDBRANCH   1  23
BRANCH  12  34
HETATM   34  C26 LUT Z1620     276.259 187.381 240.966  1.00 27.53     0.044 C 
HETATM   35  C21 LUT Z1620     276.561 188.870 240.807  1.00 27.53    -0.035 C 
HETATM   36  C36 LUT Z1620     277.798 189.113 239.946  1.00 27.53     0.016 C 
HETATM   37  C37 LUT Z1620     275.370 189.546 240.132  1.00 27.53     0.016 C 
HETATM   38  C22 LUT Z1620     276.747 189.495 242.176  1.00 27.53     0.045 C 
HETATM   39  C23 LUT Z1620     277.924 188.877 242.919  1.00 27.53     0.142 C 
HETATM   40  C24 LUT Z1620     277.984 187.372 242.762  1.00 27.53     0.007 C 
HETATM   41  C25 LUT Z1620     277.229 186.687 241.887  1.00 27.53    -0.077 C 
HETATM   42  C38 LUT Z1620     277.338 185.187 241.887  1.00 27.53     0.044 C 
HETATM   43  O23 LUT Z1620     277.810 189.179 244.314  1.00 27.53    -0.392 OA
ATOM     44  H23 LUT Z1620     277.772 190.123 244.412  1.00  0.00     0.210 HD
ENDBRANCH  12  34
TORSDOF 12
