REMARK  2 active torsions:
REMARK  status: ('A' for Active; 'I' for Inactive)
REMARK       I    between atoms: C3_28  and  O3_32 
REMARK    1  A    between atoms: C6_23  and  C7_1 
REMARK       I    between atoms: C8_2  and  C9_3 
REMARK       I    between atoms: C10_4  and  C11_5 
REMARK       I    between atoms: C12_6  and  C13_7 
REMARK       I    between atoms: C14_8  and  C15_9 
REMARK       I    between atoms: C23_39  and  O23_43 
REMARK    2  A    between atoms: C26_34  and  C27_12 
REMARK       I    between atoms: C28_13  and  C29_14 
REMARK       I    between atoms: C30_15  and  C31_16 
REMARK       I    between atoms: C32_17  and  C33_18 
REMARK       I    between atoms: C34_19  and  C35_20 
ROOT
HETATM    1  C7  LUT X1621     275.836 141.488 222.327  1.00 31.86     0.009 C 
HETATM    2  C8  LUT X1621     276.731 142.209 223.009  1.00 31.86     0.007 C 
HETATM    3  C9  LUT X1621     276.435 142.549 224.419  1.00 31.86    -0.062 C 
HETATM    4  C10 LUT X1621     277.024 143.657 224.913  1.00 31.86     0.007 C 
HETATM    5  C11 LUT X1621     276.706 144.218 226.225  1.00 31.86     0.001 C 
HETATM    6  C12 LUT X1621     277.119 145.448 226.524  1.00 31.86     0.007 C 
HETATM    7  C13 LUT X1621     276.749 146.098 227.801  1.00 31.86    -0.062 C 
HETATM    8  C14 LUT X1621     277.089 147.395 227.955  1.00 31.86     0.007 C 
HETATM    9  C15 LUT X1621     276.776 148.190 229.144  1.00 31.86     0.001 C 
HETATM   10  C19 LUT X1621     275.438 141.725 225.201  1.00 31.86     0.048 C 
HETATM   11  C20 LUT X1621     275.994 145.299 228.834  1.00 31.86     0.048 C 
HETATM   12  C27 LUT X1621     277.566 156.345 236.150  1.00 31.86    -0.016 C 
HETATM   13  C28 LUT X1621     277.083 155.283 235.507  1.00 31.86     0.003 C 
HETATM   14  C29 LUT X1621     277.472 154.968 234.117  1.00 31.86    -0.062 C 
HETATM   15  C30 LUT X1621     276.972 153.828 233.595  1.00 31.86     0.007 C 
HETATM   16  C31 LUT X1621     277.289 153.330 232.257  1.00 31.86     0.001 C 
HETATM   17  C32 LUT X1621     276.851 152.125 231.897  1.00 31.86     0.007 C 
HETATM   18  C33 LUT X1621     277.201 151.528 230.591  1.00 31.86    -0.062 C 
HETATM   19  C34 LUT X1621     276.836 150.244 230.395  1.00 31.86     0.007 C 
HETATM   20  C35 LUT X1621     277.141 149.467 229.192  1.00 31.86     0.001 C 
HETATM   21  C39 LUT X1621     278.380 155.918 233.377  1.00 31.86     0.048 C 
HETATM   22  C40 LUT X1621     277.976 152.344 229.590  1.00 31.86     0.048 C 
ENDROOT
BRANCH   1  23
HETATM   23  C6  LUT X1621     275.994 141.338 220.865  1.00 31.86    -0.048 C 
HETATM   24  C1  LUT X1621     274.754 141.414 220.001  1.00 31.86    -0.018 C 
HETATM   25  C16 LUT X1621     273.621 140.588 220.589  1.00 31.86     0.020 C 
HETATM   26  C17 LUT X1621     274.338 142.883 220.032  1.00 31.86     0.020 C 
HETATM   27  C2  LUT X1621     274.950 140.980 218.544  1.00 31.86     0.045 C 
HETATM   28  C3  LUT X1621     276.378 140.977 218.012  1.00 31.86     0.123 C 
HETATM   29  C4  LUT X1621     277.304 141.830 218.868  1.00 31.86     0.066 C 
HETATM   30  C5  LUT X1621     277.186 141.315 220.271  1.00 31.86    -0.074 C 
HETATM   31  C18 LUT X1621     278.386 140.675 220.912  1.00 31.86     0.044 C 
HETATM   32  O3  LUT X1621     276.313 141.506 216.689  1.00 31.86    -0.395 OA
ATOM     33  H3  LUT X1621     277.203 141.504 216.357  1.00  0.00     0.210 HD
ENDBRANCH   1  23
BRANCH  12  34
HETATM   34  C26 LUT X1621     277.133 156.601 237.576  1.00 31.86     0.044 C 
HETATM   35  C21 LUT X1621     276.284 157.871 237.623  1.00 31.86    -0.035 C 
HETATM   36  C36 LUT X1621     276.858 158.981 236.748  1.00 31.86     0.016 C 
HETATM   37  C37 LUT X1621     274.893 157.502 237.122  1.00 31.86     0.016 C 
HETATM   38  C22 LUT X1621     276.148 158.386 239.043  1.00 31.86     0.045 C 
HETATM   39  C23 LUT X1621     277.491 158.700 239.674  1.00 31.86     0.142 C 
HETATM   40  C24 LUT X1621     278.492 157.593 239.428  1.00 31.86     0.007 C 
HETATM   41  C25 LUT X1621     278.335 156.651 238.482  1.00 31.86    -0.077 C 
HETATM   42  C38 LUT X1621     279.395 155.596 238.337  1.00 31.86     0.044 C 
HETATM   43  O23 LUT X1621     277.255 158.818 241.076  1.00 31.86    -0.392 OA
ATOM     44  H23 LUT X1621     276.626 159.513 241.231  1.00  0.00     0.210 HD
ENDBRANCH  12  34
TORSDOF 12
