REMARK  2 active torsions:
REMARK  status: ('A' for Active; 'I' for Inactive)
REMARK       I    between atoms: C3_28  and  O3_32 
REMARK    1  A    between atoms: C6_23  and  C7_1 
REMARK       I    between atoms: C8_2  and  C9_3 
REMARK       I    between atoms: C10_4  and  C11_5 
REMARK       I    between atoms: C12_6  and  C13_7 
REMARK       I    between atoms: C14_8  and  C15_9 
REMARK       I    between atoms: C23_39  and  O23_43 
REMARK    2  A    between atoms: C26_34  and  C27_12 
REMARK       I    between atoms: C28_13  and  C29_14 
REMARK       I    between atoms: C30_15  and  C31_16 
REMARK       I    between atoms: C32_17  and  C33_18 
REMARK       I    between atoms: C34_19  and  C35_20 
ROOT
HETATM    1  C7  LUT V1621     321.171 207.990 228.648  1.00 16.22     0.009 C 
HETATM    2  C8  LUT V1621     320.313 207.110 229.153  1.00 16.22     0.007 C 
HETATM    3  C9  LUT V1621     320.681 206.354 230.363  1.00 16.22    -0.062 C 
HETATM    4  C10 LUT V1621     320.126 205.144 230.519  1.00 16.22     0.007 C 
HETATM    5  C11 LUT V1621     320.499 204.214 231.578  1.00 16.22     0.001 C 
HETATM    6  C12 LUT V1621     320.033 202.970 231.549  1.00 16.22     0.007 C 
HETATM    7  C13 LUT V1621     320.432 201.973 232.557  1.00 16.22    -0.062 C 
HETATM    8  C14 LUT V1621     320.012 200.709 232.393  1.00 16.22     0.007 C 
HETATM    9  C15 LUT V1621     320.341 199.612 233.300  1.00 16.22     0.001 C 
HETATM   10  C19 LUT V1621     321.714 206.900 231.305  1.00 16.22     0.048 C 
HETATM   11  C20 LUT V1621     321.301 202.414 233.694  1.00 16.22     0.048 C 
HETATM   12  C27 LUT V1621     319.363 189.940 237.899  1.00 16.22    -0.016 C 
HETATM   13  C28 LUT V1621     319.848 191.127 237.561  1.00 16.22     0.003 C 
HETATM   14  C29 LUT V1621     319.381 191.861 236.379  1.00 16.22    -0.062 C 
HETATM   15  C30 LUT V1621     319.976 193.034 236.112  1.00 16.22     0.007 C 
HETATM   16  C31 LUT V1621     319.615 193.903 235.002  1.00 16.22     0.001 C 
HETATM   17  C32 LUT V1621     320.148 195.115 234.932  1.00 16.22     0.007 C 
HETATM   18  C33 LUT V1621     319.757 196.061 233.876  1.00 16.22    -0.062 C 
HETATM   19  C34 LUT V1621     320.210 197.320 233.976  1.00 16.22     0.007 C 
HETATM   20  C35 LUT V1621     319.882 198.399 233.051  1.00 16.22     0.001 C 
HETATM   21  C39 LUT V1621     318.320 191.236 235.533  1.00 16.22     0.048 C 
HETATM   22  C40 LUT V1621     318.849 195.583 232.786  1.00 16.22     0.048 C 
ENDROOT
BRANCH   1  23
HETATM   23  C6  LUT V1621     320.843 208.499 227.309  1.00 16.22    -0.048 C 
HETATM   24  C1  LUT V1621     321.907 208.357 226.261  1.00 16.22    -0.018 C 
HETATM   25  C16 LUT V1621     323.231 208.838 226.786  1.00 16.22     0.020 C 
HETATM   26  C17 LUT V1621     321.928 206.870 225.956  1.00 16.22     0.020 C 
HETATM   27  C2  LUT V1621     321.671 209.106 224.967  1.00 16.22     0.045 C 
HETATM   28  C3  LUT V1621     320.385 209.879 224.918  1.00 16.22     0.123 C 
HETATM   29  C4  LUT V1621     319.315 208.980 225.475  1.00 16.22     0.066 C 
HETATM   30  C5  LUT V1621     319.620 208.862 226.933  1.00 16.22    -0.074 C 
HETATM   31  C18 LUT V1621     318.573 209.321 227.893  1.00 16.22     0.044 C 
HETATM   32  O3  LUT V1621     320.157 210.192 223.549  1.00 16.22    -0.395 OA
ATOM     33  H3  LUT V1621     319.343 210.681 223.518  1.00  0.00     0.210 HD
ENDBRANCH   1  23
BRANCH  12  34
HETATM   34  C26 LUT V1621     319.926 189.247 239.114  1.00 16.22     0.044 C 
HETATM   35  C21 LUT V1621     320.694 188.015 238.670  1.00 16.22    -0.035 C 
HETATM   36  C36 LUT V1621     319.954 187.264 237.587  1.00 16.22     0.016 C 
HETATM   37  C37 LUT V1621     322.020 188.469 238.101  1.00 16.22     0.016 C 
HETATM   38  C22 LUT V1621     320.957 187.084 239.829  1.00 16.22     0.045 C 
HETATM   39  C23 LUT V1621     319.679 186.610 240.477  1.00 16.22     0.142 C 
HETATM   40  C24 LUT V1621     318.739 187.757 240.719  1.00 16.22     0.007 C 
HETATM   41  C25 LUT V1621     318.846 188.928 240.092  1.00 16.22    -0.077 C 
HETATM   42  C38 LUT V1621     317.845 189.988 240.377  1.00 16.22     0.044 C 
HETATM   43  O23 LUT V1621     320.046 186.052 241.729  1.00 16.22    -0.392 OA
ATOM     44  H23 LUT V1621     319.242 185.754 242.137  1.00  0.00     0.210 HD
ENDBRANCH  12  34
TORSDOF 12
