REMARK  2 active torsions:
REMARK  status: ('A' for Active; 'I' for Inactive)
REMARK       I    between atoms: C3_28  and  O3_32 
REMARK    1  A    between atoms: C6_23  and  C7_1 
REMARK       I    between atoms: C8_2  and  C9_3 
REMARK       I    between atoms: C10_4  and  C11_5 
REMARK       I    between atoms: C12_6  and  C13_7 
REMARK       I    between atoms: C14_8  and  C15_9 
REMARK       I    between atoms: C23_39  and  O23_43 
REMARK    2  A    between atoms: C26_34  and  C27_12 
REMARK       I    between atoms: C28_13  and  C29_14 
REMARK       I    between atoms: C30_15  and  C31_16 
REMARK       I    between atoms: C32_17  and  C33_18 
REMARK       I    between atoms: C34_19  and  C35_20 
ROOT
HETATM    1  C7  LUT 1 617     225.480 319.642 242.246  1.00 38.90     0.009 C 
HETATM    2  C8  LUT 1 617     226.617 319.605 242.938  1.00 38.90     0.007 C 
HETATM    3  C9  LUT 1 617     226.661 319.936 244.374  1.00 38.90    -0.062 C 
HETATM    4  C10 LUT 1 617     227.870 320.235 244.865  1.00 38.90     0.007 C 
HETATM    5  C11 LUT 1 617     228.111 320.708 246.224  1.00 38.90     0.001 C 
HETATM    6  C12 LUT 1 617     229.313 321.183 246.527  1.00 38.90     0.007 C 
HETATM    7  C13 LUT 1 617     229.621 321.757 247.847  1.00 38.90    -0.062 C 
HETATM    8  C14 LUT 1 617     230.810 322.366 247.965  1.00 38.90     0.007 C 
HETATM    9  C15 LUT 1 617     231.298 323.027 249.170  1.00 38.90     0.001 C 
HETATM   10  C19 LUT 1 617     225.399 319.970 245.188  1.00 38.90     0.048 C 
HETATM   11  C20 LUT 1 617     228.607 321.660 248.948  1.00 38.90     0.048 C 
HETATM   12  C27 LUT 1 617     238.253 328.162 255.508  1.00 38.90    -0.016 C 
HETATM   13  C28 LUT 1 617     237.224 327.570 254.920  1.00 38.90     0.003 C 
HETATM   14  C29 LUT 1 617     237.235 327.122 253.520  1.00 38.90    -0.062 C 
HETATM   15  C30 LUT 1 617     236.086 326.581 253.098  1.00 38.90     0.007 C 
HETATM   16  C31 LUT 1 617     235.832 326.054 251.766  1.00 38.90     0.001 C 
HETATM   17  C32 LUT 1 617     234.638 325.508 251.571  1.00 38.90     0.007 C 
HETATM   18  C33 LUT 1 617     234.237 324.894 250.297  1.00 38.90    -0.062 C 
HETATM   19  C34 LUT 1 617     233.036 324.288 250.276  1.00 38.90     0.007 C 
HETATM   20  C35 LUT 1 617     232.487 323.608 249.108  1.00 38.90     0.001 C 
HETATM   21  C39 LUT 1 617     238.456 327.315 252.670  1.00 38.90     0.048 C 
HETATM   22  C40 LUT 1 617     235.184 324.955 249.137  1.00 38.90     0.048 C 
ENDROOT
BRANCH   1  23
HETATM   23  C6  LUT 1 617     225.687 319.487 240.796  1.00 38.90    -0.048 C 
HETATM   24  C1  LUT 1 617     225.189 320.561 239.858  1.00 38.90    -0.018 C 
HETATM   25  C16 LUT 1 617     223.906 321.161 240.417  1.00 38.90     0.020 C 
HETATM   26  C17 LUT 1 617     226.276 321.633 239.828  1.00 38.90     0.020 C 
HETATM   27  C2  LUT 1 617     224.954 320.057 238.435  1.00 38.90     0.045 C 
HETATM   28  C3  LUT 1 617     225.769 318.832 238.030  1.00 38.90     0.123 C 
HETATM   29  C4  LUT 1 617     226.997 318.700 238.910  1.00 38.90     0.066 C 
HETATM   30  C5  LUT 1 617     226.481 318.529 240.309  1.00 38.90    -0.074 C 
HETATM   31  C18 LUT 1 617     226.767 317.236 241.035  1.00 38.90     0.044 C 
HETATM   32  O3  LUT 1 617     226.186 318.949 236.667  1.00 38.90    -0.395 OA
ATOM     33  H3  LUT 1 617     226.693 318.186 236.415  1.00  0.00     0.210 HD
ENDBRANCH   1  23
BRANCH  12  34
HETATM   34  C26 LUT 1 617     238.070 328.587 256.944  1.00 38.90     0.044 C 
HETATM   35  C21 LUT 1 617     238.004 330.106 256.983  1.00 38.90    -0.035 C 
HETATM   36  C36 LUT 1 617     239.212 330.733 256.299  1.00 38.90     0.016 C 
HETATM   37  C37 LUT 1 617     236.745 330.589 256.277  1.00 38.90     0.016 C 
HETATM   38  C22 LUT 1 617     237.920 330.531 258.430  1.00 38.90     0.045 C 
HETATM   39  C23 LUT 1 617     239.206 330.207 259.157  1.00 38.90     0.142 C 
HETATM   40  C24 LUT 1 617     239.658 328.799 258.852  1.00 38.90     0.007 C 
HETATM   41  C25 LUT 1 617     239.140 328.059 257.857  1.00 38.90    -0.077 C 
HETATM   42  C38 LUT 1 617     239.620 326.650 257.699  1.00 38.90     0.044 C 
HETATM   43  O23 LUT 1 617     238.956 330.326 260.557  1.00 38.90    -0.392 OA
ATOM     44  H23 LUT 1 617     239.764 330.122 261.014  1.00  0.00     0.210 HD
ENDBRANCH  12  34
TORSDOF 12
