REMARK  2 active torsions:
REMARK  status: ('A' for Active; 'I' for Inactive)
REMARK       I    between atoms: C3_28  and  O3_32 
REMARK    1  A    between atoms: C6_23  and  C7_1 
REMARK       I    between atoms: C8_2  and  C9_3 
REMARK       I    between atoms: C10_4  and  C11_5 
REMARK       I    between atoms: C12_6  and  C13_7 
REMARK       I    between atoms: C14_8  and  C15_9 
REMARK       I    between atoms: C23_39  and  O23_43 
REMARK    2  A    between atoms: C26_34  and  C27_12 
REMARK       I    between atoms: C28_13  and  C29_14 
REMARK       I    between atoms: C30_15  and  C31_16 
REMARK       I    between atoms: C32_17  and  C33_18 
REMARK       I    between atoms: C34_19  and  C35_20 
ROOT
HETATM    1  C7  LUT 9 619     296.890 301.108 244.099  1.00 47.88     0.009 C 
HETATM    2  C8  LUT 9 619     297.540 299.980 244.370  1.00 47.88     0.007 C 
HETATM    3  C9  LUT 9 619     297.869 299.661 245.763  1.00 47.88    -0.062 C 
HETATM    4  C10 LUT 9 619     298.733 298.671 245.995  1.00 47.88     0.007 C 
HETATM    5  C11 LUT 9 619     299.145 298.275 247.332  1.00 47.88     0.001 C 
HETATM    6  C12 LUT 9 619     299.900 297.190 247.384  1.00 47.88     0.007 C 
HETATM    7  C13 LUT 9 619     300.450 296.640 248.629  1.00 47.88    -0.062 C 
HETATM    8  C14 LUT 9 619     301.411 295.726 248.491  1.00 47.88     0.007 C 
HETATM    9  C15 LUT 9 619     302.098 295.105 249.609  1.00 47.88     0.001 C 
HETATM   10  C19 LUT 9 619     297.236 300.437 246.875  1.00 47.88     0.048 C 
HETATM   11  C20 LUT 9 619     299.972 297.091 249.974  1.00 47.88     0.048 C 
HETATM   12  C27 LUT 9 619     308.980 288.469 254.371  1.00 47.88    -0.016 C 
HETATM   13  C28 LUT 9 619     308.056 289.381 254.090  1.00 47.88     0.003 C 
HETATM   14  C29 LUT 9 619     307.540 289.594 252.729  1.00 47.88    -0.062 C 
HETATM   15  C30 LUT 9 619     306.937 290.760 252.496  1.00 47.88     0.007 C 
HETATM   16  C31 LUT 9 619     306.356 291.163 251.224  1.00 47.88     0.001 C 
HETATM   17  C32 LUT 9 619     305.488 292.163 251.309  1.00 47.88     0.007 C 
HETATM   18  C33 LUT 9 619     304.778 292.734 250.156  1.00 47.88    -0.062 C 
HETATM   19  C34 LUT 9 619     303.892 293.704 250.397  1.00 47.88     0.007 C 
HETATM   20  C35 LUT 9 619     303.144 294.338 249.322  1.00 47.88     0.001 C 
HETATM   21  C39 LUT 9 619     307.697 288.559 251.658  1.00 47.88     0.048 C 
HETATM   22  C40 LUT 9 619     305.032 292.247 248.762  1.00 47.88     0.048 C 
ENDROOT
BRANCH   1  23
HETATM   23  C6  LUT 9 619     296.550 301.479 242.711  1.00 47.88    -0.048 C 
HETATM   24  C1  LUT 9 619     297.402 302.532 242.029  1.00 47.88    -0.018 C 
HETATM   25  C16 LUT 9 619     296.936 303.904 242.496  1.00 47.88     0.020 C 
HETATM   26  C17 LUT 9 619     298.871 302.368 242.399  1.00 47.88     0.020 C 
HETATM   27  C2  LUT 9 619     297.282 302.444 240.520  1.00 47.88     0.045 C 
HETATM   28  C3  LUT 9 619     295.826 302.333 240.116  1.00 47.88     0.123 C 
HETATM   29  C4  LUT 9 619     295.274 301.015 240.627  1.00 47.88     0.066 C 
HETATM   30  C5  LUT 9 619     295.502 300.900 242.110  1.00 47.88    -0.074 C 
HETATM   31  C18 LUT 9 619     294.494 300.109 242.891  1.00 47.88     0.044 C 
HETATM   32  O3  LUT 9 619     295.714 302.393 238.694  1.00 47.88    -0.395 OA
ATOM     33  H3  LUT 9 619     296.060 303.218 238.374  1.00  0.00     0.210 HD
ENDBRANCH   1  23
BRANCH  12  34
HETATM   34  C26 LUT 9 619     309.443 288.356 255.805  1.00 47.88     0.044 C 
HETATM   35  C21 LUT 9 619     310.941 288.652 255.869  1.00 47.88    -0.035 C 
HETATM   36  C36 LUT 9 619     311.709 287.802 254.863  1.00 47.88     0.016 C 
HETATM   37  C37 LUT 9 619     311.196 290.116 255.528  1.00 47.88     0.016 C 
HETATM   38  C22 LUT 9 619     311.456 288.419 257.280  1.00 47.88     0.045 C 
HETATM   39  C23 LUT 9 619     311.175 287.019 257.808  1.00 47.88     0.142 C 
HETATM   40  C24 LUT 9 619     309.788 286.539 257.447  1.00 47.88     0.007 C 
HETATM   41  C25 LUT 9 619     309.136 286.996 256.369  1.00 47.88    -0.077 C 
HETATM   42  C38 LUT 9 619     308.086 286.134 255.732  1.00 47.88     0.044 C 
HETATM   43  O23 LUT 9 619     311.285 287.063 259.232  1.00 47.88    -0.392 OA
ATOM     44  H23 LUT 9 619     311.110 286.189 259.561  1.00  0.00     0.210 HD
ENDBRANCH  12  34
TORSDOF 12
