REMARK  2 active torsions:
REMARK  status: ('A' for Active; 'I' for Inactive)
REMARK       I    between atoms: C3_28  and  O3_32 
REMARK    1  A    between atoms: C6_23  and  C7_1 
REMARK       I    between atoms: C8_2  and  C9_3 
REMARK       I    between atoms: C10_4  and  C11_5 
REMARK       I    between atoms: C12_6  and  C13_7 
REMARK       I    between atoms: C14_8  and  C15_9 
REMARK       I    between atoms: C23_39  and  O23_43 
REMARK    2  A    between atoms: C26_34  and  C27_12 
REMARK       I    between atoms: C28_13  and  C29_14 
REMARK       I    between atoms: C30_15  and  C31_16 
REMARK       I    between atoms: C32_17  and  C33_18 
REMARK       I    between atoms: C34_19  and  C35_20 
ROOT
HETATM    1  C7  LUT 2 619     310.697 254.048 236.663  1.00 46.63     0.009 C 
HETATM    2  C8  LUT 2 619     310.803 252.730 236.867  1.00 46.63     0.007 C 
HETATM    3  C9  LUT 2 619     311.028 252.150 238.213  1.00 46.63    -0.062 C 
HETATM    4  C10 LUT 2 619     311.377 250.852 238.283  1.00 46.63     0.007 C 
HETATM    5  C11 LUT 2 619     311.697 250.158 239.532  1.00 46.63     0.001 C 
HETATM    6  C12 LUT 2 619     312.111 248.896 239.502  1.00 46.63     0.007 C 
HETATM    7  C13 LUT 2 619     312.477 248.173 240.737  1.00 46.63    -0.062 C 
HETATM    8  C14 LUT 2 619     312.975 246.935 240.579  1.00 46.63     0.007 C 
HETATM    9  C15 LUT 2 619     313.411 246.053 241.658  1.00 46.63     0.001 C 
HETATM   10  C19 LUT 2 619     310.900 253.016 239.437  1.00 46.63     0.048 C 
HETATM   11  C20 LUT 2 619     312.289 248.832 242.074  1.00 46.63     0.048 C 
HETATM   12  C27 LUT 2 619     317.136 236.939 245.932  1.00 46.63    -0.016 C 
HETATM   13  C28 LUT 2 619     316.649 238.141 245.671  1.00 46.63     0.003 C 
HETATM   14  C29 LUT 2 619     316.337 238.591 244.310  1.00 46.63    -0.062 C 
HETATM   15  C30 LUT 2 619     315.922 239.860 244.230  1.00 46.63     0.007 C 
HETATM   16  C31 LUT 2 619     315.572 240.561 243.006  1.00 46.63     0.001 C 
HETATM   17  C32 LUT 2 619     315.182 241.822 243.154  1.00 46.63     0.007 C 
HETATM   18  C33 LUT 2 619     314.781 242.672 242.024  1.00 46.63    -0.062 C 
HETATM   19  C34 LUT 2 619     314.335 243.907 242.317  1.00 46.63     0.007 C 
HETATM   20  C35 LUT 2 619     313.882 244.863 241.311  1.00 46.63     0.001 C 
HETATM   21  C39 LUT 2 619     316.538 237.679 243.137  1.00 46.63     0.048 C 
HETATM   22  C40 LUT 2 619     314.892 242.109 240.637  1.00 46.63     0.048 C 
ENDROOT
BRANCH   1  23
HETATM   23  C6  LUT 2 619     310.647 254.254 235.218  1.00 46.63    -0.048 C 
HETATM   24  C1  LUT 2 619     311.934 254.594 234.513  1.00 46.63    -0.018 C 
HETATM   25  C16 LUT 2 619     312.757 255.488 235.429  1.00 46.63     0.020 C 
HETATM   26  C17 LUT 2 619     312.669 253.279 234.289  1.00 46.63     0.020 C 
HETATM   27  C2  LUT 2 619     311.719 255.290 233.171  1.00 46.63     0.045 C 
HETATM   28  C3  LUT 2 619     310.296 255.214 232.633  1.00 46.63     0.123 C 
HETATM   29  C4  LUT 2 619     309.675 253.882 233.011  1.00 46.63     0.066 C 
HETATM   30  C5  LUT 2 619     309.592 253.836 234.512  1.00 46.63    -0.074 C 
HETATM   31  C18 LUT 2 619     308.287 253.409 235.131  1.00 46.63     0.044 C 
HETATM   32  O3  LUT 2 619     310.314 255.335 231.207  1.00 46.63    -0.395 OA
ATOM     33  H3  LUT 2 619     309.426 255.288 230.871  1.00  0.00     0.210 HD
ENDBRANCH   1  23
BRANCH  12  34
HETATM   34  C26 LUT 2 619     317.464 236.624 247.370  1.00 46.63     0.044 C 
HETATM   35  C21 LUT 2 619     318.961 236.356 247.445  1.00 46.63    -0.035 C 
HETATM   36  C36 LUT 2 619     319.392 235.264 246.476  1.00 46.63     0.016 C 
HETATM   37  C37 LUT 2 619     319.721 237.627 247.096  1.00 46.63     0.016 C 
HETATM   38  C22 LUT 2 619     319.327 235.956 248.857  1.00 46.63     0.045 C 
HETATM   39  C23 LUT 2 619     318.629 234.676 249.271  1.00 46.63     0.142 C 
HETATM   40  C24 LUT 2 619     317.198 234.602 248.783  1.00 46.63     0.007 C 
HETATM   41  C25 LUT 2 619     316.664 235.486 247.928  1.00 46.63    -0.077 C 
HETATM   42  C38 LUT 2 619     315.216 235.348 247.572  1.00 46.63     0.044 C 
HETATM   43  O23 LUT 2 619     318.625 234.646 250.697  1.00 46.63    -0.392 OA
ATOM     44  H23 LUT 2 619     319.523 234.692 251.003  1.00  0.00     0.210 HD
ENDBRANCH  12  34
TORSDOF 12
