REMARK  2 active torsions:
REMARK  status: ('A' for Active; 'I' for Inactive)
REMARK       I    between atoms: C3_28  and  O3_32 
REMARK    1  A    between atoms: C6_23  and  C7_1 
REMARK       I    between atoms: C8_2  and  C9_3 
REMARK       I    between atoms: C10_4  and  C11_5 
REMARK       I    between atoms: C12_6  and  C13_7 
REMARK       I    between atoms: C14_8  and  C15_9 
REMARK       I    between atoms: C23_39  and  O23_43 
REMARK    2  A    between atoms: C26_34  and  C27_12 
REMARK       I    between atoms: C28_13  and  C29_14 
REMARK       I    between atoms: C30_15  and  C31_16 
REMARK       I    between atoms: C32_17  and  C33_18 
REMARK       I    between atoms: C34_19  and  C35_20 
ROOT
HETATM    1  C7  LUT U1621     319.782 174.166 222.816  1.00 20.50     0.009 C 
HETATM    2  C8  LUT U1621     320.880 173.692 223.398  1.00 20.50     0.007 C 
HETATM    3  C9  LUT U1621     321.159 174.076 224.791  1.00 20.50    -0.062 C 
HETATM    4  C10 LUT U1621     322.431 174.039 225.205  1.00 20.50     0.007 C 
HETATM    5  C11 LUT U1621     322.873 174.535 226.503  1.00 20.50     0.001 C 
HETATM    6  C12 LUT U1621     324.172 174.662 226.744  1.00 20.50     0.007 C 
HETATM    7  C13 LUT U1621     324.668 175.232 228.010  1.00 20.50    -0.062 C 
HETATM    8  C14 LUT U1621     325.981 175.474 228.117  1.00 20.50     0.007 C 
HETATM    9  C15 LUT U1621     326.610 176.059 229.297  1.00 20.50     0.001 C 
HETATM   10  C19 LUT U1621     320.048 174.584 225.656  1.00 20.50     0.048 C 
HETATM   11  C20 LUT U1621     323.687 175.537 229.098  1.00 20.50     0.048 C 
HETATM   12  C27 LUT U1621     334.599 178.642 236.007  1.00 20.50    -0.016 C 
HETATM   13  C28 LUT U1621     333.402 178.591 235.437  1.00 20.50     0.003 C 
HETATM   14  C29 LUT U1621     333.214 178.143 234.051  1.00 20.50    -0.062 C 
HETATM   15  C30 LUT U1621     331.959 178.159 233.578  1.00 20.50     0.007 C 
HETATM   16  C31 LUT U1621     331.574 177.711 232.246  1.00 20.50     0.001 C 
HETATM   17  C32 LUT U1621     330.286 177.612 231.943  1.00 20.50     0.007 C 
HETATM   18  C33 LUT U1621     329.840 177.083 230.645  1.00 20.50    -0.062 C 
HETATM   19  C34 LUT U1621     328.527 176.856 230.495  1.00 20.50     0.007 C 
HETATM   20  C35 LUT U1621     327.912 176.283 229.299  1.00 20.50     0.001 C 
HETATM   21  C39 LUT U1621     334.411 177.734 233.252  1.00 20.50     0.048 C 
HETATM   22  C40 LUT U1621     330.866 176.770 229.602  1.00 20.50     0.048 C 
ENDROOT
BRANCH   1  23
HETATM   23  C6  LUT U1621     319.615 173.995 221.367  1.00 20.50    -0.048 C 
HETATM   24  C1  LUT U1621     319.113 175.167 220.574  1.00 20.50    -0.018 C 
HETATM   25  C16 LUT U1621     317.954 175.834 221.273  1.00 20.50     0.020 C 
HETATM   26  C17 LUT U1621     320.277 176.140 220.540  1.00 20.50     0.020 C 
HETATM   27  C2  LUT U1621     318.676 174.849 219.150  1.00 20.50     0.045 C 
HETATM   28  C3  LUT U1621     319.148 173.534 218.566  1.00 20.50     0.123 C 
HETATM   29  C4  LUT U1621     320.409 173.085 219.263  1.00 20.50     0.066 C 
HETATM   30  C5  LUT U1621     320.052 172.940 220.705  1.00 20.50    -0.074 C 
HETATM   31  C18 LUT U1621     320.063 171.584 221.316  1.00 20.50     0.044 C 
HETATM   32  O3  LUT U1621     319.411 173.769 217.190  1.00 20.50    -0.395 OA
ATOM     33  H3  LUT U1621     319.707 172.944 216.824  1.00  0.00     0.210 HD
ENDBRANCH   1  23
BRANCH  12  34
HETATM   34  C26 LUT U1621     334.695 179.122 237.432  1.00 20.50     0.044 C 
HETATM   35  C21 LUT U1621     335.451 180.439 237.497  1.00 20.50    -0.035 C 
HETATM   36  C36 LUT U1621     336.665 180.428 236.591  1.00 20.50     0.016 C 
HETATM   37  C37 LUT U1621     334.511 181.534 237.051  1.00 20.50     0.016 C 
HETATM   38  C22 LUT U1621     335.894 180.757 238.906  1.00 20.50     0.045 C 
HETATM   39  C23 LUT U1621     336.793 179.689 239.472  1.00 20.50     0.142 C 
HETATM   40  C24 LUT U1621     336.239 178.316 239.212  1.00 20.50     0.007 C 
HETATM   41  C25 LUT U1621     335.311 178.065 238.287  1.00 20.50    -0.077 C 
HETATM   42  C38 LUT U1621     334.847 176.664 238.090  1.00 20.50     0.044 C 
HETATM   43  O23 LUT U1621     336.826 179.912 240.872  1.00 20.50    -0.392 OA
ATOM     44  H23 LUT U1621     337.176 180.780 241.036  1.00  0.00     0.210 HD
ENDBRANCH  12  34
TORSDOF 12
