MODEL 1
REMARK VINA RESULT:   -11.318      0.000      0.000
REMARK INTER + INTRA:         -11.761
REMARK INTER:                 -11.318
REMARK INTRA:                  -0.443
REMARK UNBOUND:                -0.443
REMARK  0 active torsions:
REMARK  status: ('A' for Active; 'I' for Inactive)
REMARK       I    between atoms: C3_3  and  O3_21 
REMARK       I    between atoms: C6_6  and  C7_7 
REMARK       I    between atoms: C8_8  and  C9_9 
REMARK       I    between atoms: C10_10  and  C11_11 
REMARK       I    between atoms: C12_12  and  C13_13 
REMARK       I    between atoms: C14_14  and  C15_15 
REMARK       I    between atoms: C23_25  and  O23_43 
REMARK       I    between atoms: C26_28  and  C27_29 
REMARK       I    between atoms: C28_30  and  C29_31 
REMARK       I    between atoms: C30_32  and  C31_33 
REMARK       I    between atoms: C32_34  and  C33_35 
REMARK       I    between atoms: C34_36  and  C35_37 
ROOT
HETATM    1  C1  VFQ S1620     -34.199 128.326   6.940  1.00 51.40    -0.018 C 
HETATM    2  C2  VFQ S1620     -33.452 127.919   5.678  1.00 51.40     0.045 C 
HETATM    3  C3  VFQ S1620     -32.038 128.437   5.448  1.00 51.40     0.123 C 
HETATM    4  C4  VFQ S1620     -31.402 129.002   6.699  1.00 51.40     0.066 C 
HETATM    5  C5  VFQ S1620     -32.360 129.930   7.371  1.00 51.40    -0.074 C 
HETATM    6  C6  VFQ S1620     -33.585 129.505   7.660  1.00 51.40    -0.048 C 
HETATM    7  C7  VFQ S1620     -34.378 130.161   8.715  1.00 51.40     0.009 C 
HETATM    8  C8  VFQ S1620     -35.027 131.287   8.458  1.00 51.40     0.007 C 
HETATM    9  C9  VFQ S1620     -35.844 131.941   9.475  1.00 51.40    -0.062 C 
HETATM   10  C10 VFQ S1620     -36.419 133.083   9.106  1.00 51.40     0.007 C 
HETATM   11  C11 VFQ S1620     -37.299 133.892   9.925  1.00 51.40     0.001 C 
HETATM   12  C12 VFQ S1620     -37.971 134.768   9.200  1.00 51.40     0.007 C 
HETATM   13  C13 VFQ S1620     -38.959 135.698   9.742  1.00 51.40    -0.062 C 
HETATM   14  C14 VFQ S1620     -39.639 136.436   8.864  1.00 51.40     0.007 C 
HETATM   15  C15 VFQ S1620     -40.681 137.356   9.278  1.00 51.40     0.001 C 
HETATM   16  C16 VFQ S1620     -34.312 127.097   7.833  1.00 51.40     0.020 C 
HETATM   17  C17 VFQ S1620     -35.604 128.736   6.536  1.00 51.40     0.020 C 
HETATM   18  C18 VFQ S1620     -31.535 130.730   8.330  1.00 51.40     0.044 C 
HETATM   19  C19 VFQ S1620     -36.013 131.329  10.831  1.00 51.40     0.048 C 
HETATM   20  C20 VFQ S1620     -39.197 135.791  11.213  1.00 51.40     0.048 C 
HETATM   21  O3  VFQ S1620     -31.222 127.347   5.016  1.00 51.40    -0.395 OA
ATOM     22  H3  VFQ S1620     -30.340 127.671   4.873  1.00  0.00     0.210 HD
HETATM   23  C21 VFQ S1620     -50.975 144.512  10.046  1.00 21.49    -0.018 C 
HETATM   24  C22 VFQ S1620     -52.115 145.272  10.761  1.00 21.50     0.045 C 
HETATM   25  C23 VFQ S1620     -51.814 146.604  11.457  1.00 22.37     0.123 C 
HETATM   26  C24 VFQ S1620     -50.332 146.886  11.720  1.00 21.17     0.066 C 
HETATM   27  C25 VFQ S1620     -49.297 146.258  10.844  1.00 19.70    -0.074 C 
HETATM   28  C26 VFQ S1620     -49.561 145.156  10.053  1.00 20.41    -0.048 C 
HETATM   29  C27 VFQ S1620     -48.536 144.545   9.184  1.00 19.41     0.009 C 
HETATM   30  C28 VFQ S1620     -47.534 143.730   9.545  1.00 18.90     0.007 C 
HETATM   31  C29 VFQ S1620     -46.469 143.271   8.689  1.00 51.40    -0.062 C 
HETATM   32  C30 VFQ S1620     -45.909 142.088   8.951  1.00 51.40     0.007 C 
HETATM   33  C31 VFQ S1620     -44.856 141.492   8.145  1.00 51.40     0.001 C 
HETATM   34  C32 VFQ S1620     -44.194 140.496   8.711  1.00 51.40     0.007 C 
HETATM   35  C33 VFQ S1620     -43.118 139.749   8.047  1.00 51.40    -0.062 C 
HETATM   36  C34 VFQ S1620     -42.431 138.897   8.809  1.00 51.40     0.007 C 
HETATM   37  C35 VFQ S1620     -41.363 138.026   8.354  1.00 51.40     0.001 C 
HETATM   38  C36 VFQ S1620     -51.438 144.246   8.591  1.00 19.84     0.020 C 
HETATM   39  C37 VFQ S1620     -50.934 143.163  10.793  1.00 19.63     0.020 C 
HETATM   40  C38 VFQ S1620     -48.043 147.041  11.005  1.00 19.29     0.044 C 
HETATM   41  C39 VFQ S1620     -46.028 144.109   7.532  1.00 51.40     0.048 C 
HETATM   42  C40 VFQ S1620     -42.841 139.923   6.587  1.00 51.40     0.048 C 
HETATM   43  O23 VFQ S1620     -52.548 146.705  12.665  1.00 22.38    -0.395 OA
ATOM     44  H23 VFQ S1620     -53.468 146.530  12.502  1.00  0.00     0.210 HD
ENDROOT
TORSDOF 12
BEGIN_RES PHE A  61
REMARK  2 active torsions:
REMARK  status: ('A' for Active; 'I' for Inactive)
REMARK    1  A    between atoms: CA   and  CB  
REMARK    2  A    between atoms: CB   and  CG  
ROOT
ATOM      1  CA  PHE A  61     -36.237 128.293  12.768  1.00 39.40     0.164 C 
ENDROOT
BRANCH   1   2
ATOM      2  CB  PHE A  61     -36.813 128.951  11.509  1.00 39.41     0.058 C 
BRANCH   2   3
ATOM      3  CG  PHE A  61     -37.024 128.005  10.351  1.00 39.01    -0.020 A 
ATOM      4  CD2 PHE A  61     -36.273 126.846  10.234  1.00 40.32    -0.004 A 
ATOM      5  CE2 PHE A  61     -36.466 125.978   9.166  1.00 40.20    -0.000 A 
ATOM      6  CZ  PHE A  61     -37.412 126.257   8.207  1.00 40.34    -0.000 A 
ATOM      7  CE1 PHE A  61     -38.168 127.404   8.311  1.00 41.51    -0.000 A 
ATOM      8  CD1 PHE A  61     -37.971 128.275   9.374  1.00 39.94    -0.004 A 
ENDBRANCH   2   3
ENDBRANCH   1   2
END_RES PHE A  61
BEGIN_RES VAL A 134
REMARK  1 active torsions:
REMARK  status: ('A' for Active; 'I' for Inactive)
REMARK    3  A    between atoms: CA   and  CB  
ROOT
ATOM      9  CA  VAL A 134     -29.766 132.051   9.815  1.00 40.75     0.159 C 
ENDROOT
BRANCH   9  10
ATOM     10  CB  VAL A 134     -30.864 132.765   9.009  1.00 40.76     0.029 C 
ATOM     11  CG1 VAL A 134     -32.103 132.985   9.865  1.00 41.76     0.002 C 
ATOM     12  CG2 VAL A 134     -30.368 134.080   8.428  1.00 40.56     0.002 C 
ENDBRANCH   9  10
END_RES VAL A 134
BEGIN_RES TYR A 338
REMARK  3 active torsions:
REMARK  status: ('A' for Active; 'I' for Inactive)
REMARK    4  A    between atoms: CA   and  CB  
REMARK    5  A    between atoms: CB   and  CG  
REMARK    6  A    between atoms: CZ   and  OH  
ROOT
ATOM     13  CA  TYR A 338     -41.631 124.950   6.058  1.00 38.23     0.164 C 
ENDROOT
BRANCH  13  14
ATOM     14  CB  TYR A 338     -41.621 126.456   6.339  1.00 39.15     0.058 C 
BRANCH  14  15
ATOM     15  CG  TYR A 338     -40.417 127.211   5.825  1.00 39.03    -0.020 A 
ATOM     16  CD2 TYR A 338     -40.263 128.559   6.104  1.00 40.65    -0.002 A 
ATOM     17  CE2 TYR A 338     -39.180 129.286   5.636  1.00 40.91     0.024 A 
ATOM     18  CZ  TYR A 338     -38.217 128.663   4.865  1.00 42.33     0.089 A 
ATOM     19  CE1 TYR A 338     -38.346 127.316   4.577  1.00 40.63     0.024 A 
ATOM     20  CD1 TYR A 338     -39.443 126.609   5.043  1.00 39.27    -0.002 A 
BRANCH  18  21
ATOM     21  OH  TYR A 338     -37.142 129.369   4.402  1.00 43.36    -0.359 OA
ATOM     22  HH  TYR A 338     -36.522 129.755   5.010  1.00  0.00     0.217 HD
ENDBRANCH  18  21
ENDBRANCH  14  15
ENDBRANCH  13  14
END_RES TYR A 338
ENDMDL
MODEL 2
REMARK VINA RESULT:    -9.581      1.933     16.623
REMARK INTER + INTRA:         -10.024
REMARK INTER:                  -5.752
REMARK INTRA:                  -4.272
REMARK UNBOUND:                -0.443
REMARK  0 active torsions:
REMARK  status: ('A' for Active; 'I' for Inactive)
REMARK       I    between atoms: C3_3  and  O3_21 
REMARK       I    between atoms: C6_6  and  C7_7 
REMARK       I    between atoms: C8_8  and  C9_9 
REMARK       I    between atoms: C10_10  and  C11_11 
REMARK       I    between atoms: C12_12  and  C13_13 
REMARK       I    between atoms: C14_14  and  C15_15 
REMARK       I    between atoms: C23_25  and  O23_43 
REMARK       I    between atoms: C26_28  and  C27_29 
REMARK       I    between atoms: C28_30  and  C29_31 
REMARK       I    between atoms: C30_32  and  C31_33 
REMARK       I    between atoms: C32_34  and  C33_35 
REMARK       I    between atoms: C34_36  and  C35_37 
ROOT
HETATM    1  C1  VFQ S1620     -47.912 145.078  12.432  1.00 51.40    -0.018 C 
HETATM    2  C2  VFQ S1620     -48.499 145.385  13.803  1.00 51.40     0.045 C 
HETATM    3  C3  VFQ S1620     -47.813 146.408  14.697  1.00 51.40     0.123 C 
HETATM    4  C4  VFQ S1620     -46.825 147.280  13.953  1.00 51.40     0.066 C 
HETATM    5  C5  VFQ S1620     -45.942 146.423  13.107  1.00 51.40    -0.074 C 
HETATM    6  C6  VFQ S1620     -46.490 145.563  12.256  1.00 51.40    -0.048 C 
HETATM    7  C7  VFQ S1620     -45.731 145.071  11.092  1.00 51.40     0.009 C 
HETATM    8  C8  VFQ S1620     -44.855 144.088  11.237  1.00 51.40     0.007 C 
HETATM    9  C9  VFQ S1620     -44.112 143.560  10.096  1.00 51.40    -0.062 C 
HETATM   10  C10 VFQ S1620     -43.237 142.597  10.375  1.00 51.40     0.007 C 
HETATM   11  C11 VFQ S1620     -42.412 141.897   9.411  1.00 51.40     0.001 C 
HETATM   12  C12 VFQ S1620     -41.902 140.789   9.918  1.00 51.40     0.007 C 
HETATM   13  C13 VFQ S1620     -41.058 139.857   9.174  1.00 51.40    -0.062 C 
HETATM   14  C14 VFQ S1620     -40.720 138.724   9.791  1.00 51.40     0.007 C 
HETATM   15  C15 VFQ S1620     -39.929 137.700   9.137  1.00 51.40     0.001 C 
HETATM   16  C16 VFQ S1620     -48.854 145.651  11.381  1.00 51.40     0.020 C 
HETATM   17  C17 VFQ S1620     -47.890 143.570  12.264  1.00 51.40     0.020 C 
HETATM   18  C18 VFQ S1620     -44.777 147.289  12.742  1.00 51.40     0.044 C 
HETATM   19  C19 VFQ S1620     -44.356 144.084   8.716  1.00 51.40     0.048 C 
HETATM   20  C20 VFQ S1620     -40.617 140.167   7.782  1.00 51.40     0.048 C 
HETATM   21  O3  VFQ S1620     -48.811 147.273  15.243  1.00 51.40    -0.395 OA
ATOM     22  H3  VFQ S1620     -48.382 147.912  15.801  1.00  0.00     0.210 HD
HETATM   23  C21 VFQ S1620     -34.840 126.880   5.291  1.00 21.49    -0.018 C 
HETATM   24  C22 VFQ S1620     -34.137 125.925   4.301  1.00 21.50     0.045 C 
HETATM   25  C23 VFQ S1620     -32.635 126.080   4.038  1.00 22.37     0.123 C 
HETATM   26  C24 VFQ S1620     -32.027 127.413   4.484  1.00 21.17     0.066 C 
HETATM   27  C25 VFQ S1620     -32.667 128.179   5.596  1.00 19.70    -0.074 C 
HETATM   28  C26 VFQ S1620     -33.970 127.957   5.998  1.00 20.41    -0.048 C 
HETATM   29  C27 VFQ S1620     -34.594 128.712   7.102  1.00 19.41     0.009 C 
HETATM   30  C28 VFQ S1620     -35.085 129.959   7.069  1.00 18.90     0.007 C 
HETATM   31  C29 VFQ S1620     -35.554 130.712   8.204  1.00 51.40    -0.062 C 
HETATM   32  C30 VFQ S1620     -36.500 131.634   8.008  1.00 51.40     0.007 C 
HETATM   33  C31 VFQ S1620     -37.087 132.433   9.072  1.00 51.40     0.001 C 
HETATM   34  C32 VFQ S1620     -37.756 133.506   8.680  1.00 51.40     0.007 C 
HETATM   35  C33 VFQ S1620     -38.444 134.419   9.601  1.00 51.40    -0.062 C 
HETATM   36  C34 VFQ S1620     -38.920 135.548   9.071  1.00 51.40     0.007 C 
HETATM   37  C35 VFQ S1620     -39.670 136.567   9.782  1.00 51.40     0.001 C 
HETATM   38  C36 VFQ S1620     -35.567 126.002   6.342  1.00 19.84     0.020 C 
HETATM   39  C37 VFQ S1620     -35.906 127.567   4.415  1.00 19.63     0.020 C 
HETATM   40  C38 VFQ S1620     -31.654 129.133   6.120  1.00 19.29     0.044 C 
HETATM   41  C39 VFQ S1620     -34.993 130.441   9.564  1.00 51.40     0.048 C 
HETATM   42  C40 VFQ S1620     -38.622 134.075  11.046  1.00 51.40     0.048 C 
HETATM   43  O23 VFQ S1620     -32.348 125.850   2.669  1.00 22.38    -0.395 OA
ATOM     44  H23 VFQ S1620     -32.725 125.024   2.392  1.00  0.00     0.210 HD
ENDROOT
TORSDOF 12
BEGIN_RES PHE A  61
REMARK  2 active torsions:
REMARK  status: ('A' for Active; 'I' for Inactive)
REMARK    1  A    between atoms: CA   and  CB  
REMARK    2  A    between atoms: CB   and  CG  
ROOT
ATOM      1  CA  PHE A  61     -36.237 128.293  12.768  1.00 39.40     0.164 C 
ENDROOT
BRANCH   1   2
ATOM      2  CB  PHE A  61     -36.813 128.951  11.509  1.00 39.41     0.058 C 
BRANCH   2   3
ATOM      3  CG  PHE A  61     -36.951 128.022  10.327  1.00 39.01    -0.020 A 
ATOM      4  CD2 PHE A  61     -36.059 126.979  10.134  1.00 40.32    -0.004 A 
ATOM      5  CE2 PHE A  61     -36.185 126.127   9.044  1.00 40.20    -0.000 A 
ATOM      6  CZ  PHE A  61     -37.205 126.305   8.137  1.00 40.34    -0.000 A 
ATOM      7  CE1 PHE A  61     -38.100 127.336   8.316  1.00 41.51    -0.000 A 
ATOM      8  CD1 PHE A  61     -37.971 128.192   9.402  1.00 39.94    -0.004 A 
ENDBRANCH   2   3
ENDBRANCH   1   2
END_RES PHE A  61
BEGIN_RES VAL A 134
REMARK  1 active torsions:
REMARK  status: ('A' for Active; 'I' for Inactive)
REMARK    3  A    between atoms: CA   and  CB  
ROOT
ATOM      9  CA  VAL A 134     -29.766 132.051   9.815  1.00 40.75     0.159 C 
ENDROOT
BRANCH   9  10
ATOM     10  CB  VAL A 134     -30.864 132.765   9.009  1.00 40.76     0.029 C 
ATOM     11  CG1 VAL A 134     -31.151 132.020   7.713  1.00 41.76     0.002 C 
ATOM     12  CG2 VAL A 134     -32.136 132.939   9.825  1.00 40.56     0.002 C 
ENDBRANCH   9  10
END_RES VAL A 134
BEGIN_RES TYR A 338
REMARK  3 active torsions:
REMARK  status: ('A' for Active; 'I' for Inactive)
REMARK    4  A    between atoms: CA   and  CB  
REMARK    5  A    between atoms: CB   and  CG  
REMARK    6  A    between atoms: CZ   and  OH  
ROOT
ATOM     13  CA  TYR A 338     -41.631 124.950   6.058  1.00 38.23     0.164 C 
ENDROOT
BRANCH  13  14
ATOM     14  CB  TYR A 338     -41.621 126.456   6.339  1.00 39.15     0.058 C 
BRANCH  14  15
ATOM     15  CG  TYR A 338     -40.422 127.213   5.817  1.00 39.03    -0.020 A 
ATOM     16  CD2 TYR A 338     -40.234 128.544   6.148  1.00 40.65    -0.002 A 
ATOM     17  CE2 TYR A 338     -39.155 129.273   5.674  1.00 40.91     0.024 A 
ATOM     18  CZ  TYR A 338     -38.229 128.668   4.844  1.00 42.33     0.089 A 
ATOM     19  CE1 TYR A 338     -38.392 127.337   4.503  1.00 40.63     0.024 A 
ATOM     20  CD1 TYR A 338     -39.486 126.629   4.977  1.00 39.27    -0.002 A 
BRANCH  18  21
ATOM     21  OH  TYR A 338     -37.158 129.376   4.375  1.00 43.36    -0.359 OA
ATOM     22  HH  TYR A 338     -36.570 128.990   3.737  1.00  0.00     0.217 HD
ENDBRANCH  18  21
ENDBRANCH  14  15
ENDBRANCH  13  14
END_RES TYR A 338
ENDMDL
