MODEL 1
REMARK VINA RESULT:    -9.821      0.000      0.000
REMARK INTER + INTRA:         -13.040
REMARK INTER:                  -9.821
REMARK INTRA:                  -3.219
REMARK UNBOUND:                -3.219
REMARK  0 active torsions:
REMARK  status: ('A' for Active; 'I' for Inactive)
REMARK       I    between atoms: C3_3  and  O3_21 
REMARK       I    between atoms: C6_6  and  C7_7 
REMARK       I    between atoms: C8_8  and  C9_9 
REMARK       I    between atoms: C10_10  and  C11_11 
REMARK       I    between atoms: C12_12  and  C13_13 
REMARK       I    between atoms: C14_14  and  C15_15 
REMARK       I    between atoms: C23_25  and  O23_43 
REMARK       I    between atoms: C26_28  and  C27_29 
REMARK       I    between atoms: C28_30  and  C29_31 
REMARK       I    between atoms: C30_32  and  C31_33 
REMARK       I    between atoms: C32_34  and  C33_35 
REMARK       I    between atoms: C34_36  and  C35_37 
ROOT
HETATM    1  C1  VFQ N1621     -34.321 127.007   6.326  1.00 51.88    -0.018 C 
HETATM    2  C2  VFQ N1621     -33.912 126.441   4.973  1.00 51.88     0.045 C 
HETATM    3  C3  VFQ N1621     -32.753 127.117   4.274  1.00 51.88     0.123 C 
HETATM    4  C4  VFQ N1621     -31.682 127.464   5.279  1.00 51.88     0.066 C 
HETATM    5  C5  VFQ N1621     -32.258 128.384   6.313  1.00 51.88    -0.074 C 
HETATM    6  C6  VFQ N1621     -33.453 128.136   6.851  1.00 51.88    -0.048 C 
HETATM    7  C7  VFQ N1621     -33.997 128.934   7.982  1.00 51.88     0.009 C 
HETATM    8  C8  VFQ N1621     -34.626 130.096   7.797  1.00 51.88     0.007 C 
HETATM    9  C9  VFQ N1621     -35.220 130.894   8.879  1.00 51.88    -0.062 C 
HETATM   10  C10 VFQ N1621     -36.133 131.780   8.483  1.00 51.88     0.007 C 
HETATM   11  C11 VFQ N1621     -36.908 132.668   9.333  1.00 51.88     0.001 C 
HETATM   12  C12 VFQ N1621     -37.772 133.433   8.678  1.00 51.88     0.007 C 
HETATM   13  C13 VFQ N1621     -38.689 134.357   9.357  1.00 51.88    -0.062 C 
HETATM   14  C14 VFQ N1621     -39.509 135.108   8.611  1.00 51.88     0.007 C 
HETATM   15  C15 VFQ N1621     -40.470 136.018   9.221  1.00 51.88     0.001 C 
HETATM   16  C16 VFQ N1621     -34.379 125.850   7.310  1.00 51.88     0.020 C 
HETATM   17  C17 VFQ N1621     -35.723 127.550   6.177  1.00 51.88     0.020 C 
HETATM   18  C18 VFQ N1621     -31.300 129.383   6.885  1.00 51.88     0.044 C 
HETATM   19  C19 VFQ N1621     -34.836 130.716  10.314  1.00 51.88     0.048 C 
HETATM   20  C20 VFQ N1621     -38.721 134.411  10.853  1.00 51.88     0.048 C 
HETATM   21  O3  VFQ N1621     -32.193 126.203   3.326  1.00 51.88    -0.395 OA
ATOM     22  H3  VFQ N1621     -31.465 126.628   2.887  1.00  0.00     0.210 HD
HETATM   23  C21 VFQ N1621     -50.120 144.339  10.254  1.00 94.67    -0.018 C 
HETATM   24  C22 VFQ N1621     -51.060 145.305  10.963  1.00 94.67     0.045 C 
HETATM   25  C23 VFQ N1621     -50.422 146.500  11.636  1.00 94.67     0.123 C 
HETATM   26  C24 VFQ N1621     -49.198 146.045  12.385  1.00 94.67     0.066 C 
HETATM   27  C25 VFQ N1621     -48.222 145.432  11.430  1.00 94.67    -0.074 C 
HETATM   28  C26 VFQ N1621     -48.644 144.632  10.449  1.00 94.67    -0.048 C 
HETATM   29  C27 VFQ N1621     -47.682 144.011   9.507  1.00 94.67     0.009 C 
HETATM   30  C28 VFQ N1621     -47.114 142.837   9.776  1.00 94.67     0.007 C 
HETATM   31  C29 VFQ N1621     -46.175 142.178   8.867  1.00 51.88    -0.062 C 
HETATM   32  C30 VFQ N1621     -45.750 140.955   9.206  1.00 51.88     0.007 C 
HETATM   33  C31 VFQ N1621     -44.817 140.154   8.423  1.00 51.88     0.001 C 
HETATM   34  C32 VFQ N1621     -43.982 139.364   9.095  1.00 51.88     0.007 C 
HETATM   35  C33 VFQ N1621     -43.003 138.508   8.410  1.00 51.88    -0.062 C 
HETATM   36  C34 VFQ N1621     -42.177 137.717   9.112  1.00 51.88     0.007 C 
HETATM   37  C35 VFQ N1621     -41.202 136.838   8.470  1.00 51.88     0.001 C 
HETATM   38  C36 VFQ N1621     -50.402 144.434   8.763  1.00 94.67     0.020 C 
HETATM   39  C37 VFQ N1621     -50.480 142.949  10.769  1.00 94.67     0.020 C 
HETATM   40  C38 VFQ N1621     -46.777 145.776  11.641  1.00 94.67     0.044 C 
HETATM   41  C39 VFQ N1621     -45.720 142.862   7.616  1.00 51.88     0.048 C 
HETATM   42  C40 VFQ N1621     -42.955 138.540   6.923  1.00 51.88     0.048 C 
HETATM   43  O23 VFQ N1621     -51.345 147.040  12.581  1.00 94.67    -0.395 OA
ATOM     44  H23 VFQ N1621     -50.945 147.790  13.004  1.00  0.00     0.210 HD
ENDROOT
TORSDOF 12
BEGIN_RES PHE A  61
REMARK  2 active torsions:
REMARK  status: ('A' for Active; 'I' for Inactive)
REMARK    1  A    between atoms: CA   and  CB  
REMARK    2  A    between atoms: CB   and  CG  
ROOT
ATOM      1  CA  PHE A  61     -36.237 128.293  12.768  1.00 39.40     0.164 C 
ENDROOT
BRANCH   1   2
ATOM      2  CB  PHE A  61     -36.813 128.951  11.509  1.00 39.41     0.058 C 
BRANCH   2   3
ATOM      3  CG  PHE A  61     -37.032 128.003  10.354  1.00 39.01    -0.020 A 
ATOM      4  CD2 PHE A  61     -36.274 126.850  10.226  1.00 40.32    -0.004 A 
ATOM      5  CE2 PHE A  61     -36.474 125.980   9.161  1.00 40.20    -0.000 A 
ATOM      6  CZ  PHE A  61     -37.436 126.252   8.215  1.00 40.34    -0.000 A 
ATOM      7  CE1 PHE A  61     -38.199 127.393   8.329  1.00 41.51    -0.000 A 
ATOM      8  CD1 PHE A  61     -37.995 128.266   9.390  1.00 39.94    -0.004 A 
ENDBRANCH   2   3
ENDBRANCH   1   2
END_RES PHE A  61
BEGIN_RES VAL A 134
REMARK  1 active torsions:
REMARK  status: ('A' for Active; 'I' for Inactive)
REMARK    3  A    between atoms: CA   and  CB  
ROOT
ATOM      9  CA  VAL A 134     -29.766 132.051   9.815  1.00 40.75     0.159 C 
ENDROOT
BRANCH   9  10
ATOM     10  CB  VAL A 134     -30.864 132.765   9.009  1.00 40.76     0.029 C 
ATOM     11  CG1 VAL A 134     -31.159 132.014   7.719  1.00 41.76     0.002 C 
ATOM     12  CG2 VAL A 134     -32.132 132.950   9.829  1.00 40.56     0.002 C 
ENDBRANCH   9  10
END_RES VAL A 134
BEGIN_RES TYR A 338
REMARK  3 active torsions:
REMARK  status: ('A' for Active; 'I' for Inactive)
REMARK    4  A    between atoms: CA   and  CB  
REMARK    5  A    between atoms: CB   and  CG  
REMARK    6  A    between atoms: CZ   and  OH  
ROOT
ATOM     13  CA  TYR A 338     -41.631 124.950   6.058  1.00 38.23     0.164 C 
ENDROOT
BRANCH  13  14
ATOM     14  CB  TYR A 338     -41.621 126.456   6.339  1.00 39.15     0.058 C 
BRANCH  14  15
ATOM     15  CG  TYR A 338     -40.423 127.213   5.815  1.00 39.03    -0.020 A 
ATOM     16  CD2 TYR A 338     -40.249 128.552   6.124  1.00 40.65    -0.002 A 
ATOM     17  CE2 TYR A 338     -39.171 129.281   5.648  1.00 40.91     0.024 A 
ATOM     18  CZ  TYR A 338     -38.233 128.669   4.838  1.00 42.33     0.089 A 
ATOM     19  CE1 TYR A 338     -38.382 127.331   4.518  1.00 40.63     0.024 A 
ATOM     20  CD1 TYR A 338     -39.474 126.623   4.994  1.00 39.27    -0.002 A 
BRANCH  18  21
ATOM     21  OH  TYR A 338     -37.163 129.377   4.366  1.00 43.36    -0.359 OA
ATOM     22  HH  TYR A 338     -37.296 130.177   3.871  1.00  0.00     0.217 HD
ENDBRANCH  18  21
ENDBRANCH  14  15
ENDBRANCH  13  14
END_RES TYR A 338
ENDMDL
MODEL 2
REMARK VINA RESULT:    -7.202      1.207     16.828
REMARK INTER + INTRA:         -10.421
REMARK INTER:                 -10.057
REMARK INTRA:                  -0.364
REMARK UNBOUND:                -3.219
REMARK  0 active torsions:
REMARK  status: ('A' for Active; 'I' for Inactive)
REMARK       I    between atoms: C3_3  and  O3_21 
REMARK       I    between atoms: C6_6  and  C7_7 
REMARK       I    between atoms: C8_8  and  C9_9 
REMARK       I    between atoms: C10_10  and  C11_11 
REMARK       I    between atoms: C12_12  and  C13_13 
REMARK       I    between atoms: C14_14  and  C15_15 
REMARK       I    between atoms: C23_25  and  O23_43 
REMARK       I    between atoms: C26_28  and  C27_29 
REMARK       I    between atoms: C28_30  and  C29_31 
REMARK       I    between atoms: C30_32  and  C31_33 
REMARK       I    between atoms: C32_34  and  C33_35 
REMARK       I    between atoms: C34_36  and  C35_37 
ROOT
HETATM    1  C1  VFQ N1621     -51.082 144.712  10.650  1.00 51.88    -0.018 C 
HETATM    2  C2  VFQ N1621     -51.858 144.977  11.932  1.00 51.88     0.045 C 
HETATM    3  C3  VFQ N1621     -51.267 145.988  12.890  1.00 51.88     0.123 C 
HETATM    4  C4  VFQ N1621     -50.704 147.157  12.116  1.00 51.88     0.066 C 
HETATM    5  C5  VFQ N1621     -49.642 146.661  11.181  1.00 51.88    -0.074 C 
HETATM    6  C6  VFQ N1621     -49.843 145.565  10.448  1.00 51.88    -0.048 C 
HETATM    7  C7  VFQ N1621     -48.883 145.122   9.402  1.00 51.88     0.009 C 
HETATM    8  C8  VFQ N1621     -47.799 144.398   9.689  1.00 51.88     0.007 C 
HETATM    9  C9  VFQ N1621     -46.850 143.899   8.685  1.00 51.88    -0.062 C 
HETATM   10  C10 VFQ N1621     -46.086 142.886   9.092  1.00 51.88     0.007 C 
HETATM   11  C11 VFQ N1621     -45.096 142.171   8.303  1.00 51.88     0.001 C 
HETATM   12  C12 VFQ N1621     -44.496 141.180   8.950  1.00 51.88     0.007 C 
HETATM   13  C13 VFQ N1621     -43.507 140.301   8.315  1.00 51.88    -0.062 C 
HETATM   14  C14 VFQ N1621     -42.934 139.343   9.055  1.00 51.88     0.007 C 
HETATM   15  C15 VFQ N1621     -41.973 138.412   8.478  1.00 51.88     0.001 C 
HETATM   16  C16 VFQ N1621     -52.050 144.858   9.487  1.00 51.88     0.020 C 
HETATM   17  C17 VFQ N1621     -50.633 143.270  10.690  1.00 51.88     0.020 C 
HETATM   18  C18 VFQ N1621     -48.519 147.618  10.924  1.00 51.88     0.044 C 
HETATM   19  C19 VFQ N1621     -46.757 144.478   7.308  1.00 51.88     0.048 C 
HETATM   20  C20 VFQ N1621     -43.193 140.460   6.860  1.00 51.88     0.048 C 
HETATM   21  O3  VFQ N1621     -52.308 146.479  13.739  1.00 51.88    -0.395 OA
ATOM     22  H3  VFQ N1621     -51.936 147.114  14.341  1.00  0.00     0.210 HD
HETATM   23  C21 VFQ N1621     -34.017 128.452   7.518  1.00 94.67    -0.018 C 
HETATM   24  C22 VFQ N1621     -32.982 127.550   6.858  1.00 94.67     0.045 C 
HETATM   25  C23 VFQ N1621     -31.661 128.191   6.490  1.00 94.67     0.123 C 
HETATM   26  C24 VFQ N1621     -31.926 129.529   5.854  1.00 94.67     0.066 C 
HETATM   27  C25 VFQ N1621     -32.655 130.411   6.819  1.00 94.67    -0.074 C 
HETATM   28  C26 VFQ N1621     -33.631 129.918   7.583  1.00 94.67    -0.048 C 
HETATM   29  C27 VFQ N1621     -34.366 130.789   8.533  1.00 94.67     0.009 C 
HETATM   30  C28 VFQ N1621     -35.450 131.462   8.153  1.00 94.67     0.007 C 
HETATM   31  C29 VFQ N1621     -36.218 132.317   9.060  1.00 51.88    -0.062 C 
HETATM   32  C30 VFQ N1621     -37.343 132.862   8.584  1.00 51.88     0.007 C 
HETATM   33  C31 VFQ N1621     -38.229 133.735   9.343  1.00 51.88     0.001 C 
HETATM   34  C32 VFQ N1621     -38.853 134.701   8.671  1.00 51.88     0.007 C 
HETATM   35  C33 VFQ N1621     -39.773 135.637   9.334  1.00 51.88    -0.062 C 
HETATM   36  C34 VFQ N1621     -40.393 136.597   8.631  1.00 51.88     0.007 C 
HETATM   37  C35 VFQ N1621     -41.328 137.536   9.246  1.00 51.88     0.001 C 
HETATM   38  C36 VFQ N1621     -34.196 127.973   8.950  1.00 94.67     0.020 C 
HETATM   39  C37 VFQ N1621     -35.308 128.254   6.733  1.00 94.67     0.020 C 
HETATM   40  C38 VFQ N1621     -32.218 131.845   6.873  1.00 94.67     0.044 C 
HETATM   41  C39 VFQ N1621     -35.744 132.559  10.460  1.00 51.88     0.048 C 
HETATM   42  C40 VFQ N1621     -39.999 135.489  10.796  1.00 51.88     0.048 C 
HETATM   43  O23 VFQ N1621     -31.004 127.365   5.529  1.00 94.67    -0.395 OA
ATOM     44  H23 VFQ N1621     -30.175 127.766   5.299  1.00  0.00     0.210 HD
ENDROOT
TORSDOF 12
BEGIN_RES PHE A  61
REMARK  2 active torsions:
REMARK  status: ('A' for Active; 'I' for Inactive)
REMARK    1  A    between atoms: CA   and  CB  
REMARK    2  A    between atoms: CB   and  CG  
ROOT
ATOM      1  CA  PHE A  61     -36.237 128.293  12.768  1.00 39.40     0.164 C 
ENDROOT
BRANCH   1   2
ATOM      2  CB  PHE A  61     -36.813 128.951  11.509  1.00 39.41     0.058 C 
BRANCH   2   3
ATOM      3  CG  PHE A  61     -37.029 128.004  10.353  1.00 39.01    -0.020 A 
ATOM      4  CD2 PHE A  61     -36.310 126.823  10.256  1.00 40.32    -0.004 A 
ATOM      5  CE2 PHE A  61     -36.507 125.954   9.190  1.00 40.20    -0.000 A 
ATOM      6  CZ  PHE A  61     -37.428 126.254   8.213  1.00 40.34    -0.000 A 
ATOM      7  CE1 PHE A  61     -38.153 127.422   8.295  1.00 41.51    -0.000 A 
ATOM      8  CD1 PHE A  61     -37.951 128.294   9.357  1.00 39.94    -0.004 A 
ENDBRANCH   2   3
ENDBRANCH   1   2
END_RES PHE A  61
BEGIN_RES VAL A 134
REMARK  1 active torsions:
REMARK  status: ('A' for Active; 'I' for Inactive)
REMARK    3  A    between atoms: CA   and  CB  
ROOT
ATOM      9  CA  VAL A 134     -29.766 132.051   9.815  1.00 40.75     0.159 C 
ENDROOT
BRANCH   9  10
ATOM     10  CB  VAL A 134     -30.864 132.765   9.009  1.00 40.76     0.029 C 
ATOM     11  CG1 VAL A 134     -32.108 132.971   9.860  1.00 41.76     0.002 C 
ATOM     12  CG2 VAL A 134     -30.373 134.088   8.441  1.00 40.56     0.002 C 
ENDBRANCH   9  10
END_RES VAL A 134
BEGIN_RES TYR A 338
REMARK  3 active torsions:
REMARK  status: ('A' for Active; 'I' for Inactive)
REMARK    4  A    between atoms: CA   and  CB  
REMARK    5  A    between atoms: CB   and  CG  
REMARK    6  A    between atoms: CZ   and  OH  
ROOT
ATOM     13  CA  TYR A 338     -41.631 124.950   6.058  1.00 38.23     0.164 C 
ENDROOT
BRANCH  13  14
ATOM     14  CB  TYR A 338     -41.621 126.456   6.339  1.00 39.15     0.058 C 
BRANCH  14  15
ATOM     15  CG  TYR A 338     -40.412 127.210   5.834  1.00 39.03    -0.020 A 
ATOM     16  CD2 TYR A 338     -40.258 128.556   6.115  1.00 40.65    -0.002 A 
ATOM     17  CE2 TYR A 338     -39.170 129.282   5.655  1.00 40.91     0.024 A 
ATOM     18  CZ  TYR A 338     -38.203 128.658   4.890  1.00 42.33     0.089 A 
ATOM     19  CE1 TYR A 338     -38.333 127.312   4.599  1.00 40.63     0.024 A 
ATOM     20  CD1 TYR A 338     -39.435 126.607   5.058  1.00 39.27    -0.002 A 
BRANCH  18  21
ATOM     21  OH  TYR A 338     -37.124 129.363   4.434  1.00 43.36    -0.359 OA
ATOM     22  HH  TYR A 338     -37.182 130.303   4.308  1.00  0.00     0.217 HD
ENDBRANCH  18  21
ENDBRANCH  14  15
ENDBRANCH  13  14
END_RES TYR A 338
ENDMDL
