MODEL 1
REMARK VINA RESULT:   -11.084      0.000      0.000
REMARK INTER + INTRA:         -13.636
REMARK INTER:                 -11.084
REMARK INTRA:                  -2.551
REMARK UNBOUND:                -2.551
REMARK  0 active torsions:
REMARK  status: ('A' for Active; 'I' for Inactive)
REMARK       I    between atoms: C3_3  and  O3_21 
REMARK       I    between atoms: C6_6  and  C7_7 
REMARK       I    between atoms: C8_8  and  C9_9 
REMARK       I    between atoms: C10_10  and  C11_11 
REMARK       I    between atoms: C12_12  and  C13_13 
REMARK       I    between atoms: C14_14  and  C15_15 
REMARK       I    between atoms: C23_25  and  O23_43 
REMARK       I    between atoms: C26_28  and  C27_29 
REMARK       I    between atoms: C28_30  and  C29_31 
REMARK       I    between atoms: C30_32  and  C31_33 
REMARK       I    between atoms: C32_34  and  C33_35 
REMARK       I    between atoms: C34_36  and  C35_37 
ROOT
HETATM    1  C1  VFQ Y1620     -34.275 127.311   6.634  1.00 33.25    -0.018 C 
HETATM    2  C2  VFQ Y1620     -33.841 126.989   5.212  1.00 33.25     0.045 C 
HETATM    3  C3  VFQ Y1620     -32.623 127.719   4.676  1.00 33.25     0.123 C 
HETATM    4  C4  VFQ Y1620     -31.607 127.949   5.757  1.00 33.25     0.066 C 
HETATM    5  C5  VFQ Y1620     -32.225 128.706   6.878  1.00 33.25    -0.074 C 
HETATM    6  C6  VFQ Y1620     -33.453 128.404   7.295  1.00 33.25    -0.048 C 
HETATM    7  C7  VFQ Y1620     -34.026 129.141   8.436  1.00 33.25     0.009 C 
HETATM    8  C8  VFQ Y1620     -34.774 130.210   8.214  1.00 33.25     0.007 C 
HETATM    9  C9  VFQ Y1620     -35.384 130.990   9.282  1.00 33.25    -0.062 C 
HETATM   10  C10 VFQ Y1620     -35.920 132.137   8.885  1.00 33.25     0.007 C 
HETATM   11  C11 VFQ Y1620     -36.607 133.078   9.733  1.00 33.25     0.001 C 
HETATM   12  C12 VFQ Y1620     -37.331 133.922   9.027  1.00 33.25     0.007 C 
HETATM   13  C13 VFQ Y1620     -38.166 134.937   9.642  1.00 33.25    -0.062 C 
HETATM   14  C14 VFQ Y1620     -38.907 135.678   8.830  1.00 33.25     0.007 C 
HETATM   15  C15 VFQ Y1620     -39.816 136.665   9.366  1.00 33.25     0.001 C 
HETATM   16  C16 VFQ Y1620     -34.243 125.999   7.410  1.00 33.25     0.020 C 
HETATM   17  C17 VFQ Y1620     -35.713 127.791   6.563  1.00 33.25     0.020 C 
HETATM   18  C18 VFQ Y1620     -31.357 129.742   7.521  1.00 33.25     0.044 C 
HETATM   19  C19 VFQ Y1620     -35.381 130.515  10.700  1.00 33.25     0.048 C 
HETATM   20  C20 VFQ Y1620     -38.205 135.097  11.123  1.00 33.25     0.048 C 
HETATM   21  O3  VFQ Y1620     -31.992 126.914   3.682  1.00 33.25    -0.395 OA
ATOM     22  H3  VFQ Y1620     -31.230 127.371   3.347  1.00  0.00     0.210 HD
HETATM   23  C21 VFQ Y1620     -49.721 144.075   9.929  1.00 94.67    -0.018 C 
HETATM   24  C22 VFQ Y1620     -50.760 144.987  10.568  1.00 94.67     0.045 C 
HETATM   25  C23 VFQ Y1620     -50.342 146.422  10.813  1.00 94.67     0.123 C 
HETATM   26  C24 VFQ Y1620     -48.954 146.434  11.393  1.00 94.67     0.066 C 
HETATM   27  C25 VFQ Y1620     -47.999 145.796  10.433  1.00 94.67    -0.074 C 
HETATM   28  C26 VFQ Y1620     -48.346 144.696   9.762  1.00 94.67    -0.048 C 
HETATM   29  C27 VFQ Y1620     -47.402 144.051   8.819  1.00 94.67     0.009 C 
HETATM   30  C28 VFQ Y1620     -46.537 143.129   9.233  1.00 94.67     0.007 C 
HETATM   31  C29 VFQ Y1620     -45.612 142.464   8.333  1.00 33.25    -0.062 C 
HETATM   32  C30 VFQ Y1620     -45.023 141.373   8.802  1.00 33.25     0.007 C 
HETATM   33  C31 VFQ Y1620     -44.084 140.582   8.040  1.00 33.25     0.001 C 
HETATM   34  C32 VFQ Y1620     -43.319 139.812   8.780  1.00 33.25     0.007 C 
HETATM   35  C33 VFQ Y1620     -42.335 138.919   8.185  1.00 33.25    -0.062 C 
HETATM   36  C34 VFQ Y1620     -41.611 138.181   9.016  1.00 33.25     0.007 C 
HETATM   37  C35 VFQ Y1620     -40.646 137.230   8.515  1.00 33.25     0.001 C 
HETATM   38  C36 VFQ Y1620     -50.220 143.711   8.539  1.00 94.67     0.020 C 
HETATM   39  C37 VFQ Y1620     -49.661 142.829  10.808  1.00 94.67     0.020 C 
HETATM   40  C38 VFQ Y1620     -46.666 146.463  10.276  1.00 94.67     0.044 C 
HETATM   41  C39 VFQ Y1620     -45.335 142.988   6.960  1.00 33.25     0.048 C 
HETATM   42  C40 VFQ Y1620     -42.181 138.829   6.703  1.00 33.25     0.048 C 
HETATM   43  O23 VFQ Y1620     -51.230 146.998  11.771  1.00 94.67    -0.395 OA
ATOM     44  H23 VFQ Y1620     -50.968 147.899  11.925  1.00  0.00     0.210 HD
ENDROOT
TORSDOF 12
BEGIN_RES PHE A  61
REMARK  2 active torsions:
REMARK  status: ('A' for Active; 'I' for Inactive)
REMARK    1  A    between atoms: CA   and  CB  
REMARK    2  A    between atoms: CB   and  CG  
ROOT
ATOM      1  CA  PHE A  61     -36.237 128.293  12.768  1.00 39.40     0.164 C 
ENDROOT
BRANCH   1   2
ATOM      2  CB  PHE A  61     -36.813 128.951  11.509  1.00 39.41     0.058 C 
BRANCH   2   3
ATOM      3  CG  PHE A  61     -37.071 127.996  10.368  1.00 39.01    -0.020 A 
ATOM      4  CD2 PHE A  61     -36.337 126.827  10.239  1.00 40.32    -0.004 A 
ATOM      5  CE2 PHE A  61     -36.573 125.951   9.187  1.00 40.20    -0.000 A 
ATOM      6  CZ  PHE A  61     -37.547 126.231   8.255  1.00 40.34    -0.000 A 
ATOM      7  CE1 PHE A  61     -38.286 127.388   8.371  1.00 41.51    -0.000 A 
ATOM      8  CD1 PHE A  61     -38.046 128.267   9.419  1.00 39.94    -0.004 A 
ENDBRANCH   2   3
ENDBRANCH   1   2
END_RES PHE A  61
BEGIN_RES VAL A 134
REMARK  1 active torsions:
REMARK  status: ('A' for Active; 'I' for Inactive)
REMARK    3  A    between atoms: CA   and  CB  
ROOT
ATOM      9  CA  VAL A 134     -29.766 132.051   9.815  1.00 40.75     0.159 C 
ENDROOT
BRANCH   9  10
ATOM     10  CB  VAL A 134     -30.864 132.765   9.009  1.00 40.76     0.029 C 
ATOM     11  CG1 VAL A 134     -30.876 132.278   7.568  1.00 41.76     0.002 C 
ATOM     12  CG2 VAL A 134     -32.233 132.592   9.650  1.00 40.56     0.002 C 
ENDBRANCH   9  10
END_RES VAL A 134
BEGIN_RES TYR A 338
REMARK  3 active torsions:
REMARK  status: ('A' for Active; 'I' for Inactive)
REMARK    4  A    between atoms: CA   and  CB  
REMARK    5  A    between atoms: CB   and  CG  
REMARK    6  A    between atoms: CZ   and  OH  
ROOT
ATOM     13  CA  TYR A 338     -41.631 124.950   6.058  1.00 38.23     0.164 C 
ENDROOT
BRANCH  13  14
ATOM     14  CB  TYR A 338     -41.621 126.456   6.339  1.00 39.15     0.058 C 
BRANCH  14  15
ATOM     15  CG  TYR A 338     -40.419 127.212   5.822  1.00 39.03    -0.020 A 
ATOM     16  CD2 TYR A 338     -40.261 128.557   6.108  1.00 40.65    -0.002 A 
ATOM     17  CE2 TYR A 338     -39.179 129.285   5.637  1.00 40.91     0.024 A 
ATOM     18  CZ  TYR A 338     -38.222 128.665   4.856  1.00 42.33     0.089 A 
ATOM     19  CE1 TYR A 338     -38.355 127.320   4.560  1.00 40.63     0.024 A 
ATOM     20  CD1 TYR A 338     -39.451 126.613   5.030  1.00 39.27    -0.002 A 
BRANCH  18  21
ATOM     21  OH  TYR A 338     -37.149 129.372   4.390  1.00 43.36    -0.359 OA
ATOM     22  HH  TYR A 338     -36.327 128.932   4.206  1.00  0.00     0.217 HD
ENDBRANCH  18  21
ENDBRANCH  14  15
ENDBRANCH  13  14
END_RES TYR A 338
ENDMDL
