MODEL 1
REMARK VINA RESULT:    -9.156      0.000      0.000
REMARK INTER + INTRA:         -11.907
REMARK INTER:                  -9.156
REMARK INTRA:                  -2.751
REMARK UNBOUND:                -2.751
REMARK  0 active torsions:
REMARK  status: ('A' for Active; 'I' for Inactive)
REMARK       I    between atoms: C3_3  and  O3_21 
REMARK       I    between atoms: C6_6  and  C7_7 
REMARK       I    between atoms: C8_8  and  C9_9 
REMARK       I    between atoms: C10_10  and  C11_11 
REMARK       I    between atoms: C12_12  and  C13_13 
REMARK       I    between atoms: C14_14  and  C15_15 
REMARK       I    between atoms: C23_25  and  O23_43 
REMARK       I    between atoms: C26_28  and  C27_29 
REMARK       I    between atoms: C28_30  and  C29_31 
REMARK       I    between atoms: C30_32  and  C31_33 
REMARK       I    between atoms: C32_34  and  C33_35 
REMARK       I    between atoms: C34_36  and  C35_37 
ROOT
HETATM    1  C1  VFQ 61620     -34.485 128.113   6.547  1.00 97.95    -0.018 C 
HETATM    2  C2  VFQ 61620     -33.687 127.838   5.278  1.00 97.95     0.045 C 
HETATM    3  C3  VFQ 61620     -32.303 128.456   5.176  1.00 97.95     0.123 C 
HETATM    4  C4  VFQ 61620     -31.599 128.471   6.513  1.00 97.95     0.066 C 
HETATM    5  C5  VFQ 61620     -32.455 129.201   7.504  1.00 97.95    -0.074 C 
HETATM    6  C6  VFQ 61620     -33.779 129.012   7.544  1.00 97.95    -0.048 C 
HETATM    7  C7  VFQ 61620     -34.604 129.683   8.578  1.00 97.95     0.009 C 
HETATM    8  C8  VFQ 61620     -35.124 130.892   8.372  1.00 97.95     0.007 C 
HETATM    9  C9  VFQ 61620     -35.955 131.571   9.368  1.00 97.95    -0.062 C 
HETATM   10  C10 VFQ 61620     -36.487 132.735   9.004  1.00 97.95     0.007 C 
HETATM   11  C11 VFQ 61620     -37.346 133.527   9.864  1.00 97.95     0.001 C 
HETATM   12  C12 VFQ 61620     -37.764 134.655   9.315  1.00 97.95     0.007 C 
HETATM   13  C13 VFQ 61620     -38.664 135.600   9.985  1.00 97.95    -0.062 C 
HETATM   14  C14 VFQ 61620     -39.243 136.498   9.190  1.00 97.95     0.007 C 
HETATM   15  C15 VFQ 61620     -40.194 137.484   9.663  1.00 97.95     0.001 C 
HETATM   16  C16 VFQ 61620     -34.822 126.757   7.160  1.00 97.95     0.020 C 
HETATM   17  C17 VFQ 61620     -35.782 128.805   6.149  1.00 97.95     0.020 C 
HETATM   18  C18 VFQ 61620     -31.719 130.035   8.510  1.00 97.95     0.044 C 
HETATM   19  C19 VFQ 61620     -36.194 130.976  10.722  1.00 97.95     0.048 C 
HETATM   20  C20 VFQ 61620     -38.931 135.547  11.458  1.00 97.95     0.048 C 
HETATM   21  O3  VFQ 61620     -31.512 127.680   4.268  1.00 97.95    -0.395 OA
ATOM     22  H3  VFQ 61620     -30.647 128.067   4.204  1.00  0.00     0.210 HD
HETATM   23  C21 VFQ 61620     -49.946 144.991   9.461  1.00 21.49    -0.018 C 
HETATM   24  C22 VFQ 61620     -50.999 145.961   9.988  1.00 21.49     0.045 C 
HETATM   25  C23 VFQ 61620     -50.585 147.409  10.198  1.00 21.49     0.123 C 
HETATM   26  C24 VFQ 61620     -49.152 147.528  10.662  1.00 21.49     0.066 C 
HETATM   27  C25 VFQ 61620     -48.241 146.798   9.715  1.00 21.49    -0.074 C 
HETATM   28  C26 VFQ 61620     -48.597 145.629   9.166  1.00 21.49    -0.048 C 
HETATM   29  C27 VFQ 61620     -47.666 144.936   8.236  1.00 21.49     0.009 C 
HETATM   30  C28 VFQ 61620     -46.825 143.993   8.662  1.00 21.49     0.007 C 
HETATM   31  C29 VFQ 61620     -45.891 143.288   7.784  1.00 97.95    -0.062 C 
HETATM   32  C30 VFQ 61620     -45.142 142.364   8.377  1.00 97.95     0.007 C 
HETATM   33  C31 VFQ 61620     -44.160 141.532   7.711  1.00 97.95     0.001 C 
HETATM   34  C32 VFQ 61620     -43.550 140.710   8.547  1.00 97.95     0.007 C 
HETATM   35  C33 VFQ 61620     -42.527 139.759   8.123  1.00 97.95    -0.062 C 
HETATM   36  C34 VFQ 61620     -41.971 139.001   9.070  1.00 97.95     0.007 C 
HETATM   37  C35 VFQ 61620     -40.959 138.021   8.726  1.00 97.95     0.001 C 
HETATM   38  C36 VFQ 61620     -50.472 144.407   8.160  1.00 21.49     0.020 C 
HETATM   39  C37 VFQ 61620     -49.831 143.870  10.491  1.00 21.49     0.020 C 
HETATM   40  C38 VFQ 61620     -46.923 147.454   9.416  1.00 21.49     0.044 C 
HETATM   41  C39 VFQ 61620     -45.798 143.580   6.317  1.00 97.95     0.048 C 
HETATM   42  C40 VFQ 61620     -42.127 139.651   6.686  1.00 97.95     0.048 C 
HETATM   43  O23 VFQ 61620     -51.425 147.968  11.213  1.00 21.49    -0.395 OA
ATOM     44  H23 VFQ 61620     -51.167 148.873  11.343  1.00  0.00     0.210 HD
ENDROOT
TORSDOF 12
BEGIN_RES PHE A  61
REMARK  2 active torsions:
REMARK  status: ('A' for Active; 'I' for Inactive)
REMARK    1  A    between atoms: CA   and  CB  
REMARK    2  A    between atoms: CB   and  CG  
ROOT
ATOM      1  CA  PHE A  61     -36.237 128.293  12.768  1.00 39.40     0.164 C 
ENDROOT
BRANCH   1   2
ATOM      2  CB  PHE A  61     -36.813 128.951  11.509  1.00 39.41     0.058 C 
BRANCH   2   3
ATOM      3  CG  PHE A  61     -37.024 128.005  10.351  1.00 39.01    -0.020 A 
ATOM      4  CD2 PHE A  61     -36.275 126.845  10.234  1.00 40.32    -0.004 A 
ATOM      5  CE2 PHE A  61     -36.468 125.977   9.167  1.00 40.20    -0.000 A 
ATOM      6  CZ  PHE A  61     -37.415 126.256   8.208  1.00 40.34    -0.000 A 
ATOM      7  CE1 PHE A  61     -38.170 127.404   8.311  1.00 41.51    -0.000 A 
ATOM      8  CD1 PHE A  61     -37.972 128.275   9.375  1.00 39.94    -0.004 A 
ENDBRANCH   2   3
ENDBRANCH   1   2
END_RES PHE A  61
BEGIN_RES VAL A 134
REMARK  1 active torsions:
REMARK  status: ('A' for Active; 'I' for Inactive)
REMARK    3  A    between atoms: CA   and  CB  
ROOT
ATOM      9  CA  VAL A 134     -29.766 132.051   9.815  1.00 40.75     0.159 C 
ENDROOT
BRANCH   9  10
ATOM     10  CB  VAL A 134     -30.864 132.765   9.009  1.00 40.76     0.029 C 
ATOM     11  CG1 VAL A 134     -30.876 132.278   7.567  1.00 41.76     0.002 C 
ATOM     12  CG2 VAL A 134     -32.233 132.592   9.649  1.00 40.56     0.002 C 
ENDBRANCH   9  10
END_RES VAL A 134
BEGIN_RES TYR A 338
REMARK  3 active torsions:
REMARK  status: ('A' for Active; 'I' for Inactive)
REMARK    4  A    between atoms: CA   and  CB  
REMARK    5  A    between atoms: CB   and  CG  
REMARK    6  A    between atoms: CZ   and  OH  
ROOT
ATOM     13  CA  TYR A 338     -41.631 124.950   6.058  1.00 38.23     0.164 C 
ENDROOT
BRANCH  13  14
ATOM     14  CB  TYR A 338     -41.621 126.456   6.339  1.00 39.15     0.058 C 
BRANCH  14  15
ATOM     15  CG  TYR A 338     -40.436 127.218   5.791  1.00 39.03    -0.020 A 
ATOM     16  CD2 TYR A 338     -40.293 128.571   6.049  1.00 40.65    -0.002 A 
ATOM     17  CE2 TYR A 338     -39.227 129.304   5.549  1.00 40.91     0.024 A 
ATOM     18  CZ  TYR A 338     -38.272 128.681   4.769  1.00 42.33     0.089 A 
ATOM     19  CE1 TYR A 338     -38.391 127.329   4.501  1.00 40.63     0.024 A 
ATOM     20  CD1 TYR A 338     -39.471 126.616   4.999  1.00 39.27    -0.002 A 
BRANCH  18  21
ATOM     21  OH  TYR A 338     -37.215 129.393   4.275  1.00 43.36    -0.359 OA
ATOM     22  HH  TYR A 338     -36.740 129.997   4.833  1.00  0.00     0.217 HD
ENDBRANCH  18  21
ENDBRANCH  14  15
ENDBRANCH  13  14
END_RES TYR A 338
ENDMDL
MODEL 2
REMARK VINA RESULT:    -7.878      0.548      1.045
REMARK INTER + INTRA:         -10.629
REMARK INTER:                  -8.017
REMARK INTRA:                  -2.612
REMARK UNBOUND:                -2.751
REMARK  0 active torsions:
REMARK  status: ('A' for Active; 'I' for Inactive)
REMARK       I    between atoms: C3_3  and  O3_21 
REMARK       I    between atoms: C6_6  and  C7_7 
REMARK       I    between atoms: C8_8  and  C9_9 
REMARK       I    between atoms: C10_10  and  C11_11 
REMARK       I    between atoms: C12_12  and  C13_13 
REMARK       I    between atoms: C14_14  and  C15_15 
REMARK       I    between atoms: C23_25  and  O23_43 
REMARK       I    between atoms: C26_28  and  C27_29 
REMARK       I    between atoms: C28_30  and  C29_31 
REMARK       I    between atoms: C30_32  and  C31_33 
REMARK       I    between atoms: C32_34  and  C33_35 
REMARK       I    between atoms: C34_36  and  C35_37 
ROOT
HETATM    1  C1  VFQ 61620     -34.742 128.516   6.736  1.00 97.95    -0.018 C 
HETATM    2  C2  VFQ 61620     -33.835 128.284   5.533  1.00 97.95     0.045 C 
HETATM    3  C3  VFQ 61620     -32.446 128.898   5.577  1.00 97.95     0.123 C 
HETATM    4  C4  VFQ 61620     -31.864 128.859   6.972  1.00 97.95     0.066 C 
HETATM    5  C5  VFQ 61620     -32.803 129.557   7.909  1.00 97.95    -0.074 C 
HETATM    6  C6  VFQ 61620     -34.125 129.374   7.825  1.00 97.95    -0.048 C 
HETATM    7  C7  VFQ 61620     -35.038 130.011   8.805  1.00 97.95     0.009 C 
HETATM    8  C8  VFQ 61620     -35.534 131.230   8.600  1.00 97.95     0.007 C 
HETATM    9  C9  VFQ 61620     -36.449 131.876   9.543  1.00 97.95    -0.062 C 
HETATM   10  C10 VFQ 61620     -36.943 133.055   9.177  1.00 97.95     0.007 C 
HETATM   11  C11 VFQ 61620     -37.874 133.820   9.987  1.00 97.95     0.001 C 
HETATM   12  C12 VFQ 61620     -38.238 134.970   9.445  1.00 97.95     0.007 C 
HETATM   13  C13 VFQ 61620     -39.192 135.894  10.068  1.00 97.95    -0.062 C 
HETATM   14  C14 VFQ 61620     -39.696 136.825   9.259  1.00 97.95     0.007 C 
HETATM   15  C15 VFQ 61620     -40.683 137.798   9.683  1.00 97.95     0.001 C 
HETATM   16  C16 VFQ 61620     -35.135 127.140   7.265  1.00 97.95     0.020 C 
HETATM   17  C17 VFQ 61620     -35.997 129.230   6.251  1.00 97.95     0.020 C 
HETATM   18  C18 VFQ 61620     -32.156 130.348   9.007  1.00 97.95     0.044 C 
HETATM   19  C19 VFQ 61620     -36.808 131.233  10.847  1.00 97.95     0.048 C 
HETATM   20  C20 VFQ 61620     -39.589 135.788  11.509  1.00 97.95     0.048 C 
HETATM   21  O3  VFQ 61620     -31.580 128.151   4.715  1.00 97.95    -0.395 OA
ATOM     22  H3  VFQ 61620     -30.711 128.535   4.743  1.00  0.00     0.210 HD
HETATM   23  C21 VFQ 61620     -50.361 145.363   8.898  1.00 21.49    -0.018 C 
HETATM   24  C22 VFQ 61620     -51.453 146.319   9.366  1.00 21.49     0.045 C 
HETATM   25  C23 VFQ 61620     -51.057 147.756   9.665  1.00 21.49     0.123 C 
HETATM   26  C24 VFQ 61620     -49.670 147.849  10.259  1.00 21.49     0.066 C 
HETATM   27  C25 VFQ 61620     -48.680 147.150   9.370  1.00 21.49    -0.074 C 
HETATM   28  C26 VFQ 61620     -48.989 146.003   8.748  1.00 21.49    -0.048 C 
HETATM   29  C27 VFQ 61620     -47.980 145.341   7.879  1.00 21.49     0.009 C 
HETATM   30  C28 VFQ 61620     -47.183 144.378   8.342  1.00 21.49     0.007 C 
HETATM   31  C29 VFQ 61620     -46.177 143.700   7.525  1.00 97.95    -0.062 C 
HETATM   32  C30 VFQ 61620     -45.485 142.751   8.147  1.00 97.95     0.007 C 
HETATM   33  C31 VFQ 61620     -44.450 141.938   7.539  1.00 97.95     0.001 C 
HETATM   34  C32 VFQ 61620     -43.919 141.082   8.395  1.00 97.95     0.007 C 
HETATM   35  C33 VFQ 61620     -42.864 140.142   8.028  1.00 97.95    -0.062 C 
HETATM   36  C34 VFQ 61620     -42.397 139.346   8.991  1.00 97.95     0.007 C 
HETATM   37  C35 VFQ 61620     -41.361 138.374   8.702  1.00 97.95     0.001 C 
HETATM   38  C36 VFQ 61620     -50.770 144.831   7.534  1.00 21.49     0.020 C 
HETATM   39  C37 VFQ 61620     -50.340 144.203   9.892  1.00 21.49     0.020 C 
HETATM   40  C38 VFQ 61620     -47.339 147.808   9.214  1.00 21.49     0.044 C 
HETATM   41  C39 VFQ 61620     -45.953 144.046   6.084  1.00 97.95     0.048 C 
HETATM   42  C40 VFQ 61620     -42.338 140.085   6.629  1.00 97.95     0.048 C 
HETATM   43  O23 VFQ 61620     -51.982 148.281  10.622  1.00 21.49    -0.395 OA
ATOM     44  H23 VFQ 61620     -51.734 149.179  10.809  1.00  0.00     0.210 HD
ENDROOT
TORSDOF 12
BEGIN_RES PHE A  61
REMARK  2 active torsions:
REMARK  status: ('A' for Active; 'I' for Inactive)
REMARK    1  A    between atoms: CA   and  CB  
REMARK    2  A    between atoms: CB   and  CG  
ROOT
ATOM      1  CA  PHE A  61     -36.237 128.293  12.768  1.00 39.40     0.164 C 
ENDROOT
BRANCH   1   2
ATOM      2  CB  PHE A  61     -36.813 128.951  11.509  1.00 39.41     0.058 C 
BRANCH   2   3
ATOM      3  CG  PHE A  61     -37.050 128.000  10.361  1.00 39.01    -0.020 A 
ATOM      4  CD2 PHE A  61     -38.085 128.212   9.463  1.00 40.32    -0.004 A 
ATOM      5  CE2 PHE A  61     -38.304 127.334   8.409  1.00 40.20    -0.000 A 
ATOM      6  CZ  PHE A  61     -37.490 126.237   8.238  1.00 40.34    -0.000 A 
ATOM      7  CE1 PHE A  61     -36.457 126.013   9.120  1.00 41.51    -0.000 A 
ATOM      8  CD1 PHE A  61     -36.241 126.887  10.178  1.00 39.94    -0.004 A 
ENDBRANCH   2   3
ENDBRANCH   1   2
END_RES PHE A  61
BEGIN_RES VAL A 134
REMARK  1 active torsions:
REMARK  status: ('A' for Active; 'I' for Inactive)
REMARK    3  A    between atoms: CA   and  CB  
ROOT
ATOM      9  CA  VAL A 134     -29.766 132.051   9.815  1.00 40.75     0.159 C 
ENDROOT
BRANCH   9  10
ATOM     10  CB  VAL A 134     -30.864 132.765   9.009  1.00 40.76     0.029 C 
ATOM     11  CG1 VAL A 134     -31.008 132.144   7.627  1.00 41.76     0.002 C 
ATOM     12  CG2 VAL A 134     -32.195 132.758   9.745  1.00 40.56     0.002 C 
ENDBRANCH   9  10
END_RES VAL A 134
BEGIN_RES TYR A 338
REMARK  3 active torsions:
REMARK  status: ('A' for Active; 'I' for Inactive)
REMARK    4  A    between atoms: CA   and  CB  
REMARK    5  A    between atoms: CB   and  CG  
REMARK    6  A    between atoms: CZ   and  OH  
ROOT
ATOM     13  CA  TYR A 338     -41.631 124.950   6.058  1.00 38.23     0.164 C 
ENDROOT
BRANCH  13  14
ATOM     14  CB  TYR A 338     -41.621 126.456   6.339  1.00 39.15     0.058 C 
BRANCH  14  15
ATOM     15  CG  TYR A 338     -40.442 127.220   5.781  1.00 39.03    -0.020 A 
ATOM     16  CD2 TYR A 338     -39.475 126.568   5.035  1.00 40.65    -0.002 A 
ATOM     17  CE2 TYR A 338     -38.373 127.234   4.521  1.00 40.91     0.024 A 
ATOM     18  CZ  TYR A 338     -38.220 128.588   4.752  1.00 42.33     0.089 A 
ATOM     19  CE1 TYR A 338     -39.176 129.263   5.490  1.00 40.63     0.024 A 
ATOM     20  CD1 TYR A 338     -40.264 128.576   6.007  1.00 39.27    -0.002 A 
BRANCH  18  21
ATOM     21  OH  TYR A 338     -37.140 129.256   4.246  1.00 43.36    -0.359 OA
ATOM     22  HH  TYR A 338     -36.341 129.332   4.754  1.00  0.00     0.217 HD
ENDBRANCH  18  21
ENDBRANCH  14  15
ENDBRANCH  13  14
END_RES TYR A 338
ENDMDL
