MODEL 1
REMARK VINA RESULT:    -9.930      0.000      0.000
REMARK INTER + INTRA:         -12.780
REMARK INTER:                  -9.930
REMARK INTRA:                  -2.850
REMARK UNBOUND:                -2.850
REMARK  0 active torsions:
REMARK  status: ('A' for Active; 'I' for Inactive)
REMARK       I    between atoms: C3_3  and  O3_21 
REMARK       I    between atoms: C6_6  and  C7_7 
REMARK       I    between atoms: C8_8  and  C9_9 
REMARK       I    between atoms: C10_10  and  C11_11 
REMARK       I    between atoms: C12_12  and  C13_13 
REMARK       I    between atoms: C14_14  and  C15_15 
REMARK       I    between atoms: C23_25  and  O23_43 
REMARK       I    between atoms: C26_28  and  C27_29 
REMARK       I    between atoms: C28_30  and  C29_31 
REMARK       I    between atoms: C30_32  and  C31_33 
REMARK       I    between atoms: C32_34  and  C33_35 
REMARK       I    between atoms: C34_36  and  C35_37 
ROOT
HETATM    1  C1  VFQ J9621     -47.778 146.026  12.880  1.00 21.11    -0.018 C 
HETATM    2  C2  VFQ J9621     -48.476 146.478  14.174  1.00 20.11     0.045 C 
HETATM    3  C3  VFQ J9621     -47.849 147.574  15.034  1.00 19.41     0.123 C 
HETATM    4  C4  VFQ J9621     -46.474 148.084  14.580  1.00 18.39     0.066 C 
HETATM    5  C5  VFQ J9621     -45.717 147.434  13.470  1.00 18.34    -0.074 C 
HETATM    6  C6  VFQ J9621     -46.289 146.488  12.651  1.00 19.81    -0.048 C 
HETATM    7  C7  VFQ J9621     -45.620 145.837  11.502  1.00 19.02     0.009 C 
HETATM    8  C8  VFQ J9621     -44.767 144.798  11.593  1.00 17.97     0.007 C 
HETATM    9  C9  VFQ J9621     -44.073 144.106  10.503  1.00 18.85    -0.062 C 
HETATM   10  C10 VFQ J9621     -43.360 143.000  10.821  1.00 18.38     0.007 C 
HETATM   11  C11 VFQ J9621     -42.669 142.112   9.916  1.00 18.57     0.001 C 
HETATM   12  C12 VFQ J9621     -42.057 140.987  10.345  1.00 17.11     0.007 C 
HETATM   13  C13 VFQ J9621     -41.394 139.958   9.529  1.00 20.42    -0.062 C 
HETATM   14  C14 VFQ J9621     -40.873 138.883  10.164  1.00 20.50     0.007 C 
HETATM   15  C15 VFQ J9621     -40.228 137.747   9.552  1.00 20.22     0.001 C 
HETATM   16  C16 VFQ J9621     -48.699 146.568  11.758  1.00 19.56     0.020 C 
HETATM   17  C17 VFQ J9621     -47.877 144.486  12.874  1.00 18.49     0.020 C 
HETATM   18  C18 VFQ J9621     -44.367 148.045  13.392  1.00 16.89     0.044 C 
HETATM   19  C19 VFQ J9621     -44.264 144.631   9.108  1.00 14.61     0.048 C 
HETATM   20  C20 VFQ J9621     -41.366 140.147   8.030  1.00 17.59     0.048 C 
HETATM   21  O3  VFQ J9621     -48.750 148.658  15.179  1.00 18.27    -0.395 OA
ATOM     22  H3  VFQ J9621     -48.361 149.340  15.714  1.00  0.00     0.210 HD
HETATM   23  C21 VFQ J9621     -34.334 126.765   6.386  1.00 57.17    -0.018 C 
HETATM   24  C22 VFQ J9621     -33.664 125.907   5.321  1.00 57.17     0.045 C 
HETATM   25  C23 VFQ J9621     -32.448 126.484   4.622  1.00 57.17     0.123 C 
HETATM   26  C24 VFQ J9621     -32.611 127.973   4.412  1.00 57.17     0.066 C 
HETATM   27  C25 VFQ J9621     -32.825 128.625   5.748  1.00 57.17    -0.074 C 
HETATM   28  C26 VFQ J9621     -33.729 128.136   6.605  1.00 57.17    -0.048 C 
HETATM   29  C27 VFQ J9621     -34.155 128.902   7.807  1.00 57.17     0.009 C 
HETATM   30  C28 VFQ J9621     -35.073 129.870   7.738  1.00 57.17     0.007 C 
HETATM   31  C29 VFQ J9621     -35.559 130.662   8.903  1.00 19.55    -0.062 C 
HETATM   32  C30 VFQ J9621     -36.459 131.645   8.674  1.00 17.66     0.007 C 
HETATM   33  C31 VFQ J9621     -37.039 132.522   9.661  1.00 19.12     0.001 C 
HETATM   34  C32 VFQ J9621     -37.805 133.587   9.327  1.00 19.40     0.007 C 
HETATM   35  C33 VFQ J9621     -38.440 134.594  10.196  1.00 19.31    -0.062 C 
HETATM   36  C34 VFQ J9621     -39.075 135.627   9.602  1.00 17.72     0.007 C 
HETATM   37  C35 VFQ J9621     -39.710 136.739  10.253  1.00 19.92     0.001 C 
HETATM   38  C36 VFQ J9621     -34.214 126.025   7.700  1.00 57.17     0.020 C 
HETATM   39  C37 VFQ J9621     -35.803 126.876   6.008  1.00 57.17     0.020 C 
HETATM   40  C38 VFQ J9621     -31.969 129.813   6.070  1.00 57.17     0.044 C 
HETATM   41  C39 VFQ J9621     -34.967 130.368  10.256  1.00 18.53     0.048 C 
HETATM   42  C40 VFQ J9621     -38.278 134.441  11.685  1.00 15.86     0.048 C 
HETATM   43  O23 VFQ J9621     -32.337 125.850   3.348  1.00 57.17    -0.395 OA
ATOM     44  H23 VFQ J9621     -31.575 126.211   2.910  1.00  0.00     0.210 HD
ENDROOT
TORSDOF 12
BEGIN_RES PHE A  61
REMARK  2 active torsions:
REMARK  status: ('A' for Active; 'I' for Inactive)
REMARK    1  A    between atoms: CA   and  CB  
REMARK    2  A    between atoms: CB   and  CG  
ROOT
ATOM      1  CA  PHE A  61     -36.237 128.293  12.768  1.00 39.40     0.164 C 
ENDROOT
BRANCH   1   2
ATOM      2  CB  PHE A  61     -36.813 128.951  11.509  1.00 39.41     0.058 C 
BRANCH   2   3
ATOM      3  CG  PHE A  61     -37.067 127.997  10.367  1.00 39.01    -0.020 A 
ATOM      4  CD2 PHE A  61     -36.341 126.822  10.245  1.00 40.32    -0.004 A 
ATOM      5  CE2 PHE A  61     -36.574 125.947   9.192  1.00 40.20    -0.000 A 
ATOM      6  CZ  PHE A  61     -37.537 126.233   8.252  1.00 40.34    -0.000 A 
ATOM      7  CE1 PHE A  61     -38.269 127.395   8.359  1.00 41.51    -0.000 A 
ATOM      8  CD1 PHE A  61     -38.032 128.274   9.408  1.00 39.94    -0.004 A 
ENDBRANCH   2   3
ENDBRANCH   1   2
END_RES PHE A  61
BEGIN_RES VAL A 134
REMARK  1 active torsions:
REMARK  status: ('A' for Active; 'I' for Inactive)
REMARK    3  A    between atoms: CA   and  CB  
ROOT
ATOM      9  CA  VAL A 134     -29.766 132.051   9.815  1.00 40.75     0.159 C 
ENDROOT
BRANCH   9  10
ATOM     10  CB  VAL A 134     -30.864 132.765   9.009  1.00 40.76     0.029 C 
ATOM     11  CG1 VAL A 134     -31.000 132.151   7.623  1.00 41.76     0.002 C 
ATOM     12  CG2 VAL A 134     -32.197 132.749   9.741  1.00 40.56     0.002 C 
ENDBRANCH   9  10
END_RES VAL A 134
BEGIN_RES TYR A 338
REMARK  3 active torsions:
REMARK  status: ('A' for Active; 'I' for Inactive)
REMARK    4  A    between atoms: CA   and  CB  
REMARK    5  A    between atoms: CB   and  CG  
REMARK    6  A    between atoms: CZ   and  OH  
ROOT
ATOM     13  CA  TYR A 338     -41.631 124.950   6.058  1.00 38.23     0.164 C 
ENDROOT
BRANCH  13  14
ATOM     14  CB  TYR A 338     -41.621 126.456   6.339  1.00 39.15     0.058 C 
BRANCH  14  15
ATOM     15  CG  TYR A 338     -40.408 127.208   5.841  1.00 39.03    -0.020 A 
ATOM     16  CD2 TYR A 338     -40.229 128.542   6.166  1.00 40.65    -0.002 A 
ATOM     17  CE2 TYR A 338     -39.137 129.267   5.713  1.00 40.91     0.024 A 
ATOM     18  CZ  TYR A 338     -38.191 128.655   4.913  1.00 42.33     0.089 A 
ATOM     19  CE1 TYR A 338     -38.346 127.321   4.579  1.00 40.63     0.024 A 
ATOM     20  CD1 TYR A 338     -39.452 126.617   5.031  1.00 39.27    -0.002 A 
BRANCH  18  21
ATOM     21  OH  TYR A 338     -37.108 129.359   4.465  1.00 43.36    -0.359 OA
ATOM     22  HH  TYR A 338     -37.158 129.853   3.655  1.00  0.00     0.217 HD
ENDBRANCH  18  21
ENDBRANCH  14  15
ENDBRANCH  13  14
END_RES TYR A 338
ENDMDL
MODEL 2
REMARK VINA RESULT:    -8.962      2.164      2.686
REMARK INTER + INTRA:         -11.813
REMARK INTER:                 -11.560
REMARK INTRA:                  -0.253
REMARK UNBOUND:                -2.850
REMARK  0 active torsions:
REMARK  status: ('A' for Active; 'I' for Inactive)
REMARK       I    between atoms: C3_3  and  O3_21 
REMARK       I    between atoms: C6_6  and  C7_7 
REMARK       I    between atoms: C8_8  and  C9_9 
REMARK       I    between atoms: C10_10  and  C11_11 
REMARK       I    between atoms: C12_12  and  C13_13 
REMARK       I    between atoms: C14_14  and  C15_15 
REMARK       I    between atoms: C23_25  and  O23_43 
REMARK       I    between atoms: C26_28  and  C27_29 
REMARK       I    between atoms: C28_30  and  C29_31 
REMARK       I    between atoms: C30_32  and  C31_33 
REMARK       I    between atoms: C32_34  and  C33_35 
REMARK       I    between atoms: C34_36  and  C35_37 
ROOT
HETATM    1  C1  VFQ J9621     -50.806 145.527   9.422  1.00 21.11    -0.018 C 
HETATM    2  C2  VFQ J9621     -51.809 145.945  10.510  1.00 20.11     0.045 C 
HETATM    3  C3  VFQ J9621     -51.522 147.166  11.383  1.00 19.41     0.123 C 
HETATM    4  C4  VFQ J9621     -50.161 147.843  11.168  1.00 18.39     0.066 C 
HETATM    5  C5  VFQ J9621     -49.113 147.249  10.288  1.00 18.34    -0.074 C 
HETATM    6  C6  VFQ J9621     -49.375 146.186   9.453  1.00 19.81    -0.048 C 
HETATM    7  C7  VFQ J9621     -48.403 145.576   8.518  1.00 19.02     0.009 C 
HETATM    8  C8  VFQ J9621     -47.460 144.677   8.862  1.00 17.97     0.007 C 
HETATM    9  C9  VFQ J9621     -46.471 144.034   7.992  1.00 18.85    -0.062 C 
HETATM   10  C10 VFQ J9621     -45.702 143.062   8.536  1.00 18.38     0.007 C 
HETATM   11  C11 VFQ J9621     -44.729 142.234   7.862  1.00 18.57     0.001 C 
HETATM   12  C12 VFQ J9621     -44.078 141.234   8.496  1.00 17.11     0.007 C 
HETATM   13  C13 VFQ J9621     -43.132 140.268   7.917  1.00 20.42    -0.062 C 
HETATM   14  C14 VFQ J9621     -42.619 139.317   8.729  1.00 20.50     0.007 C 
HETATM   15  C15 VFQ J9621     -41.719 138.253   8.353  1.00 20.22     0.001 C 
HETATM   16  C16 VFQ J9621     -51.537 145.867   8.099  1.00 19.56     0.020 C 
HETATM   17  C17 VFQ J9621     -50.700 143.991   9.526  1.00 18.49     0.020 C 
HETATM   18  C18 VFQ J9621     -47.867 148.042  10.426  1.00 16.89     0.044 C 
HETATM   19  C19 VFQ J9621     -46.436 144.447   6.547  1.00 14.61     0.048 C 
HETATM   20  C20 VFQ J9621     -42.819 140.376   6.442  1.00 17.59     0.048 C 
HETATM   21  O3  VFQ J9621     -52.567 148.115  11.255  1.00 18.27    -0.395 OA
ATOM     22  H3  VFQ J9621     -52.389 148.874  11.798  1.00  0.00     0.210 HD
HETATM   23  C21 VFQ J9621     -33.920 128.079   7.343  1.00 57.17    -0.018 C 
HETATM   24  C22 VFQ J9621     -32.939 127.269   6.506  1.00 57.17     0.045 C 
HETATM   25  C23 VFQ J9621     -31.690 127.976   6.015  1.00 57.17     0.123 C 
HETATM   26  C24 VFQ J9621     -31.998 129.412   5.654  1.00 57.17     0.066 C 
HETATM   27  C25 VFQ J9621     -32.567 130.099   6.862  1.00 57.17    -0.074 C 
HETATM   28  C26 VFQ J9621     -33.557 129.532   7.561  1.00 57.17    -0.048 C 
HETATM   29  C27 VFQ J9621     -34.319 130.294   8.587  1.00 57.17     0.009 C 
HETATM   30  C28 VFQ J9621     -35.320 131.115   8.258  1.00 57.17     0.007 C 
HETATM   31  C29 VFQ J9621     -36.136 131.891   9.233  1.00 19.55    -0.062 C 
HETATM   32  C30 VFQ J9621     -37.089 132.720   8.750  1.00 17.66     0.007 C 
HETATM   33  C31 VFQ J9621     -37.971 133.557   9.527  1.00 19.12     0.001 C 
HETATM   34  C32 VFQ J9621     -38.782 134.481   8.960  1.00 19.40     0.007 C 
HETATM   35  C33 VFQ J9621     -39.708 135.432   9.599  1.00 19.31    -0.062 C 
HETATM   36  C34 VFQ J9621     -40.336 136.328   8.807  1.00 17.72     0.007 C 
HETATM   37  C35 VFQ J9621     -41.231 137.371   9.225  1.00 19.92     0.001 C 
HETATM   38  C36 VFQ J9621     -33.980 127.437   8.711  1.00 57.17     0.020 C 
HETATM   39  C37 VFQ J9621     -35.281 127.955   6.674  1.00 57.17     0.020 C 
HETATM   40  C38 VFQ J9621     -31.958 131.415   7.246  1.00 57.17     0.044 C 
HETATM   41  C39 VFQ J9621     -35.804 131.761  10.696  1.00 18.53     0.048 C 
HETATM   42  C40 VFQ J9621     -39.840 135.387  11.098  1.00 15.86     0.048 C 
HETATM   43  O23 VFQ J9621     -31.236 127.295   4.845  1.00 57.17    -0.395 OA
ATOM     44  H23 VFQ J9621     -30.454 127.738   4.538  1.00  0.00     0.210 HD
ENDROOT
TORSDOF 12
BEGIN_RES PHE A  61
REMARK  2 active torsions:
REMARK  status: ('A' for Active; 'I' for Inactive)
REMARK    1  A    between atoms: CA   and  CB  
REMARK    2  A    between atoms: CB   and  CG  
ROOT
ATOM      1  CA  PHE A  61     -36.237 128.293  12.768  1.00 39.40     0.164 C 
ENDROOT
BRANCH   1   2
ATOM      2  CB  PHE A  61     -36.813 128.951  11.509  1.00 39.41     0.058 C 
BRANCH   2   3
ATOM      3  CG  PHE A  61     -37.040 128.002  10.357  1.00 39.01    -0.020 A 
ATOM      4  CD2 PHE A  61     -36.331 126.815  10.263  1.00 40.32    -0.004 A 
ATOM      5  CE2 PHE A  61     -36.539 125.944   9.200  1.00 40.20    -0.000 A 
ATOM      6  CZ  PHE A  61     -37.460 126.247   8.224  1.00 40.34    -0.000 A 
ATOM      7  CE1 PHE A  61     -38.174 127.422   8.304  1.00 41.51    -0.000 A 
ATOM      8  CD1 PHE A  61     -37.962 128.296   9.363  1.00 39.94    -0.004 A 
ENDBRANCH   2   3
ENDBRANCH   1   2
END_RES PHE A  61
BEGIN_RES VAL A 134
REMARK  1 active torsions:
REMARK  status: ('A' for Active; 'I' for Inactive)
REMARK    3  A    between atoms: CA   and  CB  
ROOT
ATOM      9  CA  VAL A 134     -29.766 132.051   9.815  1.00 40.75     0.159 C 
ENDROOT
BRANCH   9  10
ATOM     10  CB  VAL A 134     -30.864 132.765   9.009  1.00 40.76     0.029 C 
ATOM     11  CG1 VAL A 134     -32.119 132.944   9.851  1.00 41.76     0.002 C 
ATOM     12  CG2 VAL A 134     -30.382 134.101   8.466  1.00 40.56     0.002 C 
ENDBRANCH   9  10
END_RES VAL A 134
BEGIN_RES TYR A 338
REMARK  3 active torsions:
REMARK  status: ('A' for Active; 'I' for Inactive)
REMARK    4  A    between atoms: CA   and  CB  
REMARK    5  A    between atoms: CB   and  CG  
REMARK    6  A    between atoms: CZ   and  OH  
ROOT
ATOM     13  CA  TYR A 338     -41.631 124.950   6.058  1.00 38.23     0.164 C 
ENDROOT
BRANCH  13  14
ATOM     14  CB  TYR A 338     -41.621 126.456   6.339  1.00 39.15     0.058 C 
BRANCH  14  15
ATOM     15  CG  TYR A 338     -40.410 127.209   5.837  1.00 39.03    -0.020 A 
ATOM     16  CD2 TYR A 338     -40.248 128.552   6.133  1.00 40.65    -0.002 A 
ATOM     17  CE2 TYR A 338     -39.158 129.277   5.677  1.00 40.91     0.024 A 
ATOM     18  CZ  TYR A 338     -38.198 128.657   4.900  1.00 42.33     0.089 A 
ATOM     19  CE1 TYR A 338     -38.335 127.314   4.595  1.00 40.63     0.024 A 
ATOM     20  CD1 TYR A 338     -39.439 126.610   5.050  1.00 39.27    -0.002 A 
BRANCH  18  21
ATOM     21  OH  TYR A 338     -37.117 129.361   4.448  1.00 43.36    -0.359 OA
ATOM     22  HH  TYR A 338     -37.139 129.781   3.596  1.00  0.00     0.217 HD
ENDBRANCH  18  21
ENDBRANCH  14  15
ENDBRANCH  13  14
END_RES TYR A 338
ENDMDL
MODEL 3
REMARK VINA RESULT:    -7.790      1.918     17.060
REMARK INTER + INTRA:         -10.640
REMARK INTER:                 -10.173
REMARK INTRA:                  -0.467
REMARK UNBOUND:                -2.850
REMARK  0 active torsions:
REMARK  status: ('A' for Active; 'I' for Inactive)
REMARK       I    between atoms: C3_3  and  O3_21 
REMARK       I    between atoms: C6_6  and  C7_7 
REMARK       I    between atoms: C8_8  and  C9_9 
REMARK       I    between atoms: C10_10  and  C11_11 
REMARK       I    between atoms: C12_12  and  C13_13 
REMARK       I    between atoms: C14_14  and  C15_15 
REMARK       I    between atoms: C23_25  and  O23_43 
REMARK       I    between atoms: C26_28  and  C27_29 
REMARK       I    between atoms: C28_30  and  C29_31 
REMARK       I    between atoms: C30_32  and  C31_33 
REMARK       I    between atoms: C32_34  and  C33_35 
REMARK       I    between atoms: C34_36  and  C35_37 
ROOT
HETATM    1  C1  VFQ J9621     -34.113 128.333   7.135  1.00 21.11    -0.018 C 
HETATM    2  C2  VFQ J9621     -33.384 127.710   5.932  1.00 20.11     0.045 C 
HETATM    3  C3  VFQ J9621     -31.944 128.115   5.620  1.00 19.41     0.123 C 
HETATM    4  C4  VFQ J9621     -31.352 129.227   6.498  1.00 18.39     0.066 C 
HETATM    5  C5  VFQ J9621     -32.181 129.984   7.481  1.00 18.34    -0.074 C 
HETATM    6  C6  VFQ J9621     -33.458 129.594   7.814  1.00 19.81    -0.048 C 
HETATM    7  C7  VFQ J9621     -34.320 130.264   8.814  1.00 19.02     0.009 C 
HETATM    8  C8  VFQ J9621     -35.048 131.374   8.586  1.00 17.97     0.007 C 
HETATM    9  C9  VFQ J9621     -35.921 132.086   9.524  1.00 18.85    -0.062 C 
HETATM   10  C10 VFQ J9621     -36.658 133.110   9.034  1.00 18.38     0.007 C 
HETATM   11  C11 VFQ J9621     -37.643 133.897   9.738  1.00 18.57     0.001 C 
HETATM   12  C12 VFQ J9621     -38.379 134.845   9.118  1.00 17.11     0.007 C 
HETATM   13  C13 VFQ J9621     -39.465 135.656   9.689  1.00 20.42    -0.062 C 
HETATM   14  C14 VFQ J9621     -40.100 136.530   8.876  1.00 20.50     0.007 C 
HETATM   15  C15 VFQ J9621     -41.215 137.379   9.221  1.00 20.22     0.001 C 
HETATM   16  C16 VFQ J9621     -34.223 127.162   8.143  1.00 19.56     0.020 C 
HETATM   17  C17 VFQ J9621     -35.534 128.662   6.631  1.00 18.49     0.020 C 
HETATM   18  C18 VFQ J9621     -31.366 131.092   8.039  1.00 16.89     0.044 C 
HETATM   19  C19 VFQ J9621     -35.990 131.579  10.937  1.00 14.61     0.048 C 
HETATM   20  C20 VFQ J9621     -39.829 135.438  11.140  1.00 17.59     0.048 C 
HETATM   21  O3  VFQ J9621     -31.101 126.977   5.634  1.00 18.27    -0.395 OA
ATOM     22  H3  VFQ J9621     -30.206 127.229   5.440  1.00  0.00     0.210 HD
HETATM   23  C21 VFQ J9621     -51.065 145.613   9.943  1.00 57.17    -0.018 C 
HETATM   24  C22 VFQ J9621     -52.086 146.350  10.801  1.00 57.17     0.045 C 
HETATM   25  C23 VFQ J9621     -51.554 147.260  11.891  1.00 57.17     0.123 C 
HETATM   26  C24 VFQ J9621     -50.314 146.667  12.521  1.00 57.17     0.066 C 
HETATM   27  C25 VFQ J9621     -49.285 146.456  11.448  1.00 57.17    -0.074 C 
HETATM   28  C26 VFQ J9621     -49.613 145.840  10.306  1.00 57.17    -0.048 C 
HETATM   29  C27 VFQ J9621     -48.575 145.377   9.346  1.00 57.17     0.009 C 
HETATM   30  C28 VFQ J9621     -47.916 144.227   9.518  1.00 57.17     0.007 C 
HETATM   31  C29 VFQ J9621     -46.881 143.696   8.587  1.00 19.55    -0.062 C 
HETATM   32  C30 VFQ J9621     -46.265 142.538   8.915  1.00 17.66     0.007 C 
HETATM   33  C31 VFQ J9621     -45.236 141.870   8.155  1.00 19.12     0.001 C 
HETATM   34  C32 VFQ J9621     -44.554 140.805   8.636  1.00 19.40     0.007 C 
HETATM   35  C33 VFQ J9621     -43.461 140.034   8.015  1.00 19.31    -0.062 C 
HETATM   36  C34 VFQ J9621     -42.875 139.068   8.753  1.00 17.72     0.007 C 
HETATM   37  C35 VFQ J9621     -41.766 138.240   8.366  1.00 19.92     0.001 C 
HETATM   38  C36 VFQ J9621     -51.238 146.100   8.522  1.00 57.17     0.020 C 
HETATM   39  C37 VFQ J9621     -51.416 144.134  10.010  1.00 57.17     0.020 C 
HETATM   40  C38 VFQ J9621     -47.907 146.986  11.712  1.00 57.17     0.044 C 
HETATM   41  C39 VFQ J9621     -46.533 144.515   7.373  1.00 18.53     0.048 C 
HETATM   42  C40 VFQ J9621     -43.028 140.421   6.626  1.00 15.86     0.048 C 
HETATM   43  O23 VFQ J9621     -52.566 147.376  12.892  1.00 57.17    -0.395 OA
ATOM     44  H23 VFQ J9621     -52.233 147.946  13.575  1.00  0.00     0.210 HD
ENDROOT
TORSDOF 12
BEGIN_RES PHE A  61
REMARK  2 active torsions:
REMARK  status: ('A' for Active; 'I' for Inactive)
REMARK    1  A    between atoms: CA   and  CB  
REMARK    2  A    between atoms: CB   and  CG  
ROOT
ATOM      1  CA  PHE A  61     -36.237 128.293  12.768  1.00 39.40     0.164 C 
ENDROOT
BRANCH   1   2
ATOM      2  CB  PHE A  61     -36.813 128.951  11.509  1.00 39.41     0.058 C 
BRANCH   2   3
ATOM      3  CG  PHE A  61     -37.026 128.005  10.352  1.00 39.01    -0.020 A 
ATOM      4  CD2 PHE A  61     -36.277 126.844  10.235  1.00 40.32    -0.004 A 
ATOM      5  CE2 PHE A  61     -36.472 125.976   9.168  1.00 40.20    -0.000 A 
ATOM      6  CZ  PHE A  61     -37.418 126.256   8.209  1.00 40.34    -0.000 A 
ATOM      7  CE1 PHE A  61     -38.172 127.404   8.312  1.00 41.51    -0.000 A 
ATOM      8  CD1 PHE A  61     -37.973 128.276   9.375  1.00 39.94    -0.004 A 
ENDBRANCH   2   3
ENDBRANCH   1   2
END_RES PHE A  61
BEGIN_RES VAL A 134
REMARK  1 active torsions:
REMARK  status: ('A' for Active; 'I' for Inactive)
REMARK    3  A    between atoms: CA   and  CB  
ROOT
ATOM      9  CA  VAL A 134     -29.766 132.051   9.815  1.00 40.75     0.159 C 
ENDROOT
BRANCH   9  10
ATOM     10  CB  VAL A 134     -30.864 132.765   9.009  1.00 40.76     0.029 C 
ATOM     11  CG1 VAL A 134     -32.103 132.985   9.865  1.00 41.76     0.002 C 
ATOM     12  CG2 VAL A 134     -30.368 134.080   8.427  1.00 40.56     0.002 C 
ENDBRANCH   9  10
END_RES VAL A 134
BEGIN_RES TYR A 338
REMARK  3 active torsions:
REMARK  status: ('A' for Active; 'I' for Inactive)
REMARK    4  A    between atoms: CA   and  CB  
REMARK    5  A    between atoms: CB   and  CG  
REMARK    6  A    between atoms: CZ   and  OH  
ROOT
ATOM     13  CA  TYR A 338     -41.631 124.950   6.058  1.00 38.23     0.164 C 
ENDROOT
BRANCH  13  14
ATOM     14  CB  TYR A 338     -41.621 126.456   6.339  1.00 39.15     0.058 C 
BRANCH  14  15
ATOM     15  CG  TYR A 338     -40.413 127.210   5.833  1.00 39.03    -0.020 A 
ATOM     16  CD2 TYR A 338     -40.259 128.557   6.113  1.00 40.65    -0.002 A 
ATOM     17  CE2 TYR A 338     -39.172 129.283   5.652  1.00 40.91     0.024 A 
ATOM     18  CZ  TYR A 338     -38.205 128.659   4.887  1.00 42.33     0.089 A 
ATOM     19  CE1 TYR A 338     -38.334 127.312   4.597  1.00 40.63     0.024 A 
ATOM     20  CD1 TYR A 338     -39.435 126.607   5.057  1.00 39.27    -0.002 A 
BRANCH  18  21
ATOM     21  OH  TYR A 338     -37.126 129.364   4.430  1.00 43.36    -0.359 OA
ATOM     22  HH  TYR A 338     -37.077 130.304   4.559  1.00  0.00     0.217 HD
ENDBRANCH  18  21
ENDBRANCH  14  15
ENDBRANCH  13  14
END_RES TYR A 338
ENDMDL
MODEL 4
REMARK VINA RESULT:    -7.201      0.682     17.107
REMARK INTER + INTRA:         -10.051
REMARK INTER:                  -7.534
REMARK INTRA:                  -2.517
REMARK UNBOUND:                -2.850
REMARK  0 active torsions:
REMARK  status: ('A' for Active; 'I' for Inactive)
REMARK       I    between atoms: C3_3  and  O3_21 
REMARK       I    between atoms: C6_6  and  C7_7 
REMARK       I    between atoms: C8_8  and  C9_9 
REMARK       I    between atoms: C10_10  and  C11_11 
REMARK       I    between atoms: C12_12  and  C13_13 
REMARK       I    between atoms: C14_14  and  C15_15 
REMARK       I    between atoms: C23_25  and  O23_43 
REMARK       I    between atoms: C26_28  and  C27_29 
REMARK       I    between atoms: C28_30  and  C29_31 
REMARK       I    between atoms: C30_32  and  C31_33 
REMARK       I    between atoms: C32_34  and  C33_35 
REMARK       I    between atoms: C34_36  and  C35_37 
ROOT
HETATM    1  C1  VFQ J9621     -34.662 127.458   6.164  1.00 21.11    -0.018 C 
HETATM    2  C2  VFQ J9621     -34.269 126.847   4.808  1.00 20.11     0.045 C 
HETATM    3  C3  VFQ J9621     -32.869 127.086   4.242  1.00 19.41     0.123 C 
HETATM    4  C4  VFQ J9621     -31.969 128.034   5.048  1.00 18.39     0.066 C 
HETATM    5  C5  VFQ J9621     -32.482 128.808   6.216  1.00 18.34    -0.074 C 
HETATM    6  C6  VFQ J9621     -33.717 128.562   6.772  1.00 19.81    -0.048 C 
HETATM    7  C7  VFQ J9621     -34.271 129.253   7.957  1.00 19.02     0.009 C 
HETATM    8  C8  VFQ J9621     -34.861 130.464   7.940  1.00 17.97     0.007 C 
HETATM    9  C9  VFQ J9621     -35.432 131.204   9.070  1.00 18.85    -0.062 C 
HETATM   10  C10 VFQ J9621     -36.091 132.353   8.792  1.00 18.38     0.007 C 
HETATM   11  C11 VFQ J9621     -36.804 133.200   9.720  1.00 18.57     0.001 C 
HETATM   12  C12 VFQ J9621     -37.498 134.285   9.311  1.00 17.11     0.007 C 
HETATM   13  C13 VFQ J9621     -38.330 135.180  10.129  1.00 20.42    -0.062 C 
HETATM   14  C14 VFQ J9621     -38.973 136.194   9.507  1.00 20.50     0.007 C 
HETATM   15  C15 VFQ J9621     -39.869 137.149  10.112  1.00 20.22     0.001 C 
HETATM   16  C16 VFQ J9621     -34.750 126.232   7.107  1.00 19.56     0.020 C 
HETATM   17  C17 VFQ J9621     -36.089 128.011   5.969  1.00 18.49     0.020 C 
HETATM   18  C18 VFQ J9621     -31.426 129.750   6.664  1.00 16.89     0.044 C 
HETATM   19  C19 VFQ J9621     -35.307 130.595  10.438  1.00 14.61     0.048 C 
HETATM   20  C20 VFQ J9621     -38.444 134.891  11.609  1.00 17.59     0.048 C 
HETATM   21  O3  VFQ J9621     -32.211 125.850   4.027  1.00 18.27    -0.395 OA
ATOM     22  H3  VFQ J9621     -31.342 125.998   3.675  1.00  0.00     0.210 HD
HETATM   23  C21 VFQ J9621     -48.119 146.511  13.219  1.00 57.17    -0.018 C 
HETATM   24  C22 VFQ J9621     -48.845 147.301  14.300  1.00 57.17     0.045 C 
HETATM   25  C23 VFQ J9621     -47.993 148.040  15.315  1.00 57.17     0.123 C 
HETATM   26  C24 VFQ J9621     -46.755 147.240  15.654  1.00 57.17     0.066 C 
HETATM   27  C25 VFQ J9621     -45.987 146.986  14.389  1.00 57.17    -0.074 C 
HETATM   28  C26 VFQ J9621     -46.608 146.515  13.301  1.00 57.17    -0.048 C 
HETATM   29  C27 VFQ J9621     -45.845 146.002  12.131  1.00 57.17     0.009 C 
HETATM   30  C28 VFQ J9621     -45.339 144.766  12.105  1.00 57.17     0.007 C 
HETATM   31  C29 VFQ J9621     -44.584 144.183  10.961  1.00 19.55    -0.062 C 
HETATM   32  C30 VFQ J9621     -44.090 142.931  11.096  1.00 17.66     0.007 C 
HETATM   33  C31 VFQ J9621     -43.329 142.200  10.112  1.00 19.12     0.001 C 
HETATM   34  C32 VFQ J9621     -42.729 141.019  10.388  1.00 19.40     0.007 C 
HETATM   35  C33 VFQ J9621     -41.895 140.166   9.522  1.00 19.31    -0.062 C 
HETATM   36  C34 VFQ J9621     -41.326 139.074  10.075  1.00 17.72     0.007 C 
HETATM   37  C35 VFQ J9621     -40.441 138.143   9.432  1.00 19.92     0.001 C 
HETATM   38  C36 VFQ J9621     -48.483 147.133  11.889  1.00 57.17     0.020 C 
HETATM   39  C37 VFQ J9621     -48.661 145.090  13.270  1.00 57.17     0.020 C 
HETATM   40  C38 VFQ J9621     -44.522 147.308  14.406  1.00 57.17     0.044 C 
HETATM   41  C39 VFQ J9621     -44.354 145.047   9.750  1.00 18.53     0.048 C 
HETATM   42  C40 VFQ J9621     -41.678 140.607   8.100  1.00 15.86     0.048 C 
HETATM   43  O23 VFQ J9621     -48.773 148.204  16.500  1.00 57.17    -0.395 OA
ATOM     44  H23 VFQ J9621     -48.240 148.667  17.135  1.00  0.00     0.210 HD
ENDROOT
TORSDOF 12
BEGIN_RES PHE A  61
REMARK  2 active torsions:
REMARK  status: ('A' for Active; 'I' for Inactive)
REMARK    1  A    between atoms: CA   and  CB  
REMARK    2  A    between atoms: CB   and  CG  
ROOT
ATOM      1  CA  PHE A  61     -36.237 128.293  12.768  1.00 39.40     0.164 C 
ENDROOT
BRANCH   1   2
ATOM      2  CB  PHE A  61     -36.813 128.951  11.509  1.00 39.41     0.058 C 
BRANCH   2   3
ATOM      3  CG  PHE A  61     -37.036 128.003  10.355  1.00 39.01    -0.020 A 
ATOM      4  CD2 PHE A  61     -36.271 126.854  10.220  1.00 40.32    -0.004 A 
ATOM      5  CE2 PHE A  61     -36.475 125.984   9.157  1.00 40.20    -0.000 A 
ATOM      6  CZ  PHE A  61     -37.447 126.250   8.219  1.00 40.34    -0.000 A 
ATOM      7  CE1 PHE A  61     -38.216 127.386   8.340  1.00 41.51    -0.000 A 
ATOM      8  CD1 PHE A  61     -38.009 128.259   9.400  1.00 39.94    -0.004 A 
ENDBRANCH   2   3
ENDBRANCH   1   2
END_RES PHE A  61
BEGIN_RES VAL A 134
REMARK  1 active torsions:
REMARK  status: ('A' for Active; 'I' for Inactive)
REMARK    3  A    between atoms: CA   and  CB  
ROOT
ATOM      9  CA  VAL A 134     -29.766 132.051   9.815  1.00 40.75     0.159 C 
ENDROOT
BRANCH   9  10
ATOM     10  CB  VAL A 134     -30.864 132.765   9.009  1.00 40.76     0.029 C 
ATOM     11  CG1 VAL A 134     -30.885 132.268   7.571  1.00 41.76     0.002 C 
ATOM     12  CG2 VAL A 134     -32.231 132.604   9.657  1.00 40.56     0.002 C 
ENDBRANCH   9  10
END_RES VAL A 134
BEGIN_RES TYR A 338
REMARK  3 active torsions:
REMARK  status: ('A' for Active; 'I' for Inactive)
REMARK    4  A    between atoms: CA   and  CB  
REMARK    5  A    between atoms: CB   and  CG  
REMARK    6  A    between atoms: CZ   and  OH  
ROOT
ATOM     13  CA  TYR A 338     -41.631 124.950   6.058  1.00 38.23     0.164 C 
ENDROOT
BRANCH  13  14
ATOM     14  CB  TYR A 338     -41.621 126.456   6.339  1.00 39.15     0.058 C 
BRANCH  14  15
ATOM     15  CG  TYR A 338     -40.441 127.219   5.783  1.00 39.03    -0.020 A 
ATOM     16  CD2 TYR A 338     -40.269 128.560   6.084  1.00 40.65    -0.002 A 
ATOM     17  CE2 TYR A 338     -39.207 129.295   5.579  1.00 40.91     0.024 A 
ATOM     18  CZ  TYR A 338     -38.285 128.686   4.748  1.00 42.33     0.089 A 
ATOM     19  CE1 TYR A 338     -38.433 127.346   4.437  1.00 40.63     0.024 A 
ATOM     20  CD1 TYR A 338     -39.509 126.632   4.942  1.00 39.27    -0.002 A 
BRANCH  18  21
ATOM     21  OH  TYR A 338     -37.232 129.400   4.248  1.00 43.36    -0.359 OA
ATOM     22  HH  TYR A 338     -36.953 130.204   4.670  1.00  0.00     0.217 HD
ENDBRANCH  18  21
ENDBRANCH  14  15
ENDBRANCH  13  14
END_RES TYR A 338
ENDMDL
