MODEL 1
REMARK VINA RESULT:    -6.450      0.000      0.000
REMARK INTER + INTRA:         -11.142
REMARK INTER:                  -6.450
REMARK INTRA:                  -4.693
REMARK UNBOUND:                -4.693
REMARK  0 active torsions:
REMARK  status: ('A' for Active; 'I' for Inactive)
REMARK       I    between atoms: C3_3  and  O3_21 
REMARK       I    between atoms: C6_6  and  C7_7 
REMARK       I    between atoms: C8_8  and  C9_9 
REMARK       I    between atoms: C10_10  and  C11_11 
REMARK       I    between atoms: C12_12  and  C13_13 
REMARK       I    between atoms: C14_14  and  C15_15 
REMARK       I    between atoms: C23_25  and  O23_43 
REMARK       I    between atoms: C26_28  and  C27_29 
REMARK       I    between atoms: C28_30  and  C29_31 
REMARK       I    between atoms: C30_32  and  C31_33 
REMARK       I    between atoms: C32_34  and  C33_35 
REMARK       I    between atoms: C34_36  and  C35_37 
ROOT
HETATM    1  C1  VFQ Z 617     -34.621 127.014   5.235  1.00 32.73    -0.018 C 
HETATM    2  C2  VFQ Z 617     -33.911 126.070   4.284  1.00 32.73     0.045 C 
HETATM    3  C3  VFQ Z 617     -32.794 126.767   3.545  1.00 32.73     0.123 C 
HETATM    4  C4  VFQ Z 617     -31.752 127.231   4.536  1.00 32.73     0.066 C 
HETATM    5  C5  VFQ Z 617     -32.353 127.970   5.705  1.00 32.73    -0.074 C 
HETATM    6  C6  VFQ Z 617     -33.656 127.871   6.049  1.00 32.73    -0.048 C 
HETATM    7  C7  VFQ Z 617     -34.159 128.553   7.276  1.00 32.73     0.009 C 
HETATM    8  C8  VFQ Z 617     -34.577 129.828   7.299  1.00 32.73     0.007 C 
HETATM    9  C9  VFQ Z 617     -35.077 130.499   8.507  1.00 32.73    -0.062 C 
HETATM   10  C10 VFQ Z 617     -35.842 131.572   8.298  1.00 32.73     0.007 C 
HETATM   11  C11 VFQ Z 617     -36.464 132.385   9.330  1.00 32.73     0.001 C 
HETATM   12  C12 VFQ Z 617     -37.238 133.335   8.823  1.00 32.73     0.007 C 
HETATM   13  C13 VFQ Z 617     -38.034 134.293   9.596  1.00 32.73    -0.062 C 
HETATM   14  C14 VFQ Z 617     -38.822 135.101   8.882  1.00 32.73     0.007 C 
HETATM   15  C15 VFQ Z 617     -39.714 136.077   9.480  1.00 32.73     0.001 C 
HETATM   16  C16 VFQ Z 617     -35.549 126.132   6.067  1.00 32.73     0.020 C 
HETATM   17  C17 VFQ Z 617     -35.486 127.971   4.433  1.00 32.73     0.020 C 
HETATM   18  C18 VFQ Z 617     -31.356 128.764   6.499  1.00 32.73     0.044 C 
HETATM   19  C19 VFQ Z 617     -34.722 130.017   9.881  1.00 32.73     0.048 C 
HETATM   20  C20 VFQ Z 617     -37.995 134.339  11.094  1.00 32.73     0.048 C 
HETATM   21  O3  VFQ Z 617     -32.181 125.859   2.627  1.00 32.73    -0.395 OA
ATOM     22  H3  VFQ Z 617     -31.478 126.297   2.163  1.00  0.00     0.210 HD
HETATM   23  C21 VFQ Z 617     -49.344 143.487  11.182  1.00 32.28    -0.018 C 
HETATM   24  C22 VFQ Z 617     -50.256 144.298  12.086  1.00 32.10     0.045 C 
HETATM   25  C23 VFQ Z 617     -49.851 145.729  12.361  1.00 30.03     0.123 C 
HETATM   26  C24 VFQ Z 617     -48.379 145.861  12.640  1.00 27.01     0.066 C 
HETATM   27  C25 VFQ Z 617     -47.558 145.212  11.571  1.00 26.85    -0.074 C 
HETATM   28  C26 VFQ Z 617     -48.007 144.154  10.875  1.00 32.38    -0.048 C 
HETATM   29  C27 VFQ Z 617     -47.189 143.612   9.762  1.00 31.45     0.009 C 
HETATM   30  C28 VFQ Z 617     -46.327 142.619   9.969  1.00 30.07     0.007 C 
HETATM   31  C29 VFQ Z 617     -45.491 142.039   8.921  1.00 32.73    -0.062 C 
HETATM   32  C30 VFQ Z 617     -44.897 140.887   9.225  1.00 32.73     0.007 C 
HETATM   33  C31 VFQ Z 617     -44.037 140.120   8.342  1.00 32.73     0.001 C 
HETATM   34  C32 VFQ Z 617     -43.242 139.287   8.996  1.00 32.73     0.007 C 
HETATM   35  C33 VFQ Z 617     -42.275 138.384   8.365  1.00 32.73    -0.062 C 
HETATM   36  C34 VFQ Z 617     -41.577 137.582   9.174  1.00 32.73     0.007 C 
HETATM   37  C35 VFQ Z 617     -40.608 136.624   8.667  1.00 32.73     0.001 C 
HETATM   38  C36 VFQ Z 617     -50.060 143.266   9.859  1.00 30.09     0.020 C 
HETATM   39  C37 VFQ Z 617     -49.195 142.146  11.895  1.00 35.00     0.020 C 
HETATM   40  C38 VFQ Z 617     -46.207 145.826  11.364  1.00 25.72     0.044 C 
HETATM   41  C39 VFQ Z 617     -45.321 142.697   7.586  1.00 32.73     0.048 C 
HETATM   42  C40 VFQ Z 617     -42.079 138.377   6.880  1.00 32.73     0.048 C 
HETATM   43  O23 VFQ Z 617     -50.539 146.173  13.531  1.00 33.60    -0.395 OA
ATOM     44  H23 VFQ Z 617     -50.284 147.072  13.704  1.00  0.00     0.210 HD
ENDROOT
TORSDOF 12
BEGIN_RES PHE A  61
REMARK  2 active torsions:
REMARK  status: ('A' for Active; 'I' for Inactive)
REMARK    1  A    between atoms: CA   and  CB  
REMARK    2  A    between atoms: CB   and  CG  
ROOT
ATOM      1  CA  PHE A  61     -36.237 128.293  12.768  1.00 39.40     0.164 C 
ENDROOT
BRANCH   1   2
ATOM      2  CB  PHE A  61     -36.813 128.951  11.509  1.00 39.41     0.058 C 
BRANCH   2   3
ATOM      3  CG  PHE A  61     -36.905 128.035  10.312  1.00 39.01    -0.020 A 
ATOM      4  CD2 PHE A  61     -35.998 127.001  10.136  1.00 40.32    -0.004 A 
ATOM      5  CE2 PHE A  61     -36.082 126.161   9.033  1.00 40.20    -0.000 A 
ATOM      6  CZ  PHE A  61     -37.075 126.342   8.097  1.00 40.34    -0.000 A 
ATOM      7  CE1 PHE A  61     -37.985 127.362   8.259  1.00 41.51    -0.000 A 
ATOM      8  CD1 PHE A  61     -37.898 128.207   9.358  1.00 39.94    -0.004 A 
ENDBRANCH   2   3
ENDBRANCH   1   2
END_RES PHE A  61
BEGIN_RES VAL A 134
REMARK  1 active torsions:
REMARK  status: ('A' for Active; 'I' for Inactive)
REMARK    3  A    between atoms: CA   and  CB  
ROOT
ATOM      9  CA  VAL A 134     -29.766 132.051   9.815  1.00 40.75     0.159 C 
ENDROOT
BRANCH   9  10
ATOM     10  CB  VAL A 134     -30.864 132.765   9.009  1.00 40.76     0.029 C 
ATOM     11  CG1 VAL A 134     -31.178 132.000   7.732  1.00 41.76     0.002 C 
ATOM     12  CG2 VAL A 134     -32.123 132.973   9.837  1.00 40.56     0.002 C 
ENDBRANCH   9  10
END_RES VAL A 134
BEGIN_RES TYR A 338
REMARK  3 active torsions:
REMARK  status: ('A' for Active; 'I' for Inactive)
REMARK    4  A    between atoms: CA   and  CB  
REMARK    5  A    between atoms: CB   and  CG  
REMARK    6  A    between atoms: CZ   and  OH  
ROOT
ATOM     13  CA  TYR A 338     -41.631 124.950   6.058  1.00 38.23     0.164 C 
ENDROOT
BRANCH  13  14
ATOM     14  CB  TYR A 338     -41.621 126.456   6.339  1.00 39.15     0.058 C 
BRANCH  14  15
ATOM     15  CG  TYR A 338     -40.420 127.212   5.820  1.00 39.03    -0.020 A 
ATOM     16  CD2 TYR A 338     -40.231 128.542   6.155  1.00 40.65    -0.002 A 
ATOM     17  CE2 TYR A 338     -39.149 129.271   5.684  1.00 40.91     0.024 A 
ATOM     18  CZ  TYR A 338     -38.224 128.667   4.853  1.00 42.33     0.089 A 
ATOM     19  CE1 TYR A 338     -38.389 127.337   4.508  1.00 40.63     0.024 A 
ATOM     20  CD1 TYR A 338     -39.485 126.630   4.979  1.00 39.27    -0.002 A 
BRANCH  18  21
ATOM     21  OH  TYR A 338     -37.152 129.374   4.387  1.00 43.36    -0.359 OA
ATOM     22  HH  TYR A 338     -36.271 129.033   4.487  1.00  0.00     0.217 HD
ENDBRANCH  18  21
ENDBRANCH  14  15
ENDBRANCH  13  14
END_RES TYR A 338
ENDMDL
MODEL 2
REMARK VINA RESULT:    -4.394      1.377     16.533
REMARK INTER + INTRA:          -9.087
REMARK INTER:                  -8.431
REMARK INTRA:                  -0.655
REMARK UNBOUND:                -4.693
REMARK  0 active torsions:
REMARK  status: ('A' for Active; 'I' for Inactive)
REMARK       I    between atoms: C3_3  and  O3_21 
REMARK       I    between atoms: C6_6  and  C7_7 
REMARK       I    between atoms: C8_8  and  C9_9 
REMARK       I    between atoms: C10_10  and  C11_11 
REMARK       I    between atoms: C12_12  and  C13_13 
REMARK       I    between atoms: C14_14  and  C15_15 
REMARK       I    between atoms: C23_25  and  O23_43 
REMARK       I    between atoms: C26_28  and  C27_29 
REMARK       I    between atoms: C28_30  and  C29_31 
REMARK       I    between atoms: C30_32  and  C31_33 
REMARK       I    between atoms: C32_34  and  C33_35 
REMARK       I    between atoms: C34_36  and  C35_37 
ROOT
HETATM    1  C1  VFQ Z 617     -49.489 144.448  12.327  1.00 32.73    -0.018 C 
HETATM    2  C2  VFQ Z 617     -50.593 145.067  13.164  1.00 32.73     0.045 C 
HETATM    3  C3  VFQ Z 617     -50.044 145.707  14.417  1.00 32.73     0.123 C 
HETATM    4  C4  VFQ Z 617     -49.117 146.838  14.035  1.00 32.73     0.066 C 
HETATM    5  C5  VFQ Z 617     -48.112 146.435  12.986  1.00 32.73    -0.074 C 
HETATM    6  C6  VFQ Z 617     -48.272 145.358  12.187  1.00 32.73    -0.048 C 
HETATM    7  C7  VFQ Z 617     -47.284 145.077  11.105  1.00 32.73     0.009 C 
HETATM    8  C8  VFQ Z 617     -46.157 144.375  11.293  1.00 32.73     0.007 C 
HETATM    9  C9  VFQ Z 617     -45.187 144.094  10.226  1.00 32.73    -0.062 C 
HETATM   10  C10 VFQ Z 617     -44.377 143.055  10.439  1.00 32.73     0.007 C 
HETATM   11  C11 VFQ Z 617     -43.353 142.575   9.525  1.00 32.73     0.001 C 
HETATM   12  C12 VFQ Z 617     -42.762 141.473   9.967  1.00 32.73     0.007 C 
HETATM   13  C13 VFQ Z 617     -41.721 140.719   9.262  1.00 32.73    -0.062 C 
HETATM   14  C14 VFQ Z 617     -41.336 139.580   9.843  1.00 32.73     0.007 C 
HETATM   15  C15 VFQ Z 617     -40.353 138.683   9.266  1.00 32.73     0.001 C 
HETATM   16  C16 VFQ Z 617     -50.150 144.057  11.008  1.00 32.73     0.020 C 
HETATM   17  C17 VFQ Z 617     -49.008 143.175  13.001  1.00 32.73     0.020 C 
HETATM   18  C18 VFQ Z 617     -46.955 147.385  12.857  1.00 32.73     0.044 C 
HETATM   19  C19 VFQ Z 617     -45.102 144.942   8.993  1.00 32.73     0.048 C 
HETATM   20  C20 VFQ Z 617     -41.149 141.178   7.954  1.00 32.73     0.048 C 
HETATM   21  O3  VFQ Z 617     -51.117 146.236  15.199  1.00 32.73    -0.395 OA
ATOM     22  H3  VFQ Z 617     -50.771 146.639  15.987  1.00  0.00     0.210 HD
HETATM   23  C21 VFQ Z 617     -34.289 128.413   6.386  1.00 32.28    -0.018 C 
HETATM   24  C22 VFQ Z 617     -33.355 127.628   5.482  1.00 32.10     0.045 C 
HETATM   25  C23 VFQ Z 617     -31.876 127.719   5.783  1.00 30.03     0.123 C 
HETATM   26  C24 VFQ Z 617     -31.442 129.124   6.097  1.00 27.01     0.066 C 
HETATM   27  C25 VFQ Z 617     -32.298 129.736   7.160  1.00 26.85    -0.074 C 
HETATM   28  C26 VFQ Z 617     -33.585 129.388   7.324  1.00 32.38    -0.048 C 
HETATM   29  C27 VFQ Z 617     -34.357 129.957   8.456  1.00 31.45     0.009 C 
HETATM   30  C28 VFQ Z 617     -35.081 131.064   8.301  1.00 30.07     0.007 C 
HETATM   31  C29 VFQ Z 617     -35.862 131.679   9.371  1.00 32.73    -0.062 C 
HETATM   32  C30 VFQ Z 617     -36.737 132.607   8.989  1.00 32.73     0.007 C 
HETATM   33  C31 VFQ Z 617     -37.631 133.339   9.868  1.00 32.73     0.001 C 
HETATM   34  C32 VFQ Z 617     -38.059 134.474   9.336  1.00 32.73     0.007 C 
HETATM   35  C33 VFQ Z 617     -38.975 135.412   9.991  1.00 32.73    -0.062 C 
HETATM   36  C34 VFQ Z 617     -39.335 136.494   9.295  1.00 32.73     0.007 C 
HETATM   37  C35 VFQ Z 617     -40.259 137.484   9.824  1.00 32.73     0.001 C 
HETATM   38  C36 VFQ Z 617     -35.059 127.424   7.247  1.00 30.09     0.020 C 
HETATM   39  C37 VFQ Z 617     -35.261 129.097   5.429  1.00 35.00     0.020 C 
HETATM   40  C38 VFQ Z 617     -31.607 130.767   7.999  1.00 25.72     0.044 C 
HETATM   41  C39 VFQ Z 617     -35.694 131.282  10.806  1.00 32.73     0.048 C 
HETATM   42  C40 VFQ Z 617     -39.473 135.164  11.382  1.00 32.73     0.048 C 
HETATM   43  O23 VFQ Z 617     -31.155 127.310   4.618  1.00 33.60    -0.395 OA
ATOM     44  H23 VFQ Z 617     -30.226 127.368   4.808  1.00  0.00     0.210 HD
ENDROOT
TORSDOF 12
BEGIN_RES PHE A  61
REMARK  2 active torsions:
REMARK  status: ('A' for Active; 'I' for Inactive)
REMARK    1  A    between atoms: CA   and  CB  
REMARK    2  A    between atoms: CB   and  CG  
ROOT
ATOM      1  CA  PHE A  61     -36.237 128.293  12.768  1.00 39.40     0.164 C 
ENDROOT
BRANCH   1   2
ATOM      2  CB  PHE A  61     -36.813 128.951  11.509  1.00 39.41     0.058 C 
BRANCH   2   3
ATOM      3  CG  PHE A  61     -37.002 128.010  10.344  1.00 39.01    -0.020 A 
ATOM      4  CD2 PHE A  61     -36.211 126.880  10.206  1.00 40.32    -0.004 A 
ATOM      5  CE2 PHE A  61     -36.384 126.016   9.131  1.00 40.20    -0.000 A 
ATOM      6  CZ  PHE A  61     -37.352 126.270   8.186  1.00 40.34    -0.000 A 
ATOM      7  CE1 PHE A  61     -38.148 127.387   8.310  1.00 41.51    -0.000 A 
ATOM      8  CD1 PHE A  61     -37.971 128.254   9.380  1.00 39.94    -0.004 A 
ENDBRANCH   2   3
ENDBRANCH   1   2
END_RES PHE A  61
BEGIN_RES VAL A 134
REMARK  1 active torsions:
REMARK  status: ('A' for Active; 'I' for Inactive)
REMARK    3  A    between atoms: CA   and  CB  
ROOT
ATOM      9  CA  VAL A 134     -29.766 132.051   9.815  1.00 40.75     0.159 C 
ENDROOT
BRANCH   9  10
ATOM     10  CB  VAL A 134     -30.864 132.765   9.009  1.00 40.76     0.029 C 
ATOM     11  CG1 VAL A 134     -32.108 132.973   9.861  1.00 41.76     0.002 C 
ATOM     12  CG2 VAL A 134     -30.372 134.086   8.439  1.00 40.56     0.002 C 
ENDBRANCH   9  10
END_RES VAL A 134
BEGIN_RES TYR A 338
REMARK  3 active torsions:
REMARK  status: ('A' for Active; 'I' for Inactive)
REMARK    4  A    between atoms: CA   and  CB  
REMARK    5  A    between atoms: CB   and  CG  
REMARK    6  A    between atoms: CZ   and  OH  
ROOT
ATOM     13  CA  TYR A 338     -41.631 124.950   6.058  1.00 38.23     0.164 C 
ENDROOT
BRANCH  13  14
ATOM     14  CB  TYR A 338     -41.621 126.456   6.339  1.00 39.15     0.058 C 
BRANCH  14  15
ATOM     15  CG  TYR A 338     -40.423 127.213   5.814  1.00 39.03    -0.020 A 
ATOM     16  CD2 TYR A 338     -40.269 128.561   6.092  1.00 40.65    -0.002 A 
ATOM     17  CE2 TYR A 338     -39.191 129.290   5.614  1.00 40.91     0.024 A 
ATOM     18  CZ  TYR A 338     -38.234 128.669   4.834  1.00 42.33     0.089 A 
ATOM     19  CE1 TYR A 338     -38.364 127.322   4.546  1.00 40.63     0.024 A 
ATOM     20  CD1 TYR A 338     -39.456 126.613   5.023  1.00 39.27    -0.002 A 
BRANCH  18  21
ATOM     21  OH  TYR A 338     -37.165 129.377   4.361  1.00 43.36    -0.359 OA
ATOM     22  HH  TYR A 338     -37.275 130.274   4.066  1.00  0.00     0.217 HD
ENDBRANCH  18  21
ENDBRANCH  14  15
ENDBRANCH  13  14
END_RES TYR A 338
ENDMDL
