MODEL 1
REMARK VINA RESULT:   -10.082      0.000      0.000
REMARK INTER + INTRA:         -10.471
REMARK INTER:                 -10.082
REMARK INTRA:                  -0.389
REMARK UNBOUND:                -0.389
REMARK  0 active torsions:
REMARK  status: ('A' for Active; 'I' for Inactive)
REMARK       I    between atoms: C3_3  and  O3_21 
REMARK       I    between atoms: C6_6  and  C7_7 
REMARK       I    between atoms: C8_8  and  C9_9 
REMARK       I    between atoms: C10_10  and  C11_11 
REMARK       I    between atoms: C12_12  and  C13_13 
REMARK       I    between atoms: C14_14  and  C15_15 
REMARK       I    between atoms: C23_25  and  O23_43 
REMARK       I    between atoms: C26_28  and  C27_29 
REMARK       I    between atoms: C28_30  and  C29_31 
REMARK       I    between atoms: C30_32  and  C31_33 
REMARK       I    between atoms: C32_34  and  C33_35 
REMARK       I    between atoms: C34_36  and  C35_37 
ROOT
HETATM    1  C1  VFQ F5621     -34.146 128.262   6.985  1.00 20.77    -0.018 C 
HETATM    2  C2  VFQ F5621     -33.496 127.655   5.732  1.00 19.21     0.045 C 
HETATM    3  C3  VFQ F5621     -32.103 128.102   5.292  1.00 20.68     0.123 C 
HETATM    4  C4  VFQ F5621     -31.449 129.187   6.154  1.00 17.77     0.066 C 
HETATM    5  C5  VFQ F5621     -32.215 129.901   7.220  1.00 19.05    -0.074 C 
HETATM    6  C6  VFQ F5621     -33.472 129.510   7.641  1.00 19.48    -0.048 C 
HETATM    7  C7  VFQ F5621     -34.273 130.199   8.689  1.00 16.56     0.009 C 
HETATM    8  C8  VFQ F5621     -35.002 131.332   8.500  1.00 15.55     0.007 C 
HETATM    9  C9  VFQ F5621     -35.790 132.106   9.472  1.00 14.22    -0.062 C 
HETATM   10  C10 VFQ F5621     -36.535 133.131   9.001  1.00 14.29     0.007 C 
HETATM   11  C11 VFQ F5621     -37.444 133.962   9.752  1.00 14.32     0.001 C 
HETATM   12  C12 VFQ F5621     -38.226 134.898   9.162  1.00 14.19     0.007 C 
HETATM   13  C13 VFQ F5621     -39.271 135.748   9.794  1.00 15.26    -0.062 C 
HETATM   14  C14 VFQ F5621     -39.970 136.591   9.001  1.00 15.45     0.007 C 
HETATM   15  C15 VFQ F5621     -41.059 137.455   9.389  1.00 16.70     0.001 C 
HETATM   16  C16 VFQ F5621     -34.169 127.086   7.993  1.00 20.67     0.020 C 
HETATM   17  C17 VFQ F5621     -35.606 128.576   6.594  1.00 19.98     0.020 C 
HETATM   18  C18 VFQ F5621     -31.396 131.045   7.710  1.00 17.40     0.044 C 
HETATM   19  C19 VFQ F5621     -35.777 131.656  10.899  1.00 13.40     0.048 C 
HETATM   20  C20 VFQ F5621     -39.512 135.590  11.268  1.00 11.87     0.048 C 
HETATM   21  O3  VFQ F5621     -31.237 126.978   5.162  1.00 20.33    -0.395 OA
ATOM     22  H3  VFQ F5621     -30.371 127.256   4.888  1.00  0.00     0.210 HD
HETATM   23  C21 VFQ F5621     -50.681 146.331  10.336  1.00 27.99    -0.018 C 
HETATM   24  C22 VFQ F5621     -51.768 146.778  11.323  1.00 27.99     0.045 C 
HETATM   25  C23 VFQ F5621     -51.414 146.628  12.797  1.00 27.99     0.123 C 
HETATM   26  C24 VFQ F5621     -50.696 145.306  12.989  1.00 27.99     0.066 C 
HETATM   27  C25 VFQ F5621     -49.392 145.448  12.261  1.00 27.99    -0.074 C 
HETATM   28  C26 VFQ F5621     -49.404 145.796  10.968  1.00 27.99    -0.048 C 
HETATM   29  C27 VFQ F5621     -48.284 145.471  10.056  1.00 27.99     0.009 C 
HETATM   30  C28 VFQ F5621     -47.663 144.295  10.221  1.00 27.99     0.007 C 
HETATM   31  C29 VFQ F5621     -46.693 143.786   9.188  1.00 22.13    -0.062 C 
HETATM   32  C30 VFQ F5621     -46.082 142.611   9.454  1.00 22.11     0.007 C 
HETATM   33  C31 VFQ F5621     -45.123 141.934   8.608  1.00 21.40     0.001 C 
HETATM   34  C32 VFQ F5621     -44.417 140.862   9.033  1.00 17.66     0.007 C 
HETATM   35  C33 VFQ F5621     -43.379 140.102   8.321  1.00 16.53    -0.062 C 
HETATM   36  C34 VFQ F5621     -42.737 139.131   9.008  1.00 14.90     0.007 C 
HETATM   37  C35 VFQ F5621     -41.663 138.299   8.543  1.00 15.48     0.001 C 
HETATM   38  C36 VFQ F5621     -50.400 147.484   9.376  1.00 27.99     0.020 C 
HETATM   39  C37 VFQ F5621     -51.225 145.128   9.564  1.00 27.99     0.020 C 
HETATM   40  C38 VFQ F5621     -48.124 145.325  13.061  1.00 27.99     0.044 C 
HETATM   41  C39 VFQ F5621     -46.403 144.614   7.975  1.00 22.70     0.048 C 
HETATM   42  C40 VFQ F5621     -43.054 140.507   6.912  1.00 12.92     0.048 C 
HETATM   43  O23 VFQ F5621     -52.600 146.672  13.600  1.00 27.99    -0.395 OA
ATOM     44  H23 VFQ F5621     -52.379 146.578  14.520  1.00  0.00     0.210 HD
ENDROOT
TORSDOF 12
BEGIN_RES PHE A  61
REMARK  2 active torsions:
REMARK  status: ('A' for Active; 'I' for Inactive)
REMARK    1  A    between atoms: CA   and  CB  
REMARK    2  A    between atoms: CB   and  CG  
ROOT
ATOM      1  CA  PHE A  61     -36.237 128.293  12.768  1.00 39.40     0.164 C 
ENDROOT
BRANCH   1   2
ATOM      2  CB  PHE A  61     -36.813 128.951  11.509  1.00 39.41     0.058 C 
BRANCH   2   3
ATOM      3  CG  PHE A  61     -37.024 128.005  10.351  1.00 39.01    -0.020 A 
ATOM      4  CD2 PHE A  61     -36.271 126.847  10.232  1.00 40.32    -0.004 A 
ATOM      5  CE2 PHE A  61     -36.464 125.979   9.165  1.00 40.20    -0.000 A 
ATOM      6  CZ  PHE A  61     -37.413 126.257   8.207  1.00 40.34    -0.000 A 
ATOM      7  CE1 PHE A  61     -38.171 127.402   8.312  1.00 41.51    -0.000 A 
ATOM      8  CD1 PHE A  61     -37.974 128.273   9.376  1.00 39.94    -0.004 A 
ENDBRANCH   2   3
ENDBRANCH   1   2
END_RES PHE A  61
BEGIN_RES VAL A 134
REMARK  1 active torsions:
REMARK  status: ('A' for Active; 'I' for Inactive)
REMARK    3  A    between atoms: CA   and  CB  
ROOT
ATOM      9  CA  VAL A 134     -29.766 132.051   9.815  1.00 40.75     0.159 C 
ENDROOT
BRANCH   9  10
ATOM     10  CB  VAL A 134     -30.864 132.765   9.009  1.00 40.76     0.029 C 
ATOM     11  CG1 VAL A 134     -32.106 132.976   9.862  1.00 41.76     0.002 C 
ATOM     12  CG2 VAL A 134     -30.371 134.085   8.436  1.00 40.56     0.002 C 
ENDBRANCH   9  10
END_RES VAL A 134
BEGIN_RES TYR A 338
REMARK  3 active torsions:
REMARK  status: ('A' for Active; 'I' for Inactive)
REMARK    4  A    between atoms: CA   and  CB  
REMARK    5  A    between atoms: CB   and  CG  
REMARK    6  A    between atoms: CZ   and  OH  
ROOT
ATOM     13  CA  TYR A 338     -41.631 124.950   6.058  1.00 38.23     0.164 C 
ENDROOT
BRANCH  13  14
ATOM     14  CB  TYR A 338     -41.621 126.456   6.339  1.00 39.15     0.058 C 
BRANCH  14  15
ATOM     15  CG  TYR A 338     -40.421 127.213   5.818  1.00 39.03    -0.020 A 
ATOM     16  CD2 TYR A 338     -40.264 128.559   6.101  1.00 40.65    -0.002 A 
ATOM     17  CE2 TYR A 338     -39.184 129.287   5.627  1.00 40.91     0.024 A 
ATOM     18  CZ  TYR A 338     -38.227 128.667   4.847  1.00 42.33     0.089 A 
ATOM     19  CE1 TYR A 338     -38.359 127.321   4.554  1.00 40.63     0.024 A 
ATOM     20  CD1 TYR A 338     -39.454 126.613   5.027  1.00 39.27    -0.002 A 
BRANCH  18  21
ATOM     21  OH  TYR A 338     -37.156 129.374   4.377  1.00 43.36    -0.359 OA
ATOM     22  HH  TYR A 338     -36.371 128.923   4.090  1.00  0.00     0.217 HD
ENDBRANCH  18  21
ENDBRANCH  14  15
ENDBRANCH  13  14
END_RES TYR A 338
ENDMDL
MODEL 2
REMARK VINA RESULT:    -9.666      2.354     17.082
REMARK INTER + INTRA:         -10.054
REMARK INTER:                  -8.113
REMARK INTRA:                  -1.942
REMARK UNBOUND:                -0.389
REMARK  0 active torsions:
REMARK  status: ('A' for Active; 'I' for Inactive)
REMARK       I    between atoms: C3_3  and  O3_21 
REMARK       I    between atoms: C6_6  and  C7_7 
REMARK       I    between atoms: C8_8  and  C9_9 
REMARK       I    between atoms: C10_10  and  C11_11 
REMARK       I    between atoms: C12_12  and  C13_13 
REMARK       I    between atoms: C14_14  and  C15_15 
REMARK       I    between atoms: C23_25  and  O23_43 
REMARK       I    between atoms: C26_28  and  C27_29 
REMARK       I    between atoms: C28_30  and  C29_31 
REMARK       I    between atoms: C30_32  and  C31_33 
REMARK       I    between atoms: C32_34  and  C33_35 
REMARK       I    between atoms: C34_36  and  C35_37 
ROOT
HETATM    1  C1  VFQ F5621     -46.982 148.501   9.912  1.00 20.77    -0.018 C 
HETATM    2  C2  VFQ F5621     -48.478 148.853   9.863  1.00 19.21     0.045 C 
HETATM    3  C3  VFQ F5621     -49.297 148.921  11.149  1.00 20.68     0.123 C 
HETATM    4  C4  VFQ F5621     -48.539 148.591  12.440  1.00 17.77     0.066 C 
HETATM    5  C5  VFQ F5621     -47.152 148.035  12.407  1.00 19.05    -0.074 C 
HETATM    6  C6  VFQ F5621     -46.388 147.972  11.257  1.00 19.48    -0.048 C 
HETATM    7  C7  VFQ F5621     -45.009 147.417  11.179  1.00 16.56     0.009 C 
HETATM    8  C8  VFQ F5621     -44.700 146.094  11.115  1.00 15.55     0.007 C 
HETATM    9  C9  VFQ F5621     -43.379 145.447  11.075  1.00 14.22    -0.062 C 
HETATM   10  C10 VFQ F5621     -43.342 144.109  10.880  1.00 14.29     0.007 C 
HETATM   11  C11 VFQ F5621     -42.167 143.287  10.720  1.00 14.32     0.001 C 
HETATM   12  C12 VFQ F5621     -42.242 141.967  10.422  1.00 14.19     0.007 C 
HETATM   13  C13 VFQ F5621     -41.124 141.029  10.133  1.00 15.26    -0.062 C 
HETATM   14  C14 VFQ F5621     -41.432 139.753   9.811  1.00 15.45     0.007 C 
HETATM   15  C15 VFQ F5621     -40.517 138.700   9.439  1.00 16.70     0.001 C 
HETATM   16  C16 VFQ F5621     -46.281 149.823   9.511  1.00 20.67     0.020 C 
HETATM   17  C17 VFQ F5621     -46.750 147.481   8.777  1.00 19.98     0.020 C 
HETATM   18  C18 VFQ F5621     -46.782 147.598  13.782  1.00 17.40     0.044 C 
HETATM   19  C19 VFQ F5621     -42.168 146.322  11.169  1.00 13.40     0.048 C 
HETATM   20  C20 VFQ F5621     -39.723 141.569  10.177  1.00 11.87     0.048 C 
HETATM   21  O3  VFQ F5621     -49.946 150.184  11.260  1.00 20.33    -0.395 OA
ATOM     22  H3  VFQ F5621     -50.456 150.227  12.061  1.00  0.00     0.210 HD
HETATM   23  C21 VFQ F5621     -34.459 127.507   6.237  1.00 27.99    -0.018 C 
HETATM   24  C22 VFQ F5621     -33.079 127.010   5.783  1.00 27.99     0.045 C 
HETATM   25  C23 VFQ F5621     -31.892 127.797   6.325  1.00 27.99     0.123 C 
HETATM   26  C24 VFQ F5621     -32.231 129.274   6.283  1.00 27.99     0.066 C 
HETATM   27  C25 VFQ F5621     -33.340 129.460   7.276  1.00 27.99    -0.074 C 
HETATM   28  C26 VFQ F5621     -34.448 128.717   7.159  1.00 27.99    -0.048 C 
HETATM   29  C27 VFQ F5621     -35.748 129.150   7.719  1.00 27.99     0.009 C 
HETATM   30  C28 VFQ F5621     -36.049 130.455   7.666  1.00 27.99     0.007 C 
HETATM   31  C29 VFQ F5621     -37.441 130.937   7.979  1.00 22.13    -0.062 C 
HETATM   32  C30 VFQ F5621     -37.645 132.272   7.941  1.00 22.11     0.007 C 
HETATM   33  C31 VFQ F5621     -38.894 132.954   8.202  1.00 21.40     0.001 C 
HETATM   34  C32 VFQ F5621     -38.969 134.298   8.328  1.00 17.66     0.007 C 
HETATM   35  C33 VFQ F5621     -40.141 135.130   8.641  1.00 16.53    -0.062 C 
HETATM   36  C34 VFQ F5621     -39.934 136.452   8.825  1.00 14.90     0.007 C 
HETATM   37  C35 VFQ F5621     -40.907 137.445   9.186  1.00 15.48     0.001 C 
HETATM   38  C36 VFQ F5621     -35.215 126.331   6.850  1.00 27.99     0.020 C 
HETATM   39  C37 VFQ F5621     -35.198 128.014   4.997  1.00 27.99     0.020 C 
HETATM   40  C38 VFQ F5621     -33.094 130.380   8.440  1.00 27.99     0.044 C 
HETATM   41  C39 VFQ F5621     -38.493 129.950   8.378  1.00 22.70     0.048 C 
HETATM   42  C40 VFQ F5621     -41.465 134.443   8.808  1.00 12.92     0.048 C 
HETATM   43  O23 VFQ F5621     -30.721 127.532   5.542  1.00 27.99    -0.395 OA
ATOM     44  H23 VFQ F5621     -29.981 128.023   5.879  1.00  0.00     0.210 HD
ENDROOT
TORSDOF 12
BEGIN_RES PHE A  61
REMARK  2 active torsions:
REMARK  status: ('A' for Active; 'I' for Inactive)
REMARK    1  A    between atoms: CA   and  CB  
REMARK    2  A    between atoms: CB   and  CG  
ROOT
ATOM      1  CA  PHE A  61     -36.237 128.293  12.768  1.00 39.40     0.164 C 
ENDROOT
BRANCH   1   2
ATOM      2  CB  PHE A  61     -36.813 128.951  11.509  1.00 39.41     0.058 C 
BRANCH   2   3
ATOM      3  CG  PHE A  61     -36.478 130.416  11.362  1.00 39.01    -0.020 A 
ATOM      4  CD2 PHE A  61     -37.429 131.392  11.611  1.00 40.32    -0.004 A 
ATOM      5  CE2 PHE A  61     -37.120 132.740  11.472  1.00 40.20    -0.000 A 
ATOM      6  CZ  PHE A  61     -35.857 133.126  11.086  1.00 40.34    -0.000 A 
ATOM      7  CE1 PHE A  61     -34.900 132.168  10.836  1.00 41.51    -0.000 A 
ATOM      8  CD1 PHE A  61     -35.210 130.820  10.968  1.00 39.94    -0.004 A 
ENDBRANCH   2   3
ENDBRANCH   1   2
END_RES PHE A  61
BEGIN_RES VAL A 134
REMARK  1 active torsions:
REMARK  status: ('A' for Active; 'I' for Inactive)
REMARK    3  A    between atoms: CA   and  CB  
ROOT
ATOM      9  CA  VAL A 134     -29.766 132.051   9.815  1.00 40.75     0.159 C 
ENDROOT
BRANCH   9  10
ATOM     10  CB  VAL A 134     -30.864 132.765   9.009  1.00 40.76     0.029 C 
ATOM     11  CG1 VAL A 134     -30.992 132.159   7.619  1.00 41.76     0.002 C 
ATOM     12  CG2 VAL A 134     -32.200 132.739   9.735  1.00 40.56     0.002 C 
ENDBRANCH   9  10
END_RES VAL A 134
BEGIN_RES TYR A 338
REMARK  3 active torsions:
REMARK  status: ('A' for Active; 'I' for Inactive)
REMARK    4  A    between atoms: CA   and  CB  
REMARK    5  A    between atoms: CB   and  CG  
REMARK    6  A    between atoms: CZ   and  OH  
ROOT
ATOM     13  CA  TYR A 338     -41.631 124.950   6.058  1.00 38.23     0.164 C 
ENDROOT
BRANCH  13  14
ATOM     14  CB  TYR A 338     -41.621 126.456   6.339  1.00 39.15     0.058 C 
BRANCH  14  15
ATOM     15  CG  TYR A 338     -40.414 127.210   5.831  1.00 39.03    -0.020 A 
ATOM     16  CD2 TYR A 338     -40.293 128.571   6.053  1.00 40.65    -0.002 A 
ATOM     17  CE2 TYR A 338     -39.208 129.297   5.588  1.00 40.91     0.024 A 
ATOM     18  CZ  TYR A 338     -38.208 128.659   4.880  1.00 42.33     0.089 A 
ATOM     19  CE1 TYR A 338     -38.303 127.298   4.650  1.00 40.63     0.024 A 
ATOM     20  CD1 TYR A 338     -39.403 126.592   5.111  1.00 39.27    -0.002 A 
BRANCH  18  21
ATOM     21  OH  TYR A 338     -37.130 129.364   4.421  1.00 43.36    -0.359 OA
ATOM     22  HH  TYR A 338     -36.796 130.104   4.913  1.00  0.00     0.217 HD
ENDBRANCH  18  21
ENDBRANCH  14  15
ENDBRANCH  13  14
END_RES TYR A 338
ENDMDL
MODEL 3
REMARK VINA RESULT:    -8.576      0.919      1.262
REMARK INTER + INTRA:          -8.965
REMARK INTER:                  -7.347
REMARK INTRA:                  -1.618
REMARK UNBOUND:                -0.389
REMARK  0 active torsions:
REMARK  status: ('A' for Active; 'I' for Inactive)
REMARK       I    between atoms: C3_3  and  O3_21 
REMARK       I    between atoms: C6_6  and  C7_7 
REMARK       I    between atoms: C8_8  and  C9_9 
REMARK       I    between atoms: C10_10  and  C11_11 
REMARK       I    between atoms: C12_12  and  C13_13 
REMARK       I    between atoms: C14_14  and  C15_15 
REMARK       I    between atoms: C23_25  and  O23_43 
REMARK       I    between atoms: C26_28  and  C27_29 
REMARK       I    between atoms: C28_30  and  C29_31 
REMARK       I    between atoms: C30_32  and  C31_33 
REMARK       I    between atoms: C32_34  and  C33_35 
REMARK       I    between atoms: C34_36  and  C35_37 
ROOT
HETATM    1  C1  VFQ F5621     -34.596 127.489   6.606  1.00 20.77    -0.018 C 
HETATM    2  C2  VFQ F5621     -34.132 126.799   5.313  1.00 19.21     0.045 C 
HETATM    3  C3  VFQ F5621     -32.773 127.134   4.704  1.00 20.68     0.123 C 
HETATM    4  C4  VFQ F5621     -31.955 128.198   5.445  1.00 17.77     0.066 C 
HETATM    5  C5  VFQ F5621     -32.547 128.997   6.561  1.00 19.05    -0.074 C 
HETATM    6  C6  VFQ F5621     -33.771 128.707   7.134  1.00 19.48    -0.048 C 
HETATM    7  C7  VFQ F5621     -34.401 129.483   8.237  1.00 16.56     0.009 C 
HETATM    8  C8  VFQ F5621     -35.071 130.656   8.086  1.00 15.55     0.007 C 
HETATM    9  C9  VFQ F5621     -35.691 131.514   9.109  1.00 14.22    -0.062 C 
HETATM   10  C10 VFQ F5621     -36.416 132.573   8.684  1.00 14.29     0.007 C 
HETATM   11  C11 VFQ F5621     -37.177 133.488   9.499  1.00 14.32     0.001 C 
HETATM   12  C12 VFQ F5621     -37.958 134.457   8.963  1.00 14.19     0.007 C 
HETATM   13  C13 VFQ F5621     -38.867 135.397   9.674  1.00 15.26    -0.062 C 
HETATM   14  C14 VFQ F5621     -39.595 136.261   8.931  1.00 15.45     0.007 C 
HETATM   15  C15 VFQ F5621     -40.574 137.211   9.404  1.00 16.70     0.001 C 
HETATM   16  C16 VFQ F5621     -34.581 126.349   7.655  1.00 20.67     0.020 C 
HETATM   17  C17 VFQ F5621     -36.067 127.891   6.368  1.00 19.98     0.020 C 
HETATM   18  C18 VFQ F5621     -31.605 130.095   6.912  1.00 17.40     0.044 C 
HETATM   19  C19 VFQ F5621     -35.545 131.109  10.543  1.00 13.40     0.048 C 
HETATM   20  C20 VFQ F5621     -38.949 135.302  11.170  1.00 11.87     0.048 C 
HETATM   21  O3  VFQ F5621     -32.003 125.949   4.522  1.00 20.33    -0.395 OA
ATOM     22  H3  VFQ F5621     -31.157 126.157   4.143  1.00  0.00     0.210 HD
HETATM   23  C21 VFQ F5621     -49.422 146.759  11.070  1.00 27.99    -0.018 C 
HETATM   24  C22 VFQ F5621     -50.359 147.312  12.154  1.00 27.99     0.045 C 
HETATM   25  C23 VFQ F5621     -49.850 147.183  13.584  1.00 27.99     0.123 C 
HETATM   26  C24 VFQ F5621     -49.203 145.821  13.746  1.00 27.99     0.066 C 
HETATM   27  C25 VFQ F5621     -47.984 145.849  12.872  1.00 27.99    -0.074 C 
HETATM   28  C26 VFQ F5621     -48.120 146.156  11.576  1.00 27.99    -0.048 C 
HETATM   29  C27 VFQ F5621     -47.135 145.726  10.559  1.00 27.99     0.009 C 
HETATM   30  C28 VFQ F5621     -46.578 144.516  10.699  1.00 27.99     0.007 C 
HETATM   31  C29 VFQ F5621     -45.767 143.908   9.585  1.00 22.13    -0.062 C 
HETATM   32  C30 VFQ F5621     -45.207 142.703   9.827  1.00 22.11     0.007 C 
HETATM   33  C31 VFQ F5621     -44.397 141.935   8.907  1.00 21.40     0.001 C 
HETATM   34  C32 VFQ F5621     -43.720 140.830   9.292  1.00 17.66     0.007 C 
HETATM   35  C33 VFQ F5621     -42.821 139.978   8.499  1.00 16.53    -0.062 C 
HETATM   36  C34 VFQ F5621     -42.171 138.987   9.147  1.00 14.90     0.007 C 
HETATM   37  C35 VFQ F5621     -41.212 138.067   8.598  1.00 15.48     0.001 C 
HETATM   38  C36 VFQ F5621     -49.177 147.859  10.040  1.00 27.99     0.020 C 
HETATM   39  C37 VFQ F5621     -50.128 145.573  10.410  1.00 27.99     0.020 C 
HETATM   40  C38 VFQ F5621     -46.644 145.663  13.530  1.00 27.99     0.044 C 
HETATM   41  C39 VFQ F5621     -45.563 144.675   8.316  1.00 22.70     0.048 C 
HETATM   42  C40 VFQ F5621     -42.632 140.315   7.048  1.00 12.92     0.048 C 
HETATM   43  O23 VFQ F5621     -50.932 147.335  14.512  1.00 27.99    -0.395 OA
ATOM     44  H23 VFQ F5621     -50.615 147.254  15.404  1.00  0.00     0.210 HD
ENDROOT
TORSDOF 12
BEGIN_RES PHE A  61
REMARK  2 active torsions:
REMARK  status: ('A' for Active; 'I' for Inactive)
REMARK    1  A    between atoms: CA   and  CB  
REMARK    2  A    between atoms: CB   and  CG  
ROOT
ATOM      1  CA  PHE A  61     -36.237 128.293  12.768  1.00 39.40     0.164 C 
ENDROOT
BRANCH   1   2
ATOM      2  CB  PHE A  61     -36.813 128.951  11.509  1.00 39.41     0.058 C 
BRANCH   2   3
ATOM      3  CG  PHE A  61     -37.104 127.991  10.381  1.00 39.01    -0.020 A 
ATOM      4  CD2 PHE A  61     -38.039 128.301   9.405  1.00 40.32    -0.004 A 
ATOM      5  CE2 PHE A  61     -38.308 127.415   8.369  1.00 40.20    -0.000 A 
ATOM      6  CZ  PHE A  61     -37.644 126.212   8.295  1.00 40.34    -0.000 A 
ATOM      7  CE1 PHE A  61     -36.711 125.890   9.255  1.00 41.51    -0.000 A 
ATOM      8  CD1 PHE A  61     -36.446 126.772  10.295  1.00 39.94    -0.004 A 
ENDBRANCH   2   3
ENDBRANCH   1   2
END_RES PHE A  61
BEGIN_RES VAL A 134
REMARK  1 active torsions:
REMARK  status: ('A' for Active; 'I' for Inactive)
REMARK    3  A    between atoms: CA   and  CB  
ROOT
ATOM      9  CA  VAL A 134     -29.766 132.051   9.815  1.00 40.75     0.159 C 
ENDROOT
BRANCH   9  10
ATOM     10  CB  VAL A 134     -30.864 132.765   9.009  1.00 40.76     0.029 C 
ATOM     11  CG1 VAL A 134     -30.848 132.310   7.557  1.00 41.76     0.002 C 
ATOM     12  CG2 VAL A 134     -32.239 132.556   9.626  1.00 40.56     0.002 C 
ENDBRANCH   9  10
END_RES VAL A 134
BEGIN_RES TYR A 338
REMARK  3 active torsions:
REMARK  status: ('A' for Active; 'I' for Inactive)
REMARK    4  A    between atoms: CA   and  CB  
REMARK    5  A    between atoms: CB   and  CG  
REMARK    6  A    between atoms: CZ   and  OH  
ROOT
ATOM     13  CA  TYR A 338     -41.631 124.950   6.058  1.00 38.23     0.164 C 
ENDROOT
BRANCH  13  14
ATOM     14  CB  TYR A 338     -41.621 126.456   6.339  1.00 39.15     0.058 C 
BRANCH  14  15
ATOM     15  CG  TYR A 338     -40.431 127.216   5.799  1.00 39.03    -0.020 A 
ATOM     16  CD2 TYR A 338     -40.274 128.563   6.080  1.00 40.65    -0.002 A 
ATOM     17  CE2 TYR A 338     -39.204 129.295   5.589  1.00 40.91     0.024 A 
ATOM     18  CZ  TYR A 338     -38.258 128.677   4.793  1.00 42.33     0.089 A 
ATOM     19  CE1 TYR A 338     -38.391 127.331   4.502  1.00 40.63     0.024 A 
ATOM     20  CD1 TYR A 338     -39.475 126.620   4.992  1.00 39.27    -0.002 A 
BRANCH  18  21
ATOM     21  OH  TYR A 338     -37.196 129.388   4.307  1.00 43.36    -0.359 OA
ATOM     22  HH  TYR A 338     -36.501 128.948   3.831  1.00  0.00     0.217 HD
ENDBRANCH  18  21
ENDBRANCH  14  15
ENDBRANCH  13  14
END_RES TYR A 338
ENDMDL
