MODEL 1
REMARK VINA RESULT:    -9.727      0.000      0.000
REMARK INTER + INTRA:         -12.951
REMARK INTER:                  -9.727
REMARK INTRA:                  -3.224
REMARK UNBOUND:                -3.224
REMARK  0 active torsions:
REMARK  status: ('A' for Active; 'I' for Inactive)
REMARK       I    between atoms: C3_3  and  O3_21 
REMARK       I    between atoms: C6_6  and  C7_7 
REMARK       I    between atoms: C8_8  and  C9_9 
REMARK       I    between atoms: C10_10  and  C11_11 
REMARK       I    between atoms: C12_12  and  C13_13 
REMARK       I    between atoms: C14_14  and  C15_15 
REMARK       I    between atoms: C23_25  and  O23_43 
REMARK       I    between atoms: C26_28  and  C27_29 
REMARK       I    between atoms: C28_30  and  C29_31 
REMARK       I    between atoms: C30_32  and  C31_33 
REMARK       I    between atoms: C32_34  and  C33_35 
REMARK       I    between atoms: C34_36  and  C35_37 
ROOT
HETATM    1  C1  VFQ N1621     -34.343 127.012   6.302  1.00 51.88    -0.018 C 
HETATM    2  C2  VFQ N1621     -33.941 126.442   4.949  1.00 51.88     0.045 C 
HETATM    3  C3  VFQ N1621     -32.773 127.102   4.251  1.00 51.88     0.123 C 
HETATM    4  C4  VFQ N1621     -31.697 127.434   5.257  1.00 51.88     0.066 C 
HETATM    5  C5  VFQ N1621     -32.261 128.361   6.291  1.00 51.88    -0.074 C 
HETATM    6  C6  VFQ N1621     -33.460 128.129   6.829  1.00 51.88    -0.048 C 
HETATM    7  C7  VFQ N1621     -33.993 128.933   7.960  1.00 51.88     0.009 C 
HETATM    8  C8  VFQ N1621     -34.606 130.104   7.776  1.00 51.88     0.007 C 
HETATM    9  C9  VFQ N1621     -35.190 130.909   8.857  1.00 51.88    -0.062 C 
HETATM   10  C10 VFQ N1621     -36.091 131.808   8.462  1.00 51.88     0.007 C 
HETATM   11  C11 VFQ N1621     -36.855 132.706   9.312  1.00 51.88     0.001 C 
HETATM   12  C12 VFQ N1621     -37.708 133.482   8.657  1.00 51.88     0.007 C 
HETATM   13  C13 VFQ N1621     -38.612 134.419   9.336  1.00 51.88    -0.062 C 
HETATM   14  C14 VFQ N1621     -39.421 135.181   8.590  1.00 51.88     0.007 C 
HETATM   15  C15 VFQ N1621     -40.370 136.104   9.200  1.00 51.88     0.001 C 
HETATM   16  C16 VFQ N1621     -34.418 125.855   7.285  1.00 51.88     0.020 C 
HETATM   17  C17 VFQ N1621     -35.737 127.575   6.153  1.00 51.88     0.020 C 
HETATM   18  C18 VFQ N1621     -31.290 129.346   6.865  1.00 51.88     0.044 C 
HETATM   19  C19 VFQ N1621     -34.809 130.725  10.292  1.00 51.88     0.048 C 
HETATM   20  C20 VFQ N1621     -38.645 134.472  10.832  1.00 51.88     0.048 C 
HETATM   21  O3  VFQ N1621     -32.224 126.182   3.303  1.00 51.88    -0.395 OA
ATOM     22  H3  VFQ N1621     -31.490 126.597   2.864  1.00  0.00     0.210 HD
HETATM   23  C21 VFQ N1621     -49.931 144.723  10.267  1.00 23.41    -0.018 C 
HETATM   24  C22 VFQ N1621     -50.908 145.374  11.263  1.00 23.79     0.045 C 
HETATM   25  C23 VFQ N1621     -50.405 146.372  12.301  1.00 23.28     0.123 C 
HETATM   26  C24 VFQ N1621     -48.894 146.288  12.573  1.00 23.70     0.066 C 
HETATM   27  C25 VFQ N1621     -47.970 145.630  11.589  1.00 23.84    -0.074 C 
HETATM   28  C26 VFQ N1621     -48.402 144.890  10.506  1.00 22.99    -0.048 C 
HETATM   29  C27 VFQ N1621     -47.509 144.222   9.522  1.00 20.55     0.009 C 
HETATM   30  C28 VFQ N1621     -46.907 143.029   9.715  1.00 19.35     0.007 C 
HETATM   31  C29 VFQ N1621     -45.991 142.341   8.848  1.00 51.88    -0.062 C 
HETATM   32  C30 VFQ N1621     -45.582 141.113   9.186  1.00 51.88     0.007 C 
HETATM   33  C31 VFQ N1621     -44.660 140.299   8.403  1.00 51.88     0.001 C 
HETATM   34  C32 VFQ N1621     -43.836 139.497   9.075  1.00 51.88     0.007 C 
HETATM   35  C33 VFQ N1621     -42.869 138.629   8.389  1.00 51.88    -0.062 C 
HETATM   36  C34 VFQ N1621     -42.054 137.825   9.091  1.00 51.88     0.007 C 
HETATM   37  C35 VFQ N1621     -41.091 136.934   8.450  1.00 51.88     0.001 C 
HETATM   38  C36 VFQ N1621     -50.299 145.228   8.865  1.00 23.73     0.020 C 
HETATM   39  C37 VFQ N1621     -50.334 143.248  10.360  1.00 23.42     0.020 C 
HETATM   40  C38 VFQ N1621     -46.564 145.922  11.969  1.00 22.78     0.044 C 
HETATM   41  C39 VFQ N1621     -45.525 143.020   7.597  1.00 51.88     0.048 C 
HETATM   42  C40 VFQ N1621     -42.819 138.661   6.903  1.00 51.88     0.048 C 
HETATM   43  O23 VFQ N1621     -51.139 146.233  13.510  1.00 21.52    -0.395 OA
ATOM     44  H23 VFQ N1621     -50.826 146.855  14.157  1.00  0.00     0.210 HD
ENDROOT
TORSDOF 12
BEGIN_RES PHE A  61
REMARK  2 active torsions:
REMARK  status: ('A' for Active; 'I' for Inactive)
REMARK    1  A    between atoms: CA   and  CB  
REMARK    2  A    between atoms: CB   and  CG  
ROOT
ATOM      1  CA  PHE A  61     -36.237 128.293  12.768  1.00 39.40     0.164 C 
ENDROOT
BRANCH   1   2
ATOM      2  CB  PHE A  61     -36.813 128.951  11.509  1.00 39.41     0.058 C 
BRANCH   2   3
ATOM      3  CG  PHE A  61     -37.028 128.004  10.353  1.00 39.01    -0.020 A 
ATOM      4  CD2 PHE A  61     -36.279 126.844  10.234  1.00 40.32    -0.004 A 
ATOM      5  CE2 PHE A  61     -36.475 125.975   9.168  1.00 40.20    -0.000 A 
ATOM      6  CZ  PHE A  61     -37.425 126.254   8.211  1.00 40.34    -0.000 A 
ATOM      7  CE1 PHE A  61     -38.179 127.402   8.316  1.00 41.51    -0.000 A 
ATOM      8  CD1 PHE A  61     -37.978 128.274   9.378  1.00 39.94    -0.004 A 
ENDBRANCH   2   3
ENDBRANCH   1   2
END_RES PHE A  61
BEGIN_RES VAL A 134
REMARK  1 active torsions:
REMARK  status: ('A' for Active; 'I' for Inactive)
REMARK    3  A    between atoms: CA   and  CB  
ROOT
ATOM      9  CA  VAL A 134     -29.766 132.051   9.815  1.00 40.75     0.159 C 
ENDROOT
BRANCH   9  10
ATOM     10  CB  VAL A 134     -30.864 132.765   9.009  1.00 40.76     0.029 C 
ATOM     11  CG1 VAL A 134     -31.178 132.000   7.732  1.00 41.76     0.002 C 
ATOM     12  CG2 VAL A 134     -32.123 132.973   9.837  1.00 40.56     0.002 C 
ENDBRANCH   9  10
END_RES VAL A 134
BEGIN_RES TYR A 338
REMARK  3 active torsions:
REMARK  status: ('A' for Active; 'I' for Inactive)
REMARK    4  A    between atoms: CA   and  CB  
REMARK    5  A    between atoms: CB   and  CG  
REMARK    6  A    between atoms: CZ   and  OH  
ROOT
ATOM     13  CA  TYR A 338     -41.631 124.950   6.058  1.00 38.23     0.164 C 
ENDROOT
BRANCH  13  14
ATOM     14  CB  TYR A 338     -41.621 126.456   6.339  1.00 39.15     0.058 C 
BRANCH  14  15
ATOM     15  CG  TYR A 338     -40.423 127.214   5.814  1.00 39.03    -0.020 A 
ATOM     16  CD2 TYR A 338     -40.251 128.553   6.121  1.00 40.65    -0.002 A 
ATOM     17  CE2 TYR A 338     -39.173 129.282   5.643  1.00 40.91     0.024 A 
ATOM     18  CZ  TYR A 338     -38.234 128.670   4.835  1.00 42.33     0.089 A 
ATOM     19  CE1 TYR A 338     -38.382 127.331   4.518  1.00 40.63     0.024 A 
ATOM     20  CD1 TYR A 338     -39.474 126.622   4.995  1.00 39.27    -0.002 A 
BRANCH  18  21
ATOM     21  OH  TYR A 338     -37.165 129.378   4.363  1.00 43.36    -0.359 OA
ATOM     22  HH  TYR A 338     -36.724 129.108   3.565  1.00  0.00     0.217 HD
ENDBRANCH  18  21
ENDBRANCH  14  15
ENDBRANCH  13  14
END_RES TYR A 338
ENDMDL
MODEL 2
REMARK VINA RESULT:    -9.230      1.823     16.814
REMARK INTER + INTRA:         -12.454
REMARK INTER:                 -10.762
REMARK INTRA:                  -1.692
REMARK UNBOUND:                -3.224
REMARK  0 active torsions:
REMARK  status: ('A' for Active; 'I' for Inactive)
REMARK       I    between atoms: C3_3  and  O3_21 
REMARK       I    between atoms: C6_6  and  C7_7 
REMARK       I    between atoms: C8_8  and  C9_9 
REMARK       I    between atoms: C10_10  and  C11_11 
REMARK       I    between atoms: C12_12  and  C13_13 
REMARK       I    between atoms: C14_14  and  C15_15 
REMARK       I    between atoms: C23_25  and  O23_43 
REMARK       I    between atoms: C26_28  and  C27_29 
REMARK       I    between atoms: C28_30  and  C29_31 
REMARK       I    between atoms: C30_32  and  C31_33 
REMARK       I    between atoms: C32_34  and  C33_35 
REMARK       I    between atoms: C34_36  and  C35_37 
ROOT
HETATM    1  C1  VFQ N1621     -47.742 145.889  13.034  1.00 51.88    -0.018 C 
HETATM    2  C2  VFQ N1621     -48.419 146.115  14.379  1.00 51.88     0.045 C 
HETATM    3  C3  VFQ N1621     -47.610 146.835  15.436  1.00 51.88     0.123 C 
HETATM    4  C4  VFQ N1621     -46.835 147.966  14.804  1.00 51.88     0.066 C 
HETATM    5  C5  VFQ N1621     -45.919 147.409  13.756  1.00 51.88    -0.074 C 
HETATM    6  C6  VFQ N1621     -46.358 146.495  12.889  1.00 51.88    -0.048 C 
HETATM    7  C7  VFQ N1621     -45.534 146.024  11.744  1.00 51.88     0.009 C 
HETATM    8  C8  VFQ N1621     -44.617 145.063  11.872  1.00 51.88     0.007 C 
HETATM    9  C9  VFQ N1621     -43.815 144.535  10.761  1.00 51.88    -0.062 C 
HETATM   10  C10 VFQ N1621     -43.268 143.340  10.984  1.00 51.88     0.007 C 
HETATM   11  C11 VFQ N1621     -42.465 142.564  10.054  1.00 51.88     0.001 C 
HETATM   12  C12 VFQ N1621     -42.069 141.389  10.525  1.00 51.88     0.007 C 
HETATM   13  C13 VFQ N1621     -41.297 140.431   9.725  1.00 51.88    -0.062 C 
HETATM   14  C14 VFQ N1621     -40.919 139.279  10.294  1.00 51.88     0.007 C 
HETATM   15  C15 VFQ N1621     -40.184 138.268   9.545  1.00 51.88     0.001 C 
HETATM   16  C16 VFQ N1621     -48.685 146.396  11.954  1.00 51.88     0.020 C 
HETATM   17  C17 VFQ N1621     -47.601 144.396  12.851  1.00 51.88     0.020 C 
HETATM   18  C18 VFQ N1621     -44.628 148.146  13.576  1.00 51.88     0.044 C 
HETATM   19  C19 VFQ N1621     -43.634 145.278   9.474  1.00 51.88     0.048 C 
HETATM   20  C20 VFQ N1621     -40.989 140.734   8.291  1.00 51.88     0.048 C 
HETATM   21  O3  VFQ N1621     -48.508 147.396  16.398  1.00 51.88    -0.395 OA
ATOM     22  H3  VFQ N1621     -48.000 147.849  17.061  1.00  0.00     0.210 HD
HETATM   23  C21 VFQ N1621     -34.324 127.092   6.788  1.00 23.41    -0.018 C 
HETATM   24  C22 VFQ N1621     -33.787 126.226   5.634  1.00 23.79     0.045 C 
HETATM   25  C23 VFQ N1621     -32.523 126.634   4.883  1.00 23.28     0.123 C 
HETATM   26  C24 VFQ N1621     -32.158 128.121   5.029  1.00 23.70     0.066 C 
HETATM   27  C25 VFQ N1621     -32.715 128.943   6.157  1.00 23.84    -0.074 C 
HETATM   28  C26 VFQ N1621     -33.723 128.512   6.997  1.00 22.99    -0.048 C 
HETATM   29  C27 VFQ N1621     -34.297 129.308   8.113  1.00 20.55     0.009 C 
HETATM   30  C28 VFQ N1621     -35.237 130.268   7.972  1.00 19.35     0.007 C 
HETATM   31  C29 VFQ N1621     -35.804 131.119   8.981  1.00 51.88    -0.062 C 
HETATM   32  C30 VFQ N1621     -36.802 131.943   8.644  1.00 51.88     0.007 C 
HETATM   33  C31 VFQ N1621     -37.471 132.857   9.561  1.00 51.88     0.001 C 
HETATM   34  C32 VFQ N1621     -37.896 134.016   9.062  1.00 51.88     0.007 C 
HETATM   35  C33 VFQ N1621     -38.588 135.011   9.894  1.00 51.88    -0.062 C 
HETATM   36  C34 VFQ N1621     -39.011 136.169   9.364  1.00 51.88     0.007 C 
HETATM   37  C35 VFQ N1621     -39.718 137.177  10.150  1.00 51.88     0.001 C 
HETATM   38  C36 VFQ N1621     -34.191 126.272   8.079  1.00 23.73     0.020 C 
HETATM   39  C37 VFQ N1621     -35.813 127.182   6.436  1.00 23.42     0.020 C 
HETATM   40  C38 VFQ N1621     -32.002 130.245   6.209  1.00 22.78     0.044 C 
HETATM   41  C39 VFQ N1621     -35.260 131.054  10.375  1.00 51.88     0.048 C 
HETATM   42  C40 VFQ N1621     -38.808 134.700  11.332  1.00 51.88     0.048 C 
HETATM   43  O23 VFQ N1621     -32.633 126.280   3.511  1.00 21.52    -0.395 OA
ATOM     44  H23 VFQ N1621     -31.846 126.534   3.043  1.00  0.00     0.210 HD
ENDROOT
TORSDOF 12
BEGIN_RES PHE A  61
REMARK  2 active torsions:
REMARK  status: ('A' for Active; 'I' for Inactive)
REMARK    1  A    between atoms: CA   and  CB  
REMARK    2  A    between atoms: CB   and  CG  
ROOT
ATOM      1  CA  PHE A  61     -36.237 128.293  12.768  1.00 39.40     0.164 C 
ENDROOT
BRANCH   1   2
ATOM      2  CB  PHE A  61     -36.813 128.951  11.509  1.00 39.41     0.058 C 
BRANCH   2   3
ATOM      3  CG  PHE A  61     -37.115 127.989  10.385  1.00 39.01    -0.020 A 
ATOM      4  CD2 PHE A  61     -36.472 126.764  10.304  1.00 40.32    -0.004 A 
ATOM      5  CE2 PHE A  61     -36.748 125.882   9.267  1.00 40.20    -0.000 A 
ATOM      6  CZ  PHE A  61     -37.674 126.212   8.303  1.00 40.34    -0.000 A 
ATOM      7  CE1 PHE A  61     -38.323 127.424   8.371  1.00 41.51    -0.000 A 
ATOM      8  CD1 PHE A  61     -38.042 128.310   9.403  1.00 39.94    -0.004 A 
ENDBRANCH   2   3
ENDBRANCH   1   2
END_RES PHE A  61
BEGIN_RES VAL A 134
REMARK  1 active torsions:
REMARK  status: ('A' for Active; 'I' for Inactive)
REMARK    3  A    between atoms: CA   and  CB  
ROOT
ATOM      9  CA  VAL A 134     -29.766 132.051   9.815  1.00 40.75     0.159 C 
ENDROOT
BRANCH   9  10
ATOM     10  CB  VAL A 134     -30.864 132.765   9.009  1.00 40.76     0.029 C 
ATOM     11  CG1 VAL A 134     -30.852 132.305   7.559  1.00 41.76     0.002 C 
ATOM     12  CG2 VAL A 134     -32.238 132.562   9.629  1.00 40.56     0.002 C 
ENDBRANCH   9  10
END_RES VAL A 134
BEGIN_RES TYR A 338
REMARK  3 active torsions:
REMARK  status: ('A' for Active; 'I' for Inactive)
REMARK    4  A    between atoms: CA   and  CB  
REMARK    5  A    between atoms: CB   and  CG  
REMARK    6  A    between atoms: CZ   and  OH  
ROOT
ATOM     13  CA  TYR A 338     -41.631 124.950   6.058  1.00 38.23     0.164 C 
ENDROOT
BRANCH  13  14
ATOM     14  CB  TYR A 338     -41.621 126.456   6.339  1.00 39.15     0.058 C 
BRANCH  14  15
ATOM     15  CG  TYR A 338     -40.418 127.212   5.822  1.00 39.03    -0.020 A 
ATOM     16  CD2 TYR A 338     -40.246 128.550   6.131  1.00 40.65    -0.002 A 
ATOM     17  CE2 TYR A 338     -39.164 129.278   5.662  1.00 40.91     0.024 A 
ATOM     18  CZ  TYR A 338     -38.221 128.665   4.859  1.00 42.33     0.089 A 
ATOM     19  CE1 TYR A 338     -38.368 127.327   4.540  1.00 40.63     0.024 A 
ATOM     20  CD1 TYR A 338     -39.465 126.619   5.009  1.00 39.27    -0.002 A 
BRANCH  18  21
ATOM     21  OH  TYR A 338     -37.147 129.372   4.394  1.00 43.36    -0.359 OA
ATOM     22  HH  TYR A 338     -36.401 129.539   4.958  1.00  0.00     0.217 HD
ENDBRANCH  18  21
ENDBRANCH  14  15
ENDBRANCH  13  14
END_RES TYR A 338
ENDMDL
MODEL 3
REMARK VINA RESULT:    -8.892      1.518     16.870
REMARK INTER + INTRA:         -12.116
REMARK INTER:                 -11.968
REMARK INTRA:                  -0.148
REMARK UNBOUND:                -3.224
REMARK  0 active torsions:
REMARK  status: ('A' for Active; 'I' for Inactive)
REMARK       I    between atoms: C3_3  and  O3_21 
REMARK       I    between atoms: C6_6  and  C7_7 
REMARK       I    between atoms: C8_8  and  C9_9 
REMARK       I    between atoms: C10_10  and  C11_11 
REMARK       I    between atoms: C12_12  and  C13_13 
REMARK       I    between atoms: C14_14  and  C15_15 
REMARK       I    between atoms: C23_25  and  O23_43 
REMARK       I    between atoms: C26_28  and  C27_29 
REMARK       I    between atoms: C28_30  and  C29_31 
REMARK       I    between atoms: C30_32  and  C31_33 
REMARK       I    between atoms: C32_34  and  C33_35 
REMARK       I    between atoms: C34_36  and  C35_37 
ROOT
HETATM    1  C1  VFQ N1621     -49.169 145.850  12.128  1.00 51.88    -0.018 C 
HETATM    2  C2  VFQ N1621     -50.029 145.995  13.376  1.00 51.88     0.045 C 
HETATM    3  C3  VFQ N1621     -49.410 146.722  14.550  1.00 51.88     0.123 C 
HETATM    4  C4  VFQ N1621     -48.623 147.912  14.057  1.00 51.88     0.066 C 
HETATM    5  C5  VFQ N1621     -47.547 147.439  13.127  1.00 51.88    -0.074 C 
HETATM    6  C6  VFQ N1621     -47.814 146.532  12.185  1.00 51.88    -0.048 C 
HETATM    7  C7  VFQ N1621     -46.821 146.145  11.149  1.00 51.88     0.009 C 
HETATM    8  C8  VFQ N1621     -45.875 145.230  11.374  1.00 51.88     0.007 C 
HETATM    9  C9  VFQ N1621     -44.904 144.783  10.367  1.00 51.88    -0.062 C 
HETATM   10  C10 VFQ N1621     -44.325 143.611  10.631  1.00 51.88     0.007 C 
HETATM   11  C11 VFQ N1621     -43.363 142.910   9.797  1.00 51.88     0.001 C 
HETATM   12  C12 VFQ N1621     -42.966 141.742  10.287  1.00 51.88     0.007 C 
HETATM   13  C13 VFQ N1621     -42.042 140.854   9.572  1.00 51.88    -0.062 C 
HETATM   14  C14 VFQ N1621     -41.677 139.706  10.158  1.00 51.88     0.007 C 
HETATM   15  C15 VFQ N1621     -40.794 138.760   9.488  1.00 51.88     0.001 C 
HETATM   16  C16 VFQ N1621     -49.987 146.342  10.945  1.00 51.88     0.020 C 
HETATM   17  C17 VFQ N1621     -48.920 144.373  11.928  1.00 51.88     0.020 C 
HETATM   18  C18 VFQ N1621     -46.288 148.250  13.140  1.00 51.88     0.044 C 
HETATM   19  C19 VFQ N1621     -44.598 145.576   9.136  1.00 51.88     0.048 C 
HETATM   20  C20 VFQ N1621     -41.565 141.220   8.202  1.00 51.88     0.048 C 
HETATM   21  O3  VFQ N1621     -50.457 147.202  15.397  1.00 51.88    -0.395 OA
ATOM     22  H3  VFQ N1621     -50.068 147.659  16.134  1.00  0.00     0.210 HD
HETATM   23  C21 VFQ N1621     -33.994 128.008   7.253  1.00 23.41    -0.018 C 
HETATM   24  C22 VFQ N1621     -33.260 127.210   6.160  1.00 23.79     0.045 C 
HETATM   25  C23 VFQ N1621     -31.933 127.710   5.596  1.00 23.28     0.123 C 
HETATM   26  C24 VFQ N1621     -31.676 129.208   5.828  1.00 23.70     0.066 C 
HETATM   27  C25 VFQ N1621     -32.423 129.962   6.891  1.00 23.84    -0.074 C 
HETATM   28  C26 VFQ N1621     -33.507 129.450   7.577  1.00 22.99    -0.048 C 
HETATM   29  C27 VFQ N1621     -34.269 130.178   8.627  1.00 20.55     0.009 C 
HETATM   30  C28 VFQ N1621     -35.235 131.090   8.386  1.00 19.35     0.007 C 
HETATM   31  C29 VFQ N1621     -35.977 131.876   9.332  1.00 51.88    -0.062 C 
HETATM   32  C30 VFQ N1621     -36.967 132.657   8.885  1.00 51.88     0.007 C 
HETATM   33  C31 VFQ N1621     -37.803 133.503   9.728  1.00 51.88     0.001 C 
HETATM   34  C32 VFQ N1621     -38.223 134.654   9.207  1.00 51.88     0.007 C 
HETATM   35  C33 VFQ N1621     -39.075 135.583   9.964  1.00 51.88    -0.062 C 
HETATM   36  C34 VFQ N1621     -39.490 136.733   9.412  1.00 51.88     0.007 C 
HETATM   37  C35 VFQ N1621     -40.351 137.676  10.122  1.00 51.88     0.001 C 
HETATM   38  C36 VFQ N1621     -33.986 127.154   8.529  1.00 23.73     0.020 C 
HETATM   39  C37 VFQ N1621     -35.425 128.031   6.708  1.00 23.42     0.020 C 
HETATM   40  C38 VFQ N1621     -31.799 131.297   7.073  1.00 22.78     0.044 C 
HETATM   41  C39 VFQ N1621     -35.620 131.794  10.783  1.00 51.88     0.048 C 
HETATM   42  C40 VFQ N1621     -39.465 135.213  11.351  1.00 51.88     0.048 C 
HETATM   43  O23 VFQ N1621     -31.840 127.396   4.213  1.00 21.52    -0.395 OA
ATOM     44  H23 VFQ N1621     -31.014 127.707   3.861  1.00  0.00     0.210 HD
ENDROOT
TORSDOF 12
BEGIN_RES PHE A  61
REMARK  2 active torsions:
REMARK  status: ('A' for Active; 'I' for Inactive)
REMARK    1  A    between atoms: CA   and  CB  
REMARK    2  A    between atoms: CB   and  CG  
ROOT
ATOM      1  CA  PHE A  61     -36.237 128.293  12.768  1.00 39.40     0.164 C 
ENDROOT
BRANCH   1   2
ATOM      2  CB  PHE A  61     -36.813 128.951  11.509  1.00 39.41     0.058 C 
BRANCH   2   3
ATOM      3  CG  PHE A  61     -37.050 128.000  10.360  1.00 39.01    -0.020 A 
ATOM      4  CD2 PHE A  61     -36.336 126.816  10.258  1.00 40.32    -0.004 A 
ATOM      5  CE2 PHE A  61     -36.553 125.943   9.199  1.00 40.20    -0.000 A 
ATOM      6  CZ  PHE A  61     -37.486 126.242   8.233  1.00 40.34    -0.000 A 
ATOM      7  CE1 PHE A  61     -38.205 127.414   8.321  1.00 41.51    -0.000 A 
ATOM      8  CD1 PHE A  61     -37.984 128.290   9.377  1.00 39.94    -0.004 A 
ENDBRANCH   2   3
ENDBRANCH   1   2
END_RES PHE A  61
BEGIN_RES VAL A 134
REMARK  1 active torsions:
REMARK  status: ('A' for Active; 'I' for Inactive)
REMARK    3  A    between atoms: CA   and  CB  
ROOT
ATOM      9  CA  VAL A 134     -29.766 132.051   9.815  1.00 40.75     0.159 C 
ENDROOT
BRANCH   9  10
ATOM     10  CB  VAL A 134     -30.864 132.765   9.009  1.00 40.76     0.029 C 
ATOM     11  CG1 VAL A 134     -32.120 132.941   9.849  1.00 41.76     0.002 C 
ATOM     12  CG2 VAL A 134     -30.383 134.103   8.469  1.00 40.56     0.002 C 
ENDBRANCH   9  10
END_RES VAL A 134
BEGIN_RES TYR A 338
REMARK  3 active torsions:
REMARK  status: ('A' for Active; 'I' for Inactive)
REMARK    4  A    between atoms: CA   and  CB  
REMARK    5  A    between atoms: CB   and  CG  
REMARK    6  A    between atoms: CZ   and  OH  
ROOT
ATOM     13  CA  TYR A 338     -41.631 124.950   6.058  1.00 38.23     0.164 C 
ENDROOT
BRANCH  13  14
ATOM     14  CB  TYR A 338     -41.621 126.456   6.339  1.00 39.15     0.058 C 
BRANCH  14  15
ATOM     15  CG  TYR A 338     -40.413 127.210   5.832  1.00 39.03    -0.020 A 
ATOM     16  CD2 TYR A 338     -40.255 128.555   6.120  1.00 40.65    -0.002 A 
ATOM     17  CE2 TYR A 338     -39.168 129.281   5.658  1.00 40.91     0.024 A 
ATOM     18  CZ  TYR A 338     -38.206 128.660   4.884  1.00 42.33     0.089 A 
ATOM     19  CE1 TYR A 338     -38.340 127.315   4.586  1.00 40.63     0.024 A 
ATOM     20  CD1 TYR A 338     -39.441 126.610   5.047  1.00 39.27    -0.002 A 
BRANCH  18  21
ATOM     21  OH  TYR A 338     -37.128 129.365   4.427  1.00 43.36    -0.359 OA
ATOM     22  HH  TYR A 338     -36.341 129.434   4.954  1.00  0.00     0.217 HD
ENDBRANCH  18  21
ENDBRANCH  14  15
ENDBRANCH  13  14
END_RES TYR A 338
ENDMDL
