MODEL 1
REMARK VINA RESULT:    -7.675      0.000      0.000
REMARK INTER + INTRA:         -10.696
REMARK INTER:                  -7.675
REMARK INTRA:                  -3.020
REMARK UNBOUND:                -3.020
REMARK  0 active torsions:
REMARK  status: ('A' for Active; 'I' for Inactive)
REMARK       I    between atoms: C3_3  and  O3_21 
REMARK       I    between atoms: C6_6  and  C7_7 
REMARK       I    between atoms: C8_8  and  C9_9 
REMARK       I    between atoms: C10_10  and  C11_11 
REMARK       I    between atoms: C12_12  and  C13_13 
REMARK       I    between atoms: C14_14  and  C15_15 
REMARK       I    between atoms: C23_25  and  O23_43 
REMARK       I    between atoms: C26_28  and  C27_29 
REMARK       I    between atoms: C28_30  and  C29_31 
REMARK       I    between atoms: C30_32  and  C31_33 
REMARK       I    between atoms: C32_34  and  C33_35 
REMARK       I    between atoms: C34_36  and  C35_37 
ROOT
HETATM    1  C1  VFQ E4620     -34.489 126.899   6.085  1.00 19.12    -0.018 C 
HETATM    2  C2  VFQ E4620     -33.889 126.098   4.911  1.00 18.29     0.045 C 
HETATM    3  C3  VFQ E4620     -32.854 126.802   4.033  1.00 18.54     0.123 C 
HETATM    4  C4  VFQ E4620     -31.898 127.695   4.825  1.00 18.55     0.066 C 
HETATM    5  C5  VFQ E4620     -32.456 128.476   5.970  1.00 18.97    -0.074 C 
HETATM    6  C6  VFQ E4620     -33.655 128.128   6.575  1.00 18.68    -0.048 C 
HETATM    7  C7  VFQ E4620     -34.203 128.878   7.716  1.00 18.46     0.009 C 
HETATM    8  C8  VFQ E4620     -34.832 130.058   7.702  1.00 18.89     0.007 C 
HETATM    9  C9  VFQ E4620     -35.257 130.859   8.852  1.00 19.10    -0.062 C 
HETATM   10  C10 VFQ E4620     -35.976 131.976   8.603  1.00 18.99     0.007 C 
HETATM   11  C11 VFQ E4620     -36.511 132.893   9.562  1.00 18.78     0.001 C 
HETATM   12  C12 VFQ E4620     -37.360 133.834   9.143  1.00 19.28     0.007 C 
HETATM   13  C13 VFQ E4620     -38.076 134.830   9.940  1.00 21.25    -0.062 C 
HETATM   14  C14 VFQ E4620     -38.973 135.608   9.294  1.00 20.64     0.007 C 
HETATM   15  C15 VFQ E4620     -39.852 136.585   9.864  1.00 21.49     0.001 C 
HETATM   16  C16 VFQ E4620     -34.634 125.860   7.209  1.00 19.29     0.020 C 
HETATM   17  C17 VFQ E4620     -35.907 127.345   5.684  1.00 16.00     0.020 C 
HETATM   18  C18 VFQ E4620     -31.485 129.570   6.265  1.00 17.87     0.044 C 
HETATM   19  C19 VFQ E4620     -34.915 130.356  10.229  1.00 17.60     0.048 C 
HETATM   20  C20 VFQ E4620     -37.822 134.865  11.422  1.00 16.75     0.048 C 
HETATM   21  O3  VFQ E4620     -32.118 125.850   3.276  1.00 19.42    -0.395 OA
ATOM     22  H3  VFQ E4620     -31.474 126.287   2.731  1.00  0.00     0.210 HD
HETATM   23  C21 VFQ E4620     -49.444 144.386  12.720  1.00 93.31    -0.018 C 
HETATM   24  C22 VFQ E4620     -50.083 145.236  13.818  1.00 93.93     0.045 C 
HETATM   25  C23 VFQ E4620     -49.481 146.620  14.022  1.00 93.98     0.123 C 
HETATM   26  C24 VFQ E4620     -47.968 146.512  14.114  1.00 93.16     0.066 C 
HETATM   27  C25 VFQ E4620     -47.435 145.876  12.858  1.00 92.19    -0.074 C 
HETATM   28  C26 VFQ E4620     -48.080 144.869  12.260  1.00 91.50    -0.048 C 
HETATM   29  C27 VFQ E4620     -47.457 144.197  11.094  1.00 98.60     0.009 C 
HETATM   30  C28 VFQ E4620     -46.548 143.230  11.238  1.00 95.09     0.007 C 
HETATM   31  C29 VFQ E4620     -45.905 142.536  10.061  1.00 25.99    -0.062 C 
HETATM   32  C30 VFQ E4620     -44.998 141.576  10.336  1.00 24.86     0.007 C 
HETATM   33  C31 VFQ E4620     -44.287 140.765   9.385  1.00 24.61     0.001 C 
HETATM   34  C32 VFQ E4620     -43.360 139.872   9.792  1.00 23.19     0.007 C 
HETATM   35  C33 VFQ E4620     -42.514 138.978   8.991  1.00 22.76    -0.062 C 
HETATM   36  C34 VFQ E4620     -41.629 138.199   9.650  1.00 21.16     0.007 C 
HETATM   37  C35 VFQ E4620     -40.703 137.259   9.091  1.00 21.72     0.001 C 
HETATM   38  C36 VFQ E4620     -50.365 144.403  11.505  1.00 93.81     0.020 C 
HETATM   39  C37 VFQ E4620     -49.318 142.955  13.229  1.00 92.50     0.020 C 
HETATM   40  C38 VFQ E4620     -46.160 146.421  12.281  1.00 91.81     0.044 C 
HETATM   41  C39 VFQ E4620     -46.283 142.942   8.664  1.00 26.11     0.048 C 
HETATM   42  C40 VFQ E4620     -42.672 139.011   7.493  1.00 21.07     0.048 C 
HETATM   43  O23 VFQ E4620     -49.985 147.184  15.239  1.00 94.06    -0.395 OA
ATOM     44  H23 VFQ E4620     -49.609 148.047  15.366  1.00  0.00     0.210 HD
ENDROOT
TORSDOF 12
BEGIN_RES PHE A  61
REMARK  2 active torsions:
REMARK  status: ('A' for Active; 'I' for Inactive)
REMARK    1  A    between atoms: CA   and  CB  
REMARK    2  A    between atoms: CB   and  CG  
ROOT
ATOM      1  CA  PHE A  61     -36.237 128.293  12.768  1.00 39.40     0.164 C 
ENDROOT
BRANCH   1   2
ATOM      2  CB  PHE A  61     -36.813 128.951  11.509  1.00 39.41     0.058 C 
BRANCH   2   3
ATOM      3  CG  PHE A  61     -37.033 128.003  10.355  1.00 39.01    -0.020 A 
ATOM      4  CD2 PHE A  61     -36.285 126.842  10.234  1.00 40.32    -0.004 A 
ATOM      5  CE2 PHE A  61     -36.487 125.973   9.169  1.00 40.20    -0.000 A 
ATOM      6  CZ  PHE A  61     -37.440 126.251   8.217  1.00 40.34    -0.000 A 
ATOM      7  CE1 PHE A  61     -38.193 127.399   8.323  1.00 41.51    -0.000 A 
ATOM      8  CD1 PHE A  61     -37.988 128.272   9.384  1.00 39.94    -0.004 A 
ENDBRANCH   2   3
ENDBRANCH   1   2
END_RES PHE A  61
BEGIN_RES VAL A 134
REMARK  1 active torsions:
REMARK  status: ('A' for Active; 'I' for Inactive)
REMARK    3  A    between atoms: CA   and  CB  
ROOT
ATOM      9  CA  VAL A 134     -29.766 132.051   9.815  1.00 40.75     0.159 C 
ENDROOT
BRANCH   9  10
ATOM     10  CB  VAL A 134     -30.864 132.765   9.009  1.00 40.76     0.029 C 
ATOM     11  CG1 VAL A 134     -31.174 132.002   7.729  1.00 41.76     0.002 C 
ATOM     12  CG2 VAL A 134     -32.124 132.969   9.836  1.00 40.56     0.002 C 
ENDBRANCH   9  10
END_RES VAL A 134
BEGIN_RES TYR A 338
REMARK  3 active torsions:
REMARK  status: ('A' for Active; 'I' for Inactive)
REMARK    4  A    between atoms: CA   and  CB  
REMARK    5  A    between atoms: CB   and  CG  
REMARK    6  A    between atoms: CZ   and  OH  
ROOT
ATOM     13  CA  TYR A 338     -41.631 124.950   6.058  1.00 38.23     0.164 C 
ENDROOT
BRANCH  13  14
ATOM     14  CB  TYR A 338     -41.621 126.456   6.339  1.00 39.15     0.058 C 
BRANCH  14  15
ATOM     15  CG  TYR A 338     -40.429 127.216   5.803  1.00 39.03    -0.020 A 
ATOM     16  CD2 TYR A 338     -40.247 128.550   6.123  1.00 40.65    -0.002 A 
ATOM     17  CE2 TYR A 338     -39.175 129.282   5.636  1.00 40.91     0.024 A 
ATOM     18  CZ  TYR A 338     -38.252 128.676   4.805  1.00 42.33     0.089 A 
ATOM     19  CE1 TYR A 338     -38.409 127.341   4.474  1.00 40.63     0.024 A 
ATOM     20  CD1 TYR A 338     -39.496 126.631   4.961  1.00 39.27    -0.002 A 
BRANCH  18  21
ATOM     21  OH  TYR A 338     -37.188 129.386   4.323  1.00 43.36    -0.359 OA
ATOM     22  HH  TYR A 338     -37.065 129.492   3.387  1.00  0.00     0.217 HD
ENDBRANCH  18  21
ENDBRANCH  14  15
ENDBRANCH  13  14
END_RES TYR A 338
ENDMDL
MODEL 2
REMARK VINA RESULT:    -7.177      1.393     16.915
REMARK INTER + INTRA:         -10.197
REMARK INTER:                  -9.776
REMARK INTRA:                  -0.421
REMARK UNBOUND:                -3.020
REMARK  0 active torsions:
REMARK  status: ('A' for Active; 'I' for Inactive)
REMARK       I    between atoms: C3_3  and  O3_21 
REMARK       I    between atoms: C6_6  and  C7_7 
REMARK       I    between atoms: C8_8  and  C9_9 
REMARK       I    between atoms: C10_10  and  C11_11 
REMARK       I    between atoms: C12_12  and  C13_13 
REMARK       I    between atoms: C14_14  and  C15_15 
REMARK       I    between atoms: C23_25  and  O23_43 
REMARK       I    between atoms: C26_28  and  C27_29 
REMARK       I    between atoms: C28_30  and  C29_31 
REMARK       I    between atoms: C30_32  and  C31_33 
REMARK       I    between atoms: C32_34  and  C33_35 
REMARK       I    between atoms: C34_36  and  C35_37 
ROOT
HETATM    1  C1  VFQ E4620     -50.660 145.055  10.748  1.00 19.12    -0.018 C 
HETATM    2  C2  VFQ E4620     -51.582 145.749  11.772  1.00 18.29     0.045 C 
HETATM    3  C3  VFQ E4620     -50.932 146.707  12.771  1.00 18.54     0.123 C 
HETATM    4  C4  VFQ E4620     -49.814 147.551  12.159  1.00 18.55     0.066 C 
HETATM    5  C5  VFQ E4620     -48.912 146.901  11.162  1.00 18.97    -0.074 C 
HETATM    6  C6  VFQ E4620     -49.279 145.744  10.491  1.00 18.68    -0.048 C 
HETATM    7  C7  VFQ E4620     -48.407 145.107   9.492  1.00 18.46     0.009 C 
HETATM    8  C8  VFQ E4620     -47.325 144.351   9.704  1.00 18.89     0.007 C 
HETATM    9  C9  VFQ E4620     -46.387 143.830   8.707  1.00 19.10    -0.062 C 
HETATM   10  C10 VFQ E4620     -45.418 142.994   9.138  1.00 18.99     0.007 C 
HETATM   11  C11 VFQ E4620     -44.412 142.353   8.347  1.00 18.78     0.001 C 
HETATM   12  C12 VFQ E4620     -43.658 141.408   8.914  1.00 19.28     0.007 C 
HETATM   13  C13 VFQ E4620     -42.625 140.579   8.294  1.00 21.25    -0.062 C 
HETATM   14  C14 VFQ E4620     -42.075 139.607   9.055  1.00 20.64     0.007 C 
HETATM   15  C15 VFQ E4620     -41.117 138.620   8.653  1.00 21.49     0.001 C 
HETATM   16  C16 VFQ E4620     -51.496 145.018   9.460  1.00 19.29     0.020 C 
HETATM   17  C17 VFQ E4620     -50.450 143.599  11.205  1.00 16.00     0.020 C 
HETATM   18  C18 VFQ E4620     -47.682 147.743  11.073  1.00 17.87     0.044 C 
HETATM   19  C19 VFQ E4620     -46.600 144.216   7.267  1.00 17.60     0.048 C 
HETATM   20  C20 VFQ E4620     -42.303 140.817   6.845  1.00 16.75     0.048 C 
HETATM   21  O3  VFQ E4620     -51.914 147.550  13.360  1.00 19.42    -0.395 OA
ATOM     22  H3  VFQ E4620     -51.510 148.145  13.981  1.00  0.00     0.210 HD
HETATM   23  C21 VFQ E4620     -34.048 128.199   7.089  1.00 93.31    -0.018 C 
HETATM   24  C22 VFQ E4620     -33.096 127.461   6.148  1.00 93.93     0.045 C 
HETATM   25  C23 VFQ E4620     -31.640 127.904   6.196  1.00 93.98     0.123 C 
HETATM   26  C24 VFQ E4620     -31.562 129.418   6.104  1.00 93.16     0.066 C 
HETATM   27  C25 VFQ E4620     -32.344 130.028   7.237  1.00 92.19    -0.074 C 
HETATM   28  C26 VFQ E4620     -33.506 129.504   7.642  1.00 91.50    -0.048 C 
HETATM   29  C27 VFQ E4620     -34.298 130.207   8.680  1.00 98.60     0.009 C 
HETATM   30  C28 VFQ E4620     -35.118 131.217   8.380  1.00 95.09     0.007 C 
HETATM   31  C29 VFQ E4620     -35.931 131.942   9.426  1.00 25.99    -0.062 C 
HETATM   32  C30 VFQ E4620     -36.722 132.948   8.998  1.00 24.86     0.007 C 
HETATM   33  C31 VFQ E4620     -37.603 133.752   9.802  1.00 24.61     0.001 C 
HETATM   34  C32 VFQ E4620     -38.302 134.769   9.256  1.00 23.19     0.007 C 
HETATM   35  C33 VFQ E4620     -39.223 135.715   9.899  1.00 22.76    -0.062 C 
HETATM   36  C34 VFQ E4620     -39.772 136.676   9.125  1.00 21.16     0.007 C 
HETATM   37  C35 VFQ E4620     -40.687 137.705   9.522  1.00 21.72     0.001 C 
HETATM   38  C36 VFQ E4620     -34.347 127.291   8.277  1.00 93.81     0.020 C 
HETATM   39  C37 VFQ E4620     -35.345 128.479   6.339  1.00 92.50     0.020 C 
HETATM   40  C38 VFQ E4620     -31.770 131.239   7.915  1.00 91.81     0.044 C 
HETATM   41  C39 VFQ E4620     -35.820 131.531  10.868  1.00 26.11     0.048 C 
HETATM   42  C40 VFQ E4620     -39.470 135.566  11.378  1.00 21.07     0.048 C 
HETATM   43  O23 VFQ E4620     -30.932 127.331   5.090  1.00 94.06    -0.395 OA
ATOM     44  H23 VFQ E4620     -30.023 127.607   5.120  1.00  0.00     0.210 HD
ENDROOT
TORSDOF 12
BEGIN_RES PHE A  61
REMARK  2 active torsions:
REMARK  status: ('A' for Active; 'I' for Inactive)
REMARK    1  A    between atoms: CA   and  CB  
REMARK    2  A    between atoms: CB   and  CG  
ROOT
ATOM      1  CA  PHE A  61     -36.237 128.293  12.768  1.00 39.40     0.164 C 
ENDROOT
BRANCH   1   2
ATOM      2  CB  PHE A  61     -36.813 128.951  11.509  1.00 39.41     0.058 C 
BRANCH   2   3
ATOM      3  CG  PHE A  61     -37.012 128.007  10.347  1.00 39.01    -0.020 A 
ATOM      4  CD2 PHE A  61     -36.293 126.825  10.259  1.00 40.32    -0.004 A 
ATOM      5  CE2 PHE A  61     -36.475 125.960   9.188  1.00 40.20    -0.000 A 
ATOM      6  CZ  PHE A  61     -37.379 126.264   8.195  1.00 40.34    -0.000 A 
ATOM      7  CE1 PHE A  61     -38.102 127.433   8.269  1.00 41.51    -0.000 A 
ATOM      8  CD1 PHE A  61     -37.916 128.302   9.337  1.00 39.94    -0.004 A 
ENDBRANCH   2   3
ENDBRANCH   1   2
END_RES PHE A  61
BEGIN_RES VAL A 134
REMARK  1 active torsions:
REMARK  status: ('A' for Active; 'I' for Inactive)
REMARK    3  A    between atoms: CA   and  CB  
ROOT
ATOM      9  CA  VAL A 134     -29.766 132.051   9.815  1.00 40.75     0.159 C 
ENDROOT
BRANCH   9  10
ATOM     10  CB  VAL A 134     -30.864 132.765   9.009  1.00 40.76     0.029 C 
ATOM     11  CG1 VAL A 134     -32.106 132.976   9.862  1.00 41.76     0.002 C 
ATOM     12  CG2 VAL A 134     -30.371 134.085   8.436  1.00 40.56     0.002 C 
ENDBRANCH   9  10
END_RES VAL A 134
BEGIN_RES TYR A 338
REMARK  3 active torsions:
REMARK  status: ('A' for Active; 'I' for Inactive)
REMARK    4  A    between atoms: CA   and  CB  
REMARK    5  A    between atoms: CB   and  CG  
REMARK    6  A    between atoms: CZ   and  OH  
ROOT
ATOM     13  CA  TYR A 338     -41.631 124.950   6.058  1.00 38.23     0.164 C 
ENDROOT
BRANCH  13  14
ATOM     14  CB  TYR A 338     -41.621 126.456   6.339  1.00 39.15     0.058 C 
BRANCH  14  15
ATOM     15  CG  TYR A 338     -40.418 127.212   5.822  1.00 39.03    -0.020 A 
ATOM     16  CD2 TYR A 338     -40.264 128.559   6.102  1.00 40.65    -0.002 A 
ATOM     17  CE2 TYR A 338     -39.182 129.287   5.632  1.00 40.91     0.024 A 
ATOM     18  CZ  TYR A 338     -38.221 128.664   4.858  1.00 42.33     0.089 A 
ATOM     19  CE1 TYR A 338     -38.350 127.317   4.569  1.00 40.63     0.024 A 
ATOM     20  CD1 TYR A 338     -39.447 126.610   5.038  1.00 39.27    -0.002 A 
BRANCH  18  21
ATOM     21  OH  TYR A 338     -37.147 129.371   4.393  1.00 43.36    -0.359 OA
ATOM     22  HH  TYR A 338     -37.181 130.319   4.343  1.00  0.00     0.217 HD
ENDBRANCH  18  21
ENDBRANCH  14  15
ENDBRANCH  13  14
END_RES TYR A 338
ENDMDL
MODEL 3
REMARK VINA RESULT:    -6.686      1.441      1.832
REMARK INTER + INTRA:          -9.707
REMARK INTER:                  -9.385
REMARK INTRA:                  -0.322
REMARK UNBOUND:                -3.020
REMARK  0 active torsions:
REMARK  status: ('A' for Active; 'I' for Inactive)
REMARK       I    between atoms: C3_3  and  O3_21 
REMARK       I    between atoms: C6_6  and  C7_7 
REMARK       I    between atoms: C8_8  and  C9_9 
REMARK       I    between atoms: C10_10  and  C11_11 
REMARK       I    between atoms: C12_12  and  C13_13 
REMARK       I    between atoms: C14_14  and  C15_15 
REMARK       I    between atoms: C23_25  and  O23_43 
REMARK       I    between atoms: C26_28  and  C27_29 
REMARK       I    between atoms: C28_30  and  C29_31 
REMARK       I    between atoms: C30_32  and  C31_33 
REMARK       I    between atoms: C32_34  and  C33_35 
REMARK       I    between atoms: C34_36  and  C35_37 
ROOT
HETATM    1  C1  VFQ E4620     -34.186 128.168   6.712  1.00 19.12    -0.018 C 
HETATM    2  C2  VFQ E4620     -33.234 127.476   5.715  1.00 18.29     0.045 C 
HETATM    3  C3  VFQ E4620     -31.979 128.241   5.290  1.00 18.54     0.123 C 
HETATM    4  C4  VFQ E4620     -31.336 129.028   6.432  1.00 18.55     0.066 C 
HETATM    5  C5  VFQ E4620     -32.239 129.702   7.413  1.00 18.97    -0.074 C 
HETATM    6  C6  VFQ E4620     -33.565 129.323   7.566  1.00 18.68    -0.048 C 
HETATM    7  C7  VFQ E4620     -34.456 129.966   8.542  1.00 18.46     0.009 C 
HETATM    8  C8  VFQ E4620     -35.060 131.156   8.449  1.00 18.89     0.007 C 
HETATM    9  C9  VFQ E4620     -35.839 131.847   9.479  1.00 19.10    -0.062 C 
HETATM   10  C10 VFQ E4620     -36.453 132.999   9.130  1.00 18.99     0.007 C 
HETATM   11  C11 VFQ E4620     -37.276 133.827   9.958  1.00 18.78     0.001 C 
HETATM   12  C12 VFQ E4620     -37.956 134.825   9.388  1.00 19.28     0.007 C 
HETATM   13  C13 VFQ E4620     -38.900 135.751  10.013  1.00 21.25    -0.062 C 
HETATM   14  C14 VFQ E4620     -39.552 136.611   9.198  1.00 20.64     0.007 C 
HETATM   15  C15 VFQ E4620     -40.577 137.545   9.555  1.00 21.49     0.001 C 
HETATM   16  C16 VFQ E4620     -34.671 127.025   7.618  1.00 19.29     0.020 C 
HETATM   17  C17 VFQ E4620     -35.406 128.685   5.927  1.00 16.00     0.020 C 
HETATM   18  C18 VFQ E4620     -31.424 130.739   8.113  1.00 17.87     0.044 C 
HETATM   19  C19 VFQ E4620     -35.950 131.201  10.835  1.00 17.60     0.048 C 
HETATM   20  C20 VFQ E4620     -39.133 135.632  11.494  1.00 16.75     0.048 C 
HETATM   21  O3  VFQ E4620     -31.030 127.353   4.714  1.00 19.42    -0.395 OA
ATOM     22  H3  VFQ E4620     -30.251 127.828   4.450  1.00  0.00     0.210 HD
HETATM   23  C21 VFQ E4620     -50.661 145.236   9.987  1.00 93.31    -0.018 C 
HETATM   24  C22 VFQ E4620     -51.626 145.986  10.906  1.00 93.93     0.045 C 
HETATM   25  C23 VFQ E4620     -51.135 147.328  11.431  1.00 93.98     0.123 C 
HETATM   26  C24 VFQ E4620     -49.731 147.177  11.989  1.00 93.16     0.066 C 
HETATM   27  C25 VFQ E4620     -48.817 146.659  10.910  1.00 92.19    -0.074 C 
HETATM   28  C26 VFQ E4620     -49.227 145.731  10.038  1.00 91.50    -0.048 C 
HETATM   29  C27 VFQ E4620     -48.257 145.166   9.070  1.00 98.60     0.009 C 
HETATM   30  C28 VFQ E4620     -47.431 144.169   9.396  1.00 95.09     0.007 C 
HETATM   31  C29 VFQ E4620     -46.439 143.583   8.421  1.00 25.99    -0.062 C 
HETATM   32  C30 VFQ E4620     -45.657 142.579   8.871  1.00 24.86     0.007 C 
HETATM   33  C31 VFQ E4620     -44.671 141.852   8.118  1.00 24.61     0.001 C 
HETATM   34  C32 VFQ E4620     -43.913 140.902   8.706  1.00 23.19     0.007 C 
HETATM   35  C33 VFQ E4620     -42.846 140.074   8.129  1.00 22.76    -0.062 C 
HETATM   36  C34 VFQ E4620     -42.210 139.213   8.952  1.00 21.16     0.007 C 
HETATM   37  C35 VFQ E4620     -41.144 138.312   8.625  1.00 21.72     0.001 C 
HETATM   38  C36 VFQ E4620     -51.146 145.395   8.550  1.00 93.81     0.020 C 
HETATM   39  C37 VFQ E4620     -50.689 143.759  10.360  1.00 92.50     0.020 C 
HETATM   40  C38 VFQ E4620     -47.431 147.230  10.829  1.00 91.81     0.044 C 
HETATM   41  C39 VFQ E4620     -46.355 144.135   7.025  1.00 26.11     0.048 C 
HETATM   42  C40 VFQ E4620     -42.517 140.261   6.670  1.00 21.07     0.048 C 
HETATM   43  O23 VFQ E4620     -52.008 147.778  12.475  1.00 94.06    -0.395 OA
ATOM     44  H23 VFQ E4620     -51.702 148.615  12.803  1.00  0.00     0.210 HD
ENDROOT
TORSDOF 12
BEGIN_RES PHE A  61
REMARK  2 active torsions:
REMARK  status: ('A' for Active; 'I' for Inactive)
REMARK    1  A    between atoms: CA   and  CB  
REMARK    2  A    between atoms: CB   and  CG  
ROOT
ATOM      1  CA  PHE A  61     -36.237 128.293  12.768  1.00 39.40     0.164 C 
ENDROOT
BRANCH   1   2
ATOM      2  CB  PHE A  61     -36.813 128.951  11.509  1.00 39.41     0.058 C 
BRANCH   2   3
ATOM      3  CG  PHE A  61     -37.011 128.008  10.347  1.00 39.01    -0.020 A 
ATOM      4  CD2 PHE A  61     -36.291 126.827  10.258  1.00 40.32    -0.004 A 
ATOM      5  CE2 PHE A  61     -36.471 125.961   9.187  1.00 40.20    -0.000 A 
ATOM      6  CZ  PHE A  61     -37.375 126.265   8.194  1.00 40.34    -0.000 A 
ATOM      7  CE1 PHE A  61     -38.100 127.433   8.268  1.00 41.51    -0.000 A 
ATOM      8  CD1 PHE A  61     -37.915 128.302   9.336  1.00 39.94    -0.004 A 
ENDBRANCH   2   3
ENDBRANCH   1   2
END_RES PHE A  61
BEGIN_RES VAL A 134
REMARK  1 active torsions:
REMARK  status: ('A' for Active; 'I' for Inactive)
REMARK    3  A    between atoms: CA   and  CB  
ROOT
ATOM      9  CA  VAL A 134     -29.766 132.051   9.815  1.00 40.75     0.159 C 
ENDROOT
BRANCH   9  10
ATOM     10  CB  VAL A 134     -30.864 132.765   9.009  1.00 40.76     0.029 C 
ATOM     11  CG1 VAL A 134     -32.109 132.970   9.860  1.00 41.76     0.002 C 
ATOM     12  CG2 VAL A 134     -30.373 134.088   8.442  1.00 40.56     0.002 C 
ENDBRANCH   9  10
END_RES VAL A 134
BEGIN_RES TYR A 338
REMARK  3 active torsions:
REMARK  status: ('A' for Active; 'I' for Inactive)
REMARK    4  A    between atoms: CA   and  CB  
REMARK    5  A    between atoms: CB   and  CG  
REMARK    6  A    between atoms: CZ   and  OH  
ROOT
ATOM     13  CA  TYR A 338     -41.631 124.950   6.058  1.00 38.23     0.164 C 
ENDROOT
BRANCH  13  14
ATOM     14  CB  TYR A 338     -41.621 126.456   6.339  1.00 39.15     0.058 C 
BRANCH  14  15
ATOM     15  CG  TYR A 338     -40.428 127.215   5.806  1.00 39.03    -0.020 A 
ATOM     16  CD2 TYR A 338     -40.270 128.561   6.088  1.00 40.65    -0.002 A 
ATOM     17  CE2 TYR A 338     -39.197 129.292   5.603  1.00 40.91     0.024 A 
ATOM     18  CZ  TYR A 338     -38.247 128.673   4.812  1.00 42.33     0.089 A 
ATOM     19  CE1 TYR A 338     -38.380 127.327   4.519  1.00 40.63     0.024 A 
ATOM     20  CD1 TYR A 338     -39.468 126.617   5.003  1.00 39.27    -0.002 A 
BRANCH  18  21
ATOM     21  OH  TYR A 338     -37.182 129.383   4.331  1.00 43.36    -0.359 OA
ATOM     22  HH  TYR A 338     -37.252 130.320   4.193  1.00  0.00     0.217 HD
ENDBRANCH  18  21
ENDBRANCH  14  15
ENDBRANCH  13  14
END_RES TYR A 338
ENDMDL
