MODEL 1
REMARK VINA RESULT:    -9.742      0.000      0.000
REMARK INTER + INTRA:         -12.010
REMARK INTER:                  -9.742
REMARK INTRA:                  -2.269
REMARK UNBOUND:                -2.269
REMARK  0 active torsions:
REMARK  status: ('A' for Active; 'I' for Inactive)
REMARK       I    between atoms: C3_3  and  O3_21 
REMARK       I    between atoms: C6_6  and  C7_7 
REMARK       I    between atoms: C8_8  and  C9_9 
REMARK       I    between atoms: C10_10  and  C11_11 
REMARK       I    between atoms: C12_12  and  C13_13 
REMARK       I    between atoms: C14_14  and  C15_15 
REMARK       I    between atoms: C23_25  and  O23_43 
REMARK       I    between atoms: C26_28  and  C27_29 
REMARK       I    between atoms: C28_30  and  C29_31 
REMARK       I    between atoms: C30_32  and  C31_33 
REMARK       I    between atoms: C32_34  and  C33_35 
REMARK       I    between atoms: C34_36  and  C35_37 
ROOT
HETATM    1  C1  VFQ I8620     -49.171 144.604  12.763  1.00 16.69    -0.018 C 
HETATM    2  C2  VFQ I8620     -49.674 145.397  13.979  1.00 15.88     0.045 C 
HETATM    3  C3  VFQ I8620     -48.784 146.492  14.550  1.00 15.19     0.123 C 
HETATM    4  C4  VFQ I8620     -47.899 147.198  13.518  1.00 16.30     0.066 C 
HETATM    5  C5  VFQ I8620     -47.365 146.391  12.378  1.00 15.97    -0.074 C 
HETATM    6  C6  VFQ I8620     -47.933 145.193  12.014  1.00 16.56    -0.048 C 
HETATM    7  C7  VFQ I8620     -47.383 144.411  10.905  1.00 18.44     0.009 C 
HETATM    8  C8  VFQ I8620     -46.285 143.637  10.945  1.00 18.42     0.007 C 
HETATM    9  C9  VFQ I8620     -45.670 142.961   9.815  1.00 20.59    -0.062 C 
HETATM   10  C10 VFQ I8620     -44.628 142.140  10.067  1.00 20.51     0.007 C 
HETATM   11  C11 VFQ I8620     -43.896 141.376   9.106  1.00 21.63     0.001 C 
HETATM   12  C12 VFQ I8620     -43.011 140.461   9.510  1.00 21.98     0.007 C 
HETATM   13  C13 VFQ I8620     -42.199 139.562   8.692  1.00 23.28    -0.062 C 
HETATM   14  C14 VFQ I8620     -41.462 138.637   9.347  1.00 23.72     0.007 C 
HETATM   15  C15 VFQ I8620     -40.650 137.594   8.788  1.00 25.53     0.001 C 
HETATM   16  C16 VFQ I8620     -50.390 144.564  11.823  1.00 15.77     0.020 C 
HETATM   17  C17 VFQ I8620     -48.901 143.162  13.233  1.00 17.40     0.020 C 
HETATM   18  C18 VFQ I8620     -46.196 147.111  11.804  1.00 16.04     0.044 C 
HETATM   19  C19 VFQ I8620     -46.271 143.184   8.451  1.00 19.43     0.048 C 
HETATM   20  C20 VFQ I8620     -42.297 139.682   7.194  1.00 18.80     0.048 C 
HETATM   21  O3  VFQ I8620     -49.570 147.441  15.242  1.00 16.64    -0.395 OA
ATOM     22  H3  VFQ I8620     -49.014 148.125  15.598  1.00  0.00     0.210 HD
HETATM   23  C21 VFQ I8620     -34.421 126.812   6.399  1.00 71.46    -0.018 C 
HETATM   24  C22 VFQ I8620     -33.841 126.031   5.232  1.00 75.98     0.045 C 
HETATM   25  C23 VFQ I8620     -32.460 126.416   4.749  1.00 84.37     0.123 C 
HETATM   26  C24 VFQ I8620     -32.331 127.908   4.625  1.00 79.68     0.066 C 
HETATM   27  C25 VFQ I8620     -32.678 128.554   5.931  1.00 81.86    -0.074 C 
HETATM   28  C26 VFQ I8620     -33.714 128.132   6.676  1.00 72.92    -0.048 C 
HETATM   29  C27 VFQ I8620     -34.168 128.946   7.828  1.00 76.42     0.009 C 
HETATM   30  C28 VFQ I8620     -35.007 129.966   7.666  1.00 69.46     0.007 C 
HETATM   31  C29 VFQ I8620     -35.495 130.820   8.791  1.00 33.65    -0.062 C 
HETATM   32  C30 VFQ I8620     -36.347 131.821   8.483  1.00 30.63     0.007 C 
HETATM   33  C31 VFQ I8620     -36.991 132.728   9.397  1.00 28.70     0.001 C 
HETATM   34  C32 VFQ I8620     -37.792 133.722   8.960  1.00 25.67     0.007 C 
HETATM   35  C33 VFQ I8620     -38.520 134.732   9.730  1.00 24.63    -0.062 C 
HETATM   36  C34 VFQ I8620     -39.230 135.654   9.046  1.00 23.98     0.007 C 
HETATM   37  C35 VFQ I8620     -40.007 136.734   9.586  1.00 25.49     0.001 C 
HETATM   38  C36 VFQ I8620     -34.330 125.952   7.649  1.00 75.59     0.020 C 
HETATM   39  C37 VFQ I8620     -35.900 126.978   6.082  1.00 74.59     0.020 C 
HETATM   40  C38 VFQ I8620     -31.780 129.676   6.353  1.00 90.73     0.044 C 
HETATM   41  C39 VFQ I8620     -35.015 130.524  10.189  1.00 33.66     0.048 C 
HETATM   42  C40 VFQ I8620     -38.413 134.689  11.220  1.00 25.13     0.048 C 
HETATM   43  O23 VFQ I8620     -32.264 125.851   3.453  1.00 94.57    -0.395 OA
ATOM     44  H23 VFQ I8620     -31.397 126.093   3.150  1.00  0.00     0.210 HD
ENDROOT
TORSDOF 12
BEGIN_RES PHE A  61
REMARK  2 active torsions:
REMARK  status: ('A' for Active; 'I' for Inactive)
REMARK    1  A    between atoms: CA   and  CB  
REMARK    2  A    between atoms: CB   and  CG  
ROOT
ATOM      1  CA  PHE A  61     -36.237 128.293  12.768  1.00 39.40     0.164 C 
ENDROOT
BRANCH   1   2
ATOM      2  CB  PHE A  61     -36.813 128.951  11.509  1.00 39.41     0.058 C 
BRANCH   2   3
ATOM      3  CG  PHE A  61     -37.083 127.994  10.373  1.00 39.01    -0.020 A 
ATOM      4  CD2 PHE A  61     -38.014 128.298   9.392  1.00 40.32    -0.004 A 
ATOM      5  CE2 PHE A  61     -38.263 127.415   8.349  1.00 40.20    -0.000 A 
ATOM      6  CZ  PHE A  61     -37.582 126.222   8.272  1.00 40.34    -0.000 A 
ATOM      7  CE1 PHE A  61     -36.652 125.906   9.237  1.00 41.51    -0.000 A 
ATOM      8  CD1 PHE A  61     -36.407 126.785  10.284  1.00 39.94    -0.004 A 
ENDBRANCH   2   3
ENDBRANCH   1   2
END_RES PHE A  61
BEGIN_RES VAL A 134
REMARK  1 active torsions:
REMARK  status: ('A' for Active; 'I' for Inactive)
REMARK    3  A    between atoms: CA   and  CB  
ROOT
ATOM      9  CA  VAL A 134     -29.766 132.051   9.815  1.00 40.75     0.159 C 
ENDROOT
BRANCH   9  10
ATOM     10  CB  VAL A 134     -30.864 132.765   9.009  1.00 40.76     0.029 C 
ATOM     11  CG1 VAL A 134     -30.922 132.229   7.586  1.00 41.76     0.002 C 
ATOM     12  CG2 VAL A 134     -32.221 132.650   9.685  1.00 40.56     0.002 C 
ENDBRANCH   9  10
END_RES VAL A 134
BEGIN_RES TYR A 338
REMARK  3 active torsions:
REMARK  status: ('A' for Active; 'I' for Inactive)
REMARK    4  A    between atoms: CA   and  CB  
REMARK    5  A    between atoms: CB   and  CG  
REMARK    6  A    between atoms: CZ   and  OH  
ROOT
ATOM     13  CA  TYR A 338     -41.631 124.950   6.058  1.00 38.23     0.164 C 
ENDROOT
BRANCH  13  14
ATOM     14  CB  TYR A 338     -41.621 126.456   6.339  1.00 39.15     0.058 C 
BRANCH  14  15
ATOM     15  CG  TYR A 338     -40.419 127.212   5.822  1.00 39.03    -0.020 A 
ATOM     16  CD2 TYR A 338     -40.237 128.546   6.146  1.00 40.65    -0.002 A 
ATOM     17  CE2 TYR A 338     -39.155 129.274   5.676  1.00 40.91     0.024 A 
ATOM     18  CZ  TYR A 338     -38.221 128.666   4.858  1.00 42.33     0.089 A 
ATOM     19  CE1 TYR A 338     -38.378 127.332   4.524  1.00 40.63     0.024 A 
ATOM     20  CD1 TYR A 338     -39.475 126.625   4.994  1.00 39.27    -0.002 A 
BRANCH  18  21
ATOM     21  OH  TYR A 338     -37.148 129.373   4.393  1.00 43.36    -0.359 OA
ATOM     22  HH  TYR A 338     -37.191 130.319   4.319  1.00  0.00     0.217 HD
ENDBRANCH  18  21
ENDBRANCH  14  15
ENDBRANCH  13  14
END_RES TYR A 338
ENDMDL
MODEL 2
REMARK VINA RESULT:    -8.557      0.383     16.929
REMARK INTER + INTRA:         -10.825
REMARK INTER:                  -8.264
REMARK INTRA:                  -2.561
REMARK UNBOUND:                -2.269
REMARK  0 active torsions:
REMARK  status: ('A' for Active; 'I' for Inactive)
REMARK       I    between atoms: C3_3  and  O3_21 
REMARK       I    between atoms: C6_6  and  C7_7 
REMARK       I    between atoms: C8_8  and  C9_9 
REMARK       I    between atoms: C10_10  and  C11_11 
REMARK       I    between atoms: C12_12  and  C13_13 
REMARK       I    between atoms: C14_14  and  C15_15 
REMARK       I    between atoms: C23_25  and  O23_43 
REMARK       I    between atoms: C26_28  and  C27_29 
REMARK       I    between atoms: C28_30  and  C29_31 
REMARK       I    between atoms: C30_32  and  C31_33 
REMARK       I    between atoms: C32_34  and  C33_35 
REMARK       I    between atoms: C34_36  and  C35_37 
ROOT
HETATM    1  C1  VFQ I8620     -34.566 126.939   6.208  1.00 16.69    -0.018 C 
HETATM    2  C2  VFQ I8620     -34.017 126.198   4.979  1.00 15.88     0.045 C 
HETATM    3  C3  VFQ I8620     -32.910 126.859   4.168  1.00 15.19     0.123 C 
HETATM    4  C4  VFQ I8620     -31.966 127.747   4.984  1.00 16.30     0.066 C 
HETATM    5  C5  VFQ I8620     -32.535 128.511   6.135  1.00 15.97    -0.074 C 
HETATM    6  C6  VFQ I8620     -33.733 128.159   6.713  1.00 16.56    -0.048 C 
HETATM    7  C7  VFQ I8620     -34.280 128.933   7.829  1.00 18.44     0.009 C 
HETATM    8  C8  VFQ I8620     -34.912 130.116   7.742  1.00 18.42     0.007 C 
HETATM    9  C9  VFQ I8620     -35.345 130.941   8.857  1.00 20.59    -0.062 C 
HETATM   10  C10 VFQ I8620     -36.059 132.052   8.575  1.00 20.51     0.007 C 
HETATM   11  C11 VFQ I8620     -36.587 132.986   9.520  1.00 21.63     0.001 C 
HETATM   12  C12 VFQ I8620     -37.434 133.938   9.119  1.00 21.98     0.007 C 
HETATM   13  C13 VFQ I8620     -38.105 134.954   9.929  1.00 23.28    -0.062 C 
HETATM   14  C14 VFQ I8620     -39.014 135.733   9.302  1.00 23.72     0.007 C 
HETATM   15  C15 VFQ I8620     -39.862 136.739   9.876  1.00 25.53     0.001 C 
HETATM   16  C16 VFQ I8620     -34.626 125.850   7.294  1.00 15.77     0.020 C 
HETATM   17  C17 VFQ I8620     -36.015 127.351   5.886  1.00 17.40     0.020 C 
HETATM   18  C18 VFQ I8620     -31.606 129.627   6.461  1.00 16.04     0.044 C 
HETATM   19  C19 VFQ I8620     -35.011 130.472  10.250  1.00 19.43     0.048 C 
HETATM   20  C20 VFQ I8620     -37.792 135.008  11.401  1.00 18.80     0.048 C 
HETATM   21  O3  VFQ I8620     -32.169 125.876   3.473  1.00 16.64    -0.395 OA
ATOM     22  H3  VFQ I8620     -31.478 126.289   2.967  1.00  0.00     0.210 HD
HETATM   23  C21 VFQ I8620     -49.365 144.629  12.740  1.00 71.46    -0.018 C 
HETATM   24  C22 VFQ I8620     -49.901 145.438  13.908  1.00 75.98     0.045 C 
HETATM   25  C23 VFQ I8620     -49.286 146.798  14.158  1.00 84.37     0.123 C 
HETATM   26  C24 VFQ I8620     -47.787 146.732  14.081  1.00 79.68     0.066 C 
HETATM   27  C25 VFQ I8620     -47.376 146.155  12.762  1.00 81.86    -0.074 C 
HETATM   28  C26 VFQ I8620     -48.019 145.111  12.214  1.00 72.92    -0.048 C 
HETATM   29  C27 VFQ I8620     -47.434 144.423  11.039  1.00 76.42     0.009 C 
HETATM   30  C28 VFQ I8620     -46.512 143.473  11.183  1.00 69.46     0.007 C 
HETATM   31  C29 VFQ I8620     -45.889 142.749  10.035  1.00 33.65    -0.062 C 
HETATM   32  C30 VFQ I8620     -44.967 141.807  10.325  1.00 30.63     0.007 C 
HETATM   33  C31 VFQ I8620     -44.280 140.946   9.399  1.00 28.70     0.001 C 
HETATM   34  C32 VFQ I8620     -43.341 140.068   9.810  1.00 25.67     0.007 C 
HETATM   35  C33 VFQ I8620     -42.545 139.126   9.023  1.00 24.63    -0.062 C 
HETATM   36  C34 VFQ I8620     -41.631 138.377   9.675  1.00 23.98     0.007 C 
HETATM   37  C35 VFQ I8620     -40.739 137.402   9.113  1.00 25.49     0.001 C 
HETATM   38  C36 VFQ I8620     -50.373 144.697  11.603  1.00 75.59     0.020 C 
HETATM   39  C37 VFQ I8620     -49.339 143.186  13.222  1.00 74.59     0.020 C 
HETATM   40  C38 VFQ I8620     -46.220 146.836  12.094  1.00 90.73     0.044 C 
HETATM   41  C39 VFQ I8620     -46.314 143.107   8.633  1.00 33.66     0.048 C 
HETATM   42  C40 VFQ I8620     -42.779 139.070   7.548  1.00 25.13     0.048 C 
HETATM   43  O23 VFQ I8620     -49.639 147.214  15.477  1.00 94.57    -0.395 OA
ATOM     44  H23 VFQ I8620     -49.253 148.068  15.634  1.00  0.00     0.210 HD
ENDROOT
TORSDOF 12
BEGIN_RES PHE A  61
REMARK  2 active torsions:
REMARK  status: ('A' for Active; 'I' for Inactive)
REMARK    1  A    between atoms: CA   and  CB  
REMARK    2  A    between atoms: CB   and  CG  
ROOT
ATOM      1  CA  PHE A  61     -36.237 128.293  12.768  1.00 39.40     0.164 C 
ENDROOT
BRANCH   1   2
ATOM      2  CB  PHE A  61     -36.813 128.951  11.509  1.00 39.41     0.058 C 
BRANCH   2   3
ATOM      3  CG  PHE A  61     -37.060 127.998  10.364  1.00 39.01    -0.020 A 
ATOM      4  CD2 PHE A  61     -36.340 126.819  10.252  1.00 40.32    -0.004 A 
ATOM      5  CE2 PHE A  61     -36.566 125.944   9.196  1.00 40.20    -0.000 A 
ATOM      6  CZ  PHE A  61     -37.516 126.237   8.244  1.00 40.34    -0.000 A 
ATOM      7  CE1 PHE A  61     -38.241 127.404   8.342  1.00 41.51    -0.000 A 
ATOM      8  CD1 PHE A  61     -38.011 128.281   9.394  1.00 39.94    -0.004 A 
ENDBRANCH   2   3
ENDBRANCH   1   2
END_RES PHE A  61
BEGIN_RES VAL A 134
REMARK  1 active torsions:
REMARK  status: ('A' for Active; 'I' for Inactive)
REMARK    3  A    between atoms: CA   and  CB  
ROOT
ATOM      9  CA  VAL A 134     -29.766 132.051   9.815  1.00 40.75     0.159 C 
ENDROOT
BRANCH   9  10
ATOM     10  CB  VAL A 134     -30.864 132.765   9.009  1.00 40.76     0.029 C 
ATOM     11  CG1 VAL A 134     -30.971 132.178   7.609  1.00 41.76     0.002 C 
ATOM     12  CG2 VAL A 134     -32.207 132.713   9.721  1.00 40.56     0.002 C 
ENDBRANCH   9  10
END_RES VAL A 134
BEGIN_RES TYR A 338
REMARK  3 active torsions:
REMARK  status: ('A' for Active; 'I' for Inactive)
REMARK    4  A    between atoms: CA   and  CB  
REMARK    5  A    between atoms: CB   and  CG  
REMARK    6  A    between atoms: CZ   and  OH  
ROOT
ATOM     13  CA  TYR A 338     -41.631 124.950   6.058  1.00 38.23     0.164 C 
ENDROOT
BRANCH  13  14
ATOM     14  CB  TYR A 338     -41.621 126.456   6.339  1.00 39.15     0.058 C 
BRANCH  14  15
ATOM     15  CG  TYR A 338     -40.429 127.215   5.803  1.00 39.03    -0.020 A 
ATOM     16  CD2 TYR A 338     -40.243 128.548   6.130  1.00 40.65    -0.002 A 
ATOM     17  CE2 TYR A 338     -39.170 129.279   5.644  1.00 40.91     0.024 A 
ATOM     18  CZ  TYR A 338     -38.251 128.675   4.807  1.00 42.33     0.089 A 
ATOM     19  CE1 TYR A 338     -38.413 127.343   4.470  1.00 40.63     0.024 A 
ATOM     20  CD1 TYR A 338     -39.500 126.633   4.955  1.00 39.27    -0.002 A 
BRANCH  18  21
ATOM     21  OH  TYR A 338     -37.187 129.386   4.325  1.00 43.36    -0.359 OA
ATOM     22  HH  TYR A 338     -36.327 128.985   4.269  1.00  0.00     0.217 HD
ENDBRANCH  18  21
ENDBRANCH  14  15
ENDBRANCH  13  14
END_RES TYR A 338
ENDMDL
MODEL 3
REMARK VINA RESULT:    -7.663      1.374     16.918
REMARK INTER + INTRA:          -9.931
REMARK INTER:                  -9.675
REMARK INTRA:                  -0.257
REMARK UNBOUND:                -2.269
REMARK  0 active torsions:
REMARK  status: ('A' for Active; 'I' for Inactive)
REMARK       I    between atoms: C3_3  and  O3_21 
REMARK       I    between atoms: C6_6  and  C7_7 
REMARK       I    between atoms: C8_8  and  C9_9 
REMARK       I    between atoms: C10_10  and  C11_11 
REMARK       I    between atoms: C12_12  and  C13_13 
REMARK       I    between atoms: C14_14  and  C15_15 
REMARK       I    between atoms: C23_25  and  O23_43 
REMARK       I    between atoms: C26_28  and  C27_29 
REMARK       I    between atoms: C28_30  and  C29_31 
REMARK       I    between atoms: C30_32  and  C31_33 
REMARK       I    between atoms: C32_34  and  C33_35 
REMARK       I    between atoms: C34_36  and  C35_37 
ROOT
HETATM    1  C1  VFQ I8620     -34.166 128.159   6.792  1.00 16.69    -0.018 C 
HETATM    2  C2  VFQ I8620     -33.249 127.544   5.722  1.00 15.88     0.045 C 
HETATM    3  C3  VFQ I8620     -31.968 128.280   5.355  1.00 15.19     0.123 C 
HETATM    4  C4  VFQ I8620     -31.341 129.079   6.501  1.00 16.30     0.066 C 
HETATM    5  C5  VFQ I8620     -32.254 129.725   7.492  1.00 15.97    -0.074 C 
HETATM    6  C6  VFQ I8620     -33.559 129.320   7.642  1.00 16.56    -0.048 C 
HETATM    7  C7  VFQ I8620     -34.440 129.978   8.608  1.00 18.44     0.009 C 
HETATM    8  C8  VFQ I8620     -35.050 131.166   8.448  1.00 18.42     0.007 C 
HETATM    9  C9  VFQ I8620     -35.823 131.876   9.453  1.00 20.59    -0.062 C 
HETATM   10  C10 VFQ I8620     -36.449 133.011   9.076  1.00 20.51     0.007 C 
HETATM   11  C11 VFQ I8620     -37.265 133.846   9.901  1.00 21.63     0.001 C 
HETATM   12  C12 VFQ I8620     -37.978 134.836   9.356  1.00 21.98     0.007 C 
HETATM   13  C13 VFQ I8620     -38.891 135.766  10.018  1.00 23.28    -0.062 C 
HETATM   14  C14 VFQ I8620     -39.589 136.607   9.223  1.00 23.72     0.007 C 
HETATM   15  C15 VFQ I8620     -40.599 137.552   9.605  1.00 25.53     0.001 C 
HETATM   16  C16 VFQ I8620     -34.520 126.966   7.698  1.00 15.77     0.020 C 
HETATM   17  C17 VFQ I8620     -35.461 128.605   6.086  1.00 17.40     0.020 C 
HETATM   18  C18 VFQ I8620     -31.498 130.800   8.192  1.00 16.04     0.044 C 
HETATM   19  C19 VFQ I8620     -35.914 131.267  10.829  1.00 19.43     0.048 C 
HETATM   20  C20 VFQ I8620     -39.040 135.671  11.513  1.00 18.80     0.048 C 
HETATM   21  O3  VFQ I8620     -31.024 127.371   4.826  1.00 16.64    -0.395 OA
ATOM     22  H3  VFQ I8620     -30.225 127.831   4.597  1.00  0.00     0.210 HD
HETATM   23  C21 VFQ I8620     -50.743 145.136  10.193  1.00 71.46    -0.018 C 
HETATM   24  C22 VFQ I8620     -51.630 145.825  11.216  1.00 75.98     0.045 C 
HETATM   25  C23 VFQ I8620     -51.159 147.151  11.771  1.00 84.37     0.123 C 
HETATM   26  C24 VFQ I8620     -49.705 147.089  12.148  1.00 79.68     0.066 C 
HETATM   27  C25 VFQ I8620     -48.898 146.647  10.967  1.00 81.86    -0.074 C 
HETATM   28  C26 VFQ I8620     -49.315 145.666  10.151  1.00 72.92    -0.048 C 
HETATM   29  C27 VFQ I8620     -48.383 145.097   9.148  1.00 76.42     0.009 C 
HETATM   30  C28 VFQ I8620     -47.521 144.136   9.473  1.00 69.46     0.007 C 
HETATM   31  C29 VFQ I8620     -46.559 143.530   8.505  1.00 33.65    -0.062 C 
HETATM   32  C30 VFQ I8620     -45.742 142.561   8.969  1.00 30.63     0.007 C 
HETATM   33  C31 VFQ I8620     -44.783 141.796   8.216  1.00 28.70     0.001 C 
HETATM   34  C32 VFQ I8620     -43.988 140.879   8.808  1.00 25.67     0.007 C 
HETATM   35  C33 VFQ I8620     -42.964 140.019   8.212  1.00 24.63    -0.062 C 
HETATM   36  C34 VFQ I8620     -42.270 139.206   9.035  1.00 23.98     0.007 C 
HETATM   37  C35 VFQ I8620     -41.222 138.291   8.680  1.00 25.49     0.001 C 
HETATM   38  C36 VFQ I8620     -51.361 145.321   8.816  1.00 75.59     0.020 C 
HETATM   39  C37 VFQ I8620     -50.824 143.652  10.518  1.00 74.59     0.020 C 
HETATM   40  C38 VFQ I8620     -47.614 147.390  10.750  1.00 90.73     0.044 C 
HETATM   41  C39 VFQ I8620     -46.550 144.028   7.082  1.00 33.66     0.048 C 
HETATM   42  C40 VFQ I8620     -42.740 140.113   6.738  1.00 25.13     0.048 C 
HETATM   43  O23 VFQ I8620     -51.906 147.433  12.954  1.00 94.57    -0.395 OA
ATOM     44  H23 VFQ I8620     -51.610 148.265  13.302  1.00  0.00     0.210 HD
ENDROOT
TORSDOF 12
BEGIN_RES PHE A  61
REMARK  2 active torsions:
REMARK  status: ('A' for Active; 'I' for Inactive)
REMARK    1  A    between atoms: CA   and  CB  
REMARK    2  A    between atoms: CB   and  CG  
ROOT
ATOM      1  CA  PHE A  61     -36.237 128.293  12.768  1.00 39.40     0.164 C 
ENDROOT
BRANCH   1   2
ATOM      2  CB  PHE A  61     -36.813 128.951  11.509  1.00 39.41     0.058 C 
BRANCH   2   3
ATOM      3  CG  PHE A  61     -37.007 128.008  10.345  1.00 39.01    -0.020 A 
ATOM      4  CD2 PHE A  61     -36.294 126.823  10.263  1.00 40.32    -0.004 A 
ATOM      5  CE2 PHE A  61     -36.471 125.958   9.190  1.00 40.20    -0.000 A 
ATOM      6  CZ  PHE A  61     -37.365 126.267   8.191  1.00 40.34    -0.000 A 
ATOM      7  CE1 PHE A  61     -38.083 127.440   8.259  1.00 41.51    -0.000 A 
ATOM      8  CD1 PHE A  61     -37.902 128.308   9.328  1.00 39.94    -0.004 A 
ENDBRANCH   2   3
ENDBRANCH   1   2
END_RES PHE A  61
BEGIN_RES VAL A 134
REMARK  1 active torsions:
REMARK  status: ('A' for Active; 'I' for Inactive)
REMARK    3  A    between atoms: CA   and  CB  
ROOT
ATOM      9  CA  VAL A 134     -29.766 132.051   9.815  1.00 40.75     0.159 C 
ENDROOT
BRANCH   9  10
ATOM     10  CB  VAL A 134     -30.864 132.765   9.009  1.00 40.76     0.029 C 
ATOM     11  CG1 VAL A 134     -32.106 132.977   9.862  1.00 41.76     0.002 C 
ATOM     12  CG2 VAL A 134     -30.371 134.084   8.435  1.00 40.56     0.002 C 
ENDBRANCH   9  10
END_RES VAL A 134
BEGIN_RES TYR A 338
REMARK  3 active torsions:
REMARK  status: ('A' for Active; 'I' for Inactive)
REMARK    4  A    between atoms: CA   and  CB  
REMARK    5  A    between atoms: CB   and  CG  
REMARK    6  A    between atoms: CZ   and  OH  
ROOT
ATOM     13  CA  TYR A 338     -41.631 124.950   6.058  1.00 38.23     0.164 C 
ENDROOT
BRANCH  13  14
ATOM     14  CB  TYR A 338     -41.621 126.456   6.339  1.00 39.15     0.058 C 
BRANCH  14  15
ATOM     15  CG  TYR A 338     -40.430 127.216   5.802  1.00 39.03    -0.020 A 
ATOM     16  CD2 TYR A 338     -40.279 128.565   6.073  1.00 40.65    -0.002 A 
ATOM     17  CE2 TYR A 338     -39.208 129.296   5.584  1.00 40.91     0.024 A 
ATOM     18  CZ  TYR A 338     -38.254 128.675   4.800  1.00 42.33     0.089 A 
ATOM     19  CE1 TYR A 338     -38.380 127.326   4.519  1.00 40.63     0.024 A 
ATOM     20  CD1 TYR A 338     -39.466 126.616   5.006  1.00 39.27    -0.002 A 
BRANCH  18  21
ATOM     21  OH  TYR A 338     -37.191 129.386   4.316  1.00 43.36    -0.359 OA
ATOM     22  HH  TYR A 338     -37.318 130.255   3.954  1.00  0.00     0.217 HD
ENDBRANCH  18  21
ENDBRANCH  14  15
ENDBRANCH  13  14
END_RES TYR A 338
ENDMDL
