MODEL 1
REMARK VINA RESULT:   -10.841      0.000      0.000
REMARK INTER + INTRA:         -13.203
REMARK INTER:                 -10.841
REMARK INTRA:                  -2.362
REMARK UNBOUND:                -2.362
REMARK  0 active torsions:
REMARK  status: ('A' for Active; 'I' for Inactive)
REMARK       I    between atoms: C3_3  and  O3_21 
REMARK       I    between atoms: C6_6  and  C7_7 
REMARK       I    between atoms: C8_8  and  C9_9 
REMARK       I    between atoms: C10_10  and  C11_11 
REMARK       I    between atoms: C12_12  and  C13_13 
REMARK       I    between atoms: C14_14  and  C15_15 
REMARK       I    between atoms: C23_25  and  O23_43 
REMARK       I    between atoms: C26_28  and  C27_29 
REMARK       I    between atoms: C28_30  and  C29_31 
REMARK       I    between atoms: C30_32  and  C31_33 
REMARK       I    between atoms: C32_34  and  C33_35 
REMARK       I    between atoms: C34_36  and  C35_37 
ROOT
HETATM    1  C1  VFQ D3620     -49.042 144.808  12.487  1.00 21.49    -0.018 C 
HETATM    2  C2  VFQ D3620     -49.474 145.567  13.761  1.00 21.50     0.045 C 
HETATM    3  C3  VFQ D3620     -48.712 146.827  14.185  1.00 22.37     0.123 C 
HETATM    4  C4  VFQ D3620     -47.825 147.451  13.104  1.00 21.17     0.066 C 
HETATM    5  C5  VFQ D3620     -47.282 146.590  12.010  1.00 19.70    -0.074 C 
HETATM    6  C6  VFQ D3620     -47.821 145.357  11.697  1.00 20.41    -0.048 C 
HETATM    7  C7  VFQ D3620     -47.281 144.512  10.614  1.00 19.41     0.009 C 
HETATM    8  C8  VFQ D3620     -46.184 143.742  10.644  1.00 18.90     0.007 C 
HETATM    9  C9  VFQ D3620     -45.574 143.020   9.524  1.00 20.60    -0.062 C 
HETATM   10  C10 VFQ D3620     -44.528 142.212   9.799  1.00 18.78     0.007 C 
HETATM   11  C11 VFQ D3620     -43.797 141.409   8.867  1.00 19.97     0.001 C 
HETATM   12  C12 VFQ D3620     -42.896 140.524   9.328  1.00 23.02     0.007 C 
HETATM   13  C13 VFQ D3620     -42.067 139.582   8.574  1.00 23.57    -0.062 C 
HETATM   14  C14 VFQ D3620     -41.313 138.714   9.283  1.00 23.43     0.007 C 
HETATM   15  C15 VFQ D3620     -40.488 137.655   8.779  1.00 24.57     0.001 C 
HETATM   16  C16 VFQ D3620     -50.302 144.866  11.602  1.00 19.84     0.020 C 
HETATM   17  C17 VFQ D3620     -48.800 143.330  12.890  1.00 19.63     0.020 C 
HETATM   18  C18 VFQ D3620     -46.139 147.317  11.397  1.00 19.29     0.044 C 
HETATM   19  C19 VFQ D3620     -46.181 143.187   8.149  1.00 18.57     0.048 C 
HETATM   20  C20 VFQ D3620     -42.167 139.600   7.081  1.00 22.43     0.048 C 
HETATM   21  O3  VFQ D3620     -49.609 147.797  14.697  1.00 22.38    -0.395 OA
ATOM     22  H3  VFQ D3620     -49.137 148.579  14.960  1.00  0.00     0.210 HD
HETATM   23  C21 VFQ D3620     -34.225 126.802   6.664  1.00 21.58    -0.018 C 
HETATM   24  C22 VFQ D3620     -33.690 125.877   5.551  1.00 21.20     0.045 C 
HETATM   25  C23 VFQ D3620     -32.499 126.311   4.694  1.00 20.61     0.123 C 
HETATM   26  C24 VFQ D3620     -32.045 127.767   4.882  1.00 19.82     0.066 C 
HETATM   27  C25 VFQ D3620     -32.502 128.585   6.049  1.00 19.81    -0.074 C 
HETATM   28  C26 VFQ D3620     -33.512 128.191   6.903  1.00 19.95    -0.048 C 
HETATM   29  C27 VFQ D3620     -33.990 128.988   8.070  1.00 17.10     0.009 C 
HETATM   30  C28 VFQ D3620     -34.851 130.026   7.984  1.00 17.58     0.007 C 
HETATM   31  C29 VFQ D3620     -35.389 130.890   9.039  1.00 31.15    -0.062 C 
HETATM   32  C30 VFQ D3620     -36.236 131.886   8.699  1.00 29.00     0.007 C 
HETATM   33  C31 VFQ D3620     -36.857 132.819   9.589  1.00 26.88     0.001 C 
HETATM   34  C32 VFQ D3620     -37.642 133.793   9.120  1.00 27.02     0.007 C 
HETATM   35  C33 VFQ D3620     -38.343 134.851   9.857  1.00 27.13    -0.062 C 
HETATM   36  C34 VFQ D3620     -39.064 135.740   9.137  1.00 25.88     0.007 C 
HETATM   37  C35 VFQ D3620     -39.833 136.850   9.623  1.00 25.96     0.001 C 
HETATM   38  C36 VFQ D3620     -34.223 125.971   7.968  1.00 19.38     0.020 C 
HETATM   39  C37 VFQ D3620     -35.696 127.011   6.235  1.00 19.65     0.020 C 
HETATM   40  C38 VFQ D3620     -31.673 129.818   6.108  1.00 20.06     0.044 C 
HETATM   41  C39 VFQ D3620     -34.944 130.619  10.447  1.00 30.08     0.048 C 
HETATM   42  C40 VFQ D3620     -38.201 134.880  11.351  1.00 24.80     0.048 C 
HETATM   43  O23 VFQ D3620     -32.761 126.053   3.322  1.00 18.88    -0.395 OA
ATOM     44  H23 VFQ D3620     -32.022 126.322   2.791  1.00  0.00     0.210 HD
ENDROOT
TORSDOF 12
BEGIN_RES PHE A  61
REMARK  2 active torsions:
REMARK  status: ('A' for Active; 'I' for Inactive)
REMARK    1  A    between atoms: CA   and  CB  
REMARK    2  A    between atoms: CB   and  CG  
ROOT
ATOM      1  CA  PHE A  61     -36.237 128.293  12.768  1.00 39.40     0.164 C 
ENDROOT
BRANCH   1   2
ATOM      2  CB  PHE A  61     -36.813 128.951  11.509  1.00 39.41     0.058 C 
BRANCH   2   3
ATOM      3  CG  PHE A  61     -37.091 127.993  10.376  1.00 39.01    -0.020 A 
ATOM      4  CD2 PHE A  61     -36.456 126.763  10.312  1.00 40.32    -0.004 A 
ATOM      5  CE2 PHE A  61     -36.710 125.883   9.267  1.00 40.20    -0.000 A 
ATOM      6  CZ  PHE A  61     -37.604 126.222   8.277  1.00 40.34    -0.000 A 
ATOM      7  CE1 PHE A  61     -38.245 127.440   8.327  1.00 41.51    -0.000 A 
ATOM      8  CD1 PHE A  61     -37.986 128.322   9.368  1.00 39.94    -0.004 A 
ENDBRANCH   2   3
ENDBRANCH   1   2
END_RES PHE A  61
BEGIN_RES VAL A 134
REMARK  1 active torsions:
REMARK  status: ('A' for Active; 'I' for Inactive)
REMARK    3  A    between atoms: CA   and  CB  
ROOT
ATOM      9  CA  VAL A 134     -29.766 132.051   9.815  1.00 40.75     0.159 C 
ENDROOT
BRANCH   9  10
ATOM     10  CB  VAL A 134     -30.864 132.765   9.009  1.00 40.76     0.029 C 
ATOM     11  CG1 VAL A 134     -31.153 132.019   7.715  1.00 41.76     0.002 C 
ATOM     12  CG2 VAL A 134     -32.135 132.942   9.826  1.00 40.56     0.002 C 
ENDBRANCH   9  10
END_RES VAL A 134
BEGIN_RES TYR A 338
REMARK  3 active torsions:
REMARK  status: ('A' for Active; 'I' for Inactive)
REMARK    4  A    between atoms: CA   and  CB  
REMARK    5  A    between atoms: CB   and  CG  
REMARK    6  A    between atoms: CZ   and  OH  
ROOT
ATOM     13  CA  TYR A 338     -41.631 124.950   6.058  1.00 38.23     0.164 C 
ENDROOT
BRANCH  13  14
ATOM     14  CB  TYR A 338     -41.621 126.456   6.339  1.00 39.15     0.058 C 
BRANCH  14  15
ATOM     15  CG  TYR A 338     -40.414 127.210   5.830  1.00 39.03    -0.020 A 
ATOM     16  CD2 TYR A 338     -40.259 128.557   6.112  1.00 40.65    -0.002 A 
ATOM     17  CE2 TYR A 338     -39.173 129.284   5.649  1.00 40.91     0.024 A 
ATOM     18  CZ  TYR A 338     -38.208 128.660   4.880  1.00 42.33     0.089 A 
ATOM     19  CE1 TYR A 338     -38.338 127.314   4.589  1.00 40.63     0.024 A 
ATOM     20  CD1 TYR A 338     -39.439 126.608   5.051  1.00 39.27    -0.002 A 
BRANCH  18  21
ATOM     21  OH  TYR A 338     -37.131 129.366   4.422  1.00 43.36    -0.359 OA
ATOM     22  HH  TYR A 338     -36.540 129.791   5.032  1.00  0.00     0.217 HD
ENDBRANCH  18  21
ENDBRANCH  14  15
ENDBRANCH  13  14
END_RES TYR A 338
ENDMDL
MODEL 2
REMARK VINA RESULT:    -8.384      0.622     16.933
REMARK INTER + INTRA:         -10.746
REMARK INTER:                  -8.063
REMARK INTRA:                  -2.683
REMARK UNBOUND:                -2.362
REMARK  0 active torsions:
REMARK  status: ('A' for Active; 'I' for Inactive)
REMARK       I    between atoms: C3_3  and  O3_21 
REMARK       I    between atoms: C6_6  and  C7_7 
REMARK       I    between atoms: C8_8  and  C9_9 
REMARK       I    between atoms: C10_10  and  C11_11 
REMARK       I    between atoms: C12_12  and  C13_13 
REMARK       I    between atoms: C14_14  and  C15_15 
REMARK       I    between atoms: C23_25  and  O23_43 
REMARK       I    between atoms: C26_28  and  C27_29 
REMARK       I    between atoms: C28_30  and  C29_31 
REMARK       I    between atoms: C30_32  and  C31_33 
REMARK       I    between atoms: C32_34  and  C33_35 
REMARK       I    between atoms: C34_36  and  C35_37 
ROOT
HETATM    1  C1  VFQ D3620     -34.590 127.027   6.117  1.00 21.49    -0.018 C 
HETATM    2  C2  VFQ D3620     -34.106 126.376   4.803  1.00 21.50     0.045 C 
HETATM    3  C3  VFQ D3620     -32.850 126.916   4.109  1.00 22.37     0.123 C 
HETATM    4  C4  VFQ D3620     -31.958 127.810   4.974  1.00 21.17     0.066 C 
HETATM    5  C5  VFQ D3620     -32.557 128.567   6.114  1.00 19.70    -0.074 C 
HETATM    6  C6  VFQ D3620     -33.778 128.232   6.668  1.00 20.41    -0.048 C 
HETATM    7  C7  VFQ D3620     -34.365 128.984   7.796  1.00 19.41     0.009 C 
HETATM    8  C8  VFQ D3620     -34.994 130.167   7.754  1.00 18.90     0.007 C 
HETATM    9  C9  VFQ D3620     -35.446 130.975   8.891  1.00 20.60    -0.062 C 
HETATM   10  C10 VFQ D3620     -36.159 132.088   8.620  1.00 18.78     0.007 C 
HETATM   11  C11 VFQ D3620     -36.706 133.008   9.569  1.00 19.97     0.001 C 
HETATM   12  C12 VFQ D3620     -37.541 133.971   9.145  1.00 23.02     0.007 C 
HETATM   13  C13 VFQ D3620     -38.243 134.989   9.929  1.00 23.57    -0.062 C 
HETATM   14  C14 VFQ D3620     -39.119 135.782   9.275  1.00 23.43     0.007 C 
HETATM   15  C15 VFQ D3620     -39.976 136.788   9.833  1.00 24.57     0.001 C 
HETATM   16  C16 VFQ D3620     -34.537 125.862   7.124  1.00 19.84     0.020 C 
HETATM   17  C17 VFQ D3620     -36.074 127.427   5.914  1.00 19.63     0.020 C 
HETATM   18  C18 VFQ D3620     -31.610 129.655   6.474  1.00 19.29     0.044 C 
HETATM   19  C19 VFQ D3620     -35.130 130.486  10.286  1.00 18.57     0.048 C 
HETATM   20  C20 VFQ D3620     -37.993 135.032  11.404  1.00 22.43     0.048 C 
HETATM   21  O3  VFQ D3620     -32.090 125.850   3.567  1.00 22.38    -0.395 OA
ATOM     22  H3  VFQ D3620     -31.311 126.185   3.136  1.00  0.00     0.210 HD
HETATM   23  C21 VFQ D3620     -49.518 144.637  12.803  1.00 21.58    -0.018 C 
HETATM   24  C22 VFQ D3620     -50.179 145.396  13.972  1.00 21.20     0.045 C 
HETATM   25  C23 VFQ D3620     -49.473 146.595  14.610  1.00 20.61     0.123 C 
HETATM   26  C24 VFQ D3620     -48.024 146.827  14.155  1.00 19.82     0.066 C 
HETATM   27  C25 VFQ D3620     -47.467 146.154  12.940  1.00 19.81    -0.074 C 
HETATM   28  C26 VFQ D3620     -48.112 145.129  12.278  1.00 19.95    -0.048 C 
HETATM   29  C27 VFQ D3620     -47.579 144.437  11.068  1.00 17.10     0.009 C 
HETATM   30  C28 VFQ D3620     -46.650 143.456  11.098  1.00 17.58     0.007 C 
HETATM   31  C29 VFQ D3620     -46.040 142.706   9.996  1.00 31.15    -0.062 C 
HETATM   32  C30 VFQ D3620     -45.110 141.769  10.279  1.00 29.00     0.007 C 
HETATM   33  C31 VFQ D3620     -44.415 140.945   9.338  1.00 26.88     0.001 C 
HETATM   34  C32 VFQ D3620     -43.477 140.084   9.743  1.00 27.02     0.007 C 
HETATM   35  C33 VFQ D3620     -42.644 139.179   8.944  1.00 27.13    -0.062 C 
HETATM   36  C34 VFQ D3620     -41.741 138.417   9.601  1.00 25.88     0.007 C 
HETATM   37  C35 VFQ D3620     -40.825 137.461   9.048  1.00 25.96     0.001 C 
HETATM   38  C36 VFQ D3620     -50.545 144.626  11.647  1.00 19.38     0.020 C 
HETATM   39  C37 VFQ D3620     -49.418 143.199  13.365  1.00 19.65     0.020 C 
HETATM   40  C38 VFQ D3620     -46.171 146.799  12.601  1.00 20.06     0.044 C 
HETATM   41  C39 VFQ D3620     -46.483 143.047   8.601  1.00 30.08     0.048 C 
HETATM   42  C40 VFQ D3620     -42.843 139.171   7.456  1.00 24.80     0.048 C 
HETATM   43  O23 VFQ D3620     -49.533 146.504  16.026  1.00 18.88    -0.395 OA
ATOM     44  H23 VFQ D3620     -49.095 147.247  16.422  1.00  0.00     0.210 HD
ENDROOT
TORSDOF 12
BEGIN_RES PHE A  61
REMARK  2 active torsions:
REMARK  status: ('A' for Active; 'I' for Inactive)
REMARK    1  A    between atoms: CA   and  CB  
REMARK    2  A    between atoms: CB   and  CG  
ROOT
ATOM      1  CA  PHE A  61     -36.237 128.293  12.768  1.00 39.40     0.164 C 
ENDROOT
BRANCH   1   2
ATOM      2  CB  PHE A  61     -36.813 128.951  11.509  1.00 39.41     0.058 C 
BRANCH   2   3
ATOM      3  CG  PHE A  61     -37.039 128.002  10.356  1.00 39.01    -0.020 A 
ATOM      4  CD2 PHE A  61     -36.270 126.857  10.217  1.00 40.32    -0.004 A 
ATOM      5  CE2 PHE A  61     -36.477 125.986   9.154  1.00 40.20    -0.000 A 
ATOM      6  CZ  PHE A  61     -37.455 126.248   8.222  1.00 40.34    -0.000 A 
ATOM      7  CE1 PHE A  61     -38.228 127.381   8.348  1.00 41.51    -0.000 A 
ATOM      8  CD1 PHE A  61     -38.018 128.255   9.407  1.00 39.94    -0.004 A 
ENDBRANCH   2   3
ENDBRANCH   1   2
END_RES PHE A  61
BEGIN_RES VAL A 134
REMARK  1 active torsions:
REMARK  status: ('A' for Active; 'I' for Inactive)
REMARK    3  A    between atoms: CA   and  CB  
ROOT
ATOM      9  CA  VAL A 134     -29.766 132.051   9.815  1.00 40.75     0.159 C 
ENDROOT
BRANCH   9  10
ATOM     10  CB  VAL A 134     -30.864 132.765   9.009  1.00 40.76     0.029 C 
ATOM     11  CG1 VAL A 134     -30.894 132.259   7.574  1.00 41.76     0.002 C 
ATOM     12  CG2 VAL A 134     -32.229 132.614   9.664  1.00 40.56     0.002 C 
ENDBRANCH   9  10
END_RES VAL A 134
BEGIN_RES TYR A 338
REMARK  3 active torsions:
REMARK  status: ('A' for Active; 'I' for Inactive)
REMARK    4  A    between atoms: CA   and  CB  
REMARK    5  A    between atoms: CB   and  CG  
REMARK    6  A    between atoms: CZ   and  OH  
ROOT
ATOM     13  CA  TYR A 338     -41.631 124.950   6.058  1.00 38.23     0.164 C 
ENDROOT
BRANCH  13  14
ATOM     14  CB  TYR A 338     -41.621 126.456   6.339  1.00 39.15     0.058 C 
BRANCH  14  15
ATOM     15  CG  TYR A 338     -40.433 127.217   5.796  1.00 39.03    -0.020 A 
ATOM     16  CD2 TYR A 338     -40.243 128.548   6.127  1.00 40.65    -0.002 A 
ATOM     17  CE2 TYR A 338     -39.173 129.280   5.635  1.00 40.91     0.024 A 
ATOM     18  CZ  TYR A 338     -38.262 128.679   4.788  1.00 42.33     0.089 A 
ATOM     19  CE1 TYR A 338     -38.428 127.349   4.446  1.00 40.63     0.024 A 
ATOM     20  CD1 TYR A 338     -39.512 126.637   4.938  1.00 39.27    -0.002 A 
BRANCH  18  21
ATOM     21  OH  TYR A 338     -37.201 129.391   4.300  1.00 43.36    -0.359 OA
ATOM     22  HH  TYR A 338     -36.411 129.490   4.818  1.00  0.00     0.217 HD
ENDBRANCH  18  21
ENDBRANCH  14  15
ENDBRANCH  13  14
END_RES TYR A 338
ENDMDL
