MODEL 1
REMARK VINA RESULT:   -10.884      0.000      0.000
REMARK INTER + INTRA:         -13.475
REMARK INTER:                 -10.884
REMARK INTRA:                  -2.591
REMARK UNBOUND:                -2.591
REMARK  0 active torsions:
REMARK  status: ('A' for Active; 'I' for Inactive)
REMARK       I    between atoms: C3_3  and  O3_21 
REMARK       I    between atoms: C6_6  and  C7_7 
REMARK       I    between atoms: C8_8  and  C9_9 
REMARK       I    between atoms: C10_10  and  C11_11 
REMARK       I    between atoms: C12_12  and  C13_13 
REMARK       I    between atoms: C14_14  and  C15_15 
REMARK       I    between atoms: C23_25  and  O23_43 
REMARK       I    between atoms: C26_28  and  C27_29 
REMARK       I    between atoms: C28_30  and  C29_31 
REMARK       I    between atoms: C30_32  and  C31_33 
REMARK       I    between atoms: C32_34  and  C33_35 
REMARK       I    between atoms: C34_36  and  C35_37 
ROOT
HETATM    1  C1  VFQ U1620     -33.659 129.133   7.091  1.00 22.99    -0.018 C 
HETATM    2  C2  VFQ U1620     -32.850 129.811   6.005  1.00 22.99     0.045 C 
HETATM    3  C3  VFQ U1620     -32.098 131.027   6.474  1.00 22.99     0.123 C 
HETATM    4  C4  VFQ U1620     -31.206 130.554   7.586  1.00 22.99     0.066 C 
HETATM    5  C5  VFQ U1620     -32.039 130.042   8.715  1.00 22.99    -0.074 C 
HETATM    6  C6  VFQ U1620     -33.266 129.596   8.477  1.00 22.99    -0.048 C 
HETATM    7  C7  VFQ U1620     -34.343 129.899   9.411  1.00 22.99     0.009 C 
HETATM    8  C8  VFQ U1620     -34.798 131.120   9.111  1.00 22.99     0.007 C 
HETATM    9  C9  VFQ U1620     -35.898 131.784   9.834  1.00 22.99    -0.062 C 
HETATM   10  C10 VFQ U1620     -36.288 132.992   9.395  1.00 22.99     0.007 C 
HETATM   11  C11 VFQ U1620     -37.385 133.742   9.993  1.00 22.99     0.001 C 
HETATM   12  C12 VFQ U1620     -37.759 134.906   9.476  1.00 22.99     0.007 C 
HETATM   13  C13 VFQ U1620     -38.909 135.618  10.045  1.00 22.99    -0.062 C 
HETATM   14  C14 VFQ U1620     -39.341 136.695   9.383  1.00 22.99     0.007 C 
HETATM   15  C15 VFQ U1620     -40.510 137.489   9.738  1.00 22.99     0.001 C 
HETATM   16  C16 VFQ U1620     -33.471 127.646   6.862  1.00 22.99     0.020 C 
HETATM   17  C17 VFQ U1620     -35.124 129.480   6.887  1.00 22.99     0.020 C 
HETATM   18  C18 VFQ U1620     -31.681 130.918   9.872  1.00 22.99     0.044 C 
HETATM   19  C19 VFQ U1620     -36.541 131.100  11.004  1.00 22.99     0.048 C 
HETATM   20  C20 VFQ U1620     -39.573 135.056  11.259  1.00 22.99     0.048 C 
HETATM   21  O3  VFQ U1620     -31.273 131.497   5.416  1.00 22.99    -0.395 OA
ATOM     22  H3  VFQ U1620     -30.798 132.264   5.712  1.00  0.00     0.210 HD
HETATM   23  C21 VFQ U1620     -50.365 145.295   8.672  1.00 59.27    -0.018 C 
HETATM   24  C22 VFQ U1620     -51.601 145.829   9.380  1.00 64.60     0.045 C 
HETATM   25  C23 VFQ U1620     -51.415 147.165  10.066  1.00 63.28     0.123 C 
HETATM   26  C24 VFQ U1620     -50.248 147.095  11.015  1.00 61.00     0.066 C 
HETATM   27  C25 VFQ U1620     -49.010 146.664  10.284  1.00 64.87    -0.074 C 
HETATM   28  C26 VFQ U1620     -49.051 145.815   9.237  1.00 63.96    -0.048 C 
HETATM   29  C27 VFQ U1620     -47.800 145.386   8.556  1.00 64.82     0.009 C 
HETATM   30  C28 VFQ U1620     -47.055 144.363   8.988  1.00 58.91     0.007 C 
HETATM   31  C29 VFQ U1620     -45.822 143.930   8.309  1.00 22.99    -0.062 C 
HETATM   32  C30 VFQ U1620     -45.247 142.820   8.803  1.00 22.99     0.007 C 
HETATM   33  C31 VFQ U1620     -44.042 142.176   8.284  1.00 22.99     0.001 C 
HETATM   34  C32 VFQ U1620     -43.595 141.079   8.895  1.00 22.99     0.007 C 
HETATM   35  C33 VFQ U1620     -42.390 140.355   8.454  1.00 22.99    -0.062 C 
HETATM   36  C34 VFQ U1620     -42.013 139.297   9.191  1.00 22.99     0.007 C 
HETATM   37  C35 VFQ U1620     -40.842 138.474   8.914  1.00 22.99     0.001 C 
HETATM   38  C36 VFQ U1620     -50.417 145.727   7.215  1.00 56.55     0.020 C 
HETATM   39  C37 VFQ U1620     -50.483 143.775   8.743  1.00 59.14     0.020 C 
HETATM   40  C38 VFQ U1620     -47.736 147.262  10.812  1.00 61.00     0.044 C 
HETATM   41  C39 VFQ U1620     -45.316 144.680   7.111  1.00 22.99     0.048 C 
HETATM   42  C40 VFQ U1620     -41.671 140.807   7.219  1.00 22.99     0.048 C 
HETATM   43  O23 VFQ U1620     -52.600 147.476  10.803  1.00 73.40    -0.395 OA
ATOM     44  H23 VFQ U1620     -52.483 148.315  11.234  1.00  0.00     0.210 HD
ENDROOT
TORSDOF 12
BEGIN_RES PHE A  61
REMARK  2 active torsions:
REMARK  status: ('A' for Active; 'I' for Inactive)
REMARK    1  A    between atoms: CA   and  CB  
REMARK    2  A    between atoms: CB   and  CG  
ROOT
ATOM      1  CA  PHE A  61     -36.237 128.293  12.768  1.00 39.40     0.164 C 
ENDROOT
BRANCH   1   2
ATOM      2  CB  PHE A  61     -36.813 128.951  11.509  1.00 39.41     0.058 C 
BRANCH   2   3
ATOM      3  CG  PHE A  61     -36.771 128.081  10.275  1.00 39.01    -0.020 A 
ATOM      4  CD2 PHE A  61     -37.789 128.128   9.337  1.00 40.32    -0.004 A 
ATOM      5  CE2 PHE A  61     -37.751 127.325   8.204  1.00 40.20    -0.000 A 
ATOM      6  CZ  PHE A  61     -36.693 126.470   7.995  1.00 40.34    -0.000 A 
ATOM      7  CE1 PHE A  61     -35.672 126.413   8.917  1.00 41.51    -0.000 A 
ATOM      8  CD1 PHE A  61     -35.713 127.211  10.053  1.00 39.94    -0.004 A 
ENDBRANCH   2   3
ENDBRANCH   1   2
END_RES PHE A  61
BEGIN_RES VAL A 134
REMARK  1 active torsions:
REMARK  status: ('A' for Active; 'I' for Inactive)
REMARK    3  A    between atoms: CA   and  CB  
ROOT
ATOM      9  CA  VAL A 134     -29.766 132.051   9.815  1.00 40.75     0.159 C 
ENDROOT
BRANCH   9  10
ATOM     10  CB  VAL A 134     -30.864 132.765   9.009  1.00 40.76     0.029 C 
ATOM     11  CG1 VAL A 134     -31.927 133.336   9.936  1.00 41.76     0.002 C 
ATOM     12  CG2 VAL A 134     -30.287 133.851   8.114  1.00 40.56     0.002 C 
ENDBRANCH   9  10
END_RES VAL A 134
BEGIN_RES TYR A 338
REMARK  3 active torsions:
REMARK  status: ('A' for Active; 'I' for Inactive)
REMARK    4  A    between atoms: CA   and  CB  
REMARK    5  A    between atoms: CB   and  CG  
REMARK    6  A    between atoms: CZ   and  OH  
ROOT
ATOM     13  CA  TYR A 338     -41.631 124.950   6.058  1.00 38.23     0.164 C 
ENDROOT
BRANCH  13  14
ATOM     14  CB  TYR A 338     -41.621 126.456   6.339  1.00 39.15     0.058 C 
BRANCH  14  15
ATOM     15  CG  TYR A 338     -40.400 127.205   5.857  1.00 39.03    -0.020 A 
ATOM     16  CD2 TYR A 338     -40.224 128.540   6.180  1.00 40.65    -0.002 A 
ATOM     17  CE2 TYR A 338     -39.125 129.262   5.742  1.00 40.91     0.024 A 
ATOM     18  CZ  TYR A 338     -38.168 128.646   4.958  1.00 42.33     0.089 A 
ATOM     19  CE1 TYR A 338     -38.319 127.312   4.626  1.00 40.63     0.024 A 
ATOM     20  CD1 TYR A 338     -39.432 126.611   5.063  1.00 39.27    -0.002 A 
BRANCH  18  21
ATOM     21  OH  TYR A 338     -37.077 129.348   4.524  1.00 43.36    -0.359 OA
ATOM     22  HH  TYR A 338     -36.209 129.133   4.845  1.00  0.00     0.217 HD
ENDBRANCH  18  21
ENDBRANCH  14  15
ENDBRANCH  13  14
END_RES TYR A 338
ENDMDL
