MODEL 1
REMARK VINA RESULT:   -10.988      0.000      0.000
REMARK INTER + INTRA:         -13.938
REMARK INTER:                 -10.988
REMARK INTRA:                  -2.951
REMARK UNBOUND:                -2.951
REMARK  0 active torsions:
REMARK  status: ('A' for Active; 'I' for Inactive)
REMARK       I    between atoms: C3_3  and  O3_21 
REMARK       I    between atoms: C6_6  and  C7_7 
REMARK       I    between atoms: C8_8  and  C9_9 
REMARK       I    between atoms: C10_10  and  C11_11 
REMARK       I    between atoms: C12_12  and  C13_13 
REMARK       I    between atoms: C14_14  and  C15_15 
REMARK       I    between atoms: C23_25  and  O23_43 
REMARK       I    between atoms: C26_28  and  C27_29 
REMARK       I    between atoms: C28_30  and  C29_31 
REMARK       I    between atoms: C30_32  and  C31_33 
REMARK       I    between atoms: C32_34  and  C33_35 
REMARK       I    between atoms: C34_36  and  C35_37 
ROOT
HETATM    1  C1  VFQ 31621     -34.415 127.010   6.342  1.00 71.39    -0.018 C 
HETATM    2  C2  VFQ 31621     -34.106 126.533   4.928  1.00 71.39     0.045 C 
HETATM    3  C3  VFQ 31621     -32.942 127.184   4.191  1.00 71.39     0.123 C 
HETATM    4  C4  VFQ 31621     -31.874 127.661   5.151  1.00 71.39     0.066 C 
HETATM    5  C5  VFQ 31621     -32.541 128.593   6.118  1.00 71.39    -0.074 C 
HETATM    6  C6  VFQ 31621     -33.647 128.241   6.770  1.00 71.39    -0.048 C 
HETATM    7  C7  VFQ 31621     -34.168 129.021   7.926  1.00 71.39     0.009 C 
HETATM    8  C8  VFQ 31621     -34.919 130.109   7.750  1.00 71.39     0.007 C 
HETATM    9  C9  VFQ 31621     -35.496 130.918   8.840  1.00 71.39    -0.062 C 
HETATM   10  C10 VFQ 31621     -36.382 131.850   8.478  1.00 71.39     0.007 C 
HETATM   11  C11 VFQ 31621     -37.112 132.757   9.356  1.00 71.39     0.001 C 
HETATM   12  C12 VFQ 31621     -37.972 133.554   8.722  1.00 71.39     0.007 C 
HETATM   13  C13 VFQ 31621     -38.854 134.536   9.371  1.00 71.39    -0.062 C 
HETATM   14  C14 VFQ 31621     -39.688 135.240   8.596  1.00 71.39     0.007 C 
HETATM   15  C15 VFQ 31621     -40.628 136.201   9.155  1.00 71.39     0.001 C 
HETATM   16  C16 VFQ 31621     -34.171 125.850   7.301  1.00 71.39     0.020 C 
HETATM   17  C17 VFQ 31621     -35.887 127.360   6.404  1.00 71.39     0.020 C 
HETATM   18  C18 VFQ 31621     -31.579 129.594   6.658  1.00 71.39     0.044 C 
HETATM   19  C19 VFQ 31621     -35.130 130.706  10.275  1.00 71.39     0.048 C 
HETATM   20  C20 VFQ 31621     -38.839 134.725  10.855  1.00 71.39     0.048 C 
HETATM   21  O3  VFQ 31621     -32.346 126.220   3.318  1.00 71.39    -0.395 OA
ATOM     22  H3  VFQ 31621     -31.619 126.626   2.859  1.00  0.00     0.210 HD
HETATM   23  C21 VFQ 31621     -50.271 144.283  10.704  1.00 51.52    -0.018 C 
HETATM   24  C22 VFQ 31621     -51.240 145.159  11.484  1.00 51.52     0.045 C 
HETATM   25  C23 VFQ 31621     -50.647 146.327  12.242  1.00 51.52     0.123 C 
HETATM   26  C24 VFQ 31621     -49.349 145.908  12.889  1.00 51.52     0.066 C 
HETATM   27  C25 VFQ 31621     -48.394 145.454  11.828  1.00 51.52    -0.074 C 
HETATM   28  C26 VFQ 31621     -48.802 144.642  10.851  1.00 51.52    -0.048 C 
HETATM   29  C27 VFQ 31621     -47.863 144.056   9.860  1.00 51.52     0.009 C 
HETATM   30  C28 VFQ 31621     -47.161 142.947  10.111  1.00 51.52     0.007 C 
HETATM   31  C29 VFQ 31621     -46.267 142.317   9.148  1.00 71.39    -0.062 C 
HETATM   32  C30 VFQ 31621     -45.845 141.077   9.412  1.00 71.39     0.007 C 
HETATM   33  C31 VFQ 31621     -44.957 140.319   8.541  1.00 71.39     0.001 C 
HETATM   34  C32 VFQ 31621     -44.115 139.482   9.128  1.00 71.39     0.007 C 
HETATM   35  C33 VFQ 31621     -43.172 138.652   8.372  1.00 71.39    -0.062 C 
HETATM   36  C34 VFQ 31621     -42.330 137.858   9.036  1.00 71.39     0.007 C 
HETATM   37  C35 VFQ 31621     -41.381 136.972   8.375  1.00 71.39     0.001 C 
HETATM   38  C36 VFQ 31621     -50.623 144.419   9.241  1.00 51.52     0.020 C 
HETATM   39  C37 VFQ 31621     -50.529 142.839  11.105  1.00 51.52     0.020 C 
HETATM   40  C38 VFQ 31621     -46.989 145.960  11.928  1.00 51.52     0.044 C 
HETATM   41  C39 VFQ 31621     -45.851 143.048   7.911  1.00 71.39     0.048 C 
HETATM   42  C40 VFQ 31621     -43.182 138.724   6.887  1.00 71.39     0.048 C 
HETATM   43  O23 VFQ 31621     -51.555 146.713  13.275  1.00 51.52    -0.395 OA
ATOM     44  H23 VFQ 31621     -51.183 147.446  13.751  1.00  0.00     0.210 HD
ENDROOT
TORSDOF 12
BEGIN_RES PHE A  61
REMARK  2 active torsions:
REMARK  status: ('A' for Active; 'I' for Inactive)
REMARK    1  A    between atoms: CA   and  CB  
REMARK    2  A    between atoms: CB   and  CG  
ROOT
ATOM      1  CA  PHE A  61     -36.237 128.293  12.768  1.00 39.40     0.164 C 
ENDROOT
BRANCH   1   2
ATOM      2  CB  PHE A  61     -36.813 128.951  11.509  1.00 39.41     0.058 C 
BRANCH   2   3
ATOM      3  CG  PHE A  61     -37.056 127.999  10.363  1.00 39.01    -0.020 A 
ATOM      4  CD2 PHE A  61     -36.291 126.852  10.215  1.00 40.32    -0.004 A 
ATOM      5  CE2 PHE A  61     -36.514 125.979   9.158  1.00 40.20    -0.000 A 
ATOM      6  CZ  PHE A  61     -37.505 126.239   8.240  1.00 40.34    -0.000 A 
ATOM      7  CE1 PHE A  61     -38.276 127.373   8.374  1.00 41.51    -0.000 A 
ATOM      8  CD1 PHE A  61     -38.049 128.250   9.426  1.00 39.94    -0.004 A 
ENDBRANCH   2   3
ENDBRANCH   1   2
END_RES PHE A  61
BEGIN_RES VAL A 134
REMARK  1 active torsions:
REMARK  status: ('A' for Active; 'I' for Inactive)
REMARK    3  A    between atoms: CA   and  CB  
ROOT
ATOM      9  CA  VAL A 134     -29.766 132.051   9.815  1.00 40.75     0.159 C 
ENDROOT
BRANCH   9  10
ATOM     10  CB  VAL A 134     -30.864 132.765   9.009  1.00 40.76     0.029 C 
ATOM     11  CG1 VAL A 134     -30.897 132.255   7.576  1.00 41.76     0.002 C 
ATOM     12  CG2 VAL A 134     -32.228 132.619   9.666  1.00 40.56     0.002 C 
ENDBRANCH   9  10
END_RES VAL A 134
BEGIN_RES TYR A 338
REMARK  3 active torsions:
REMARK  status: ('A' for Active; 'I' for Inactive)
REMARK    4  A    between atoms: CA   and  CB  
REMARK    5  A    between atoms: CB   and  CG  
REMARK    6  A    between atoms: CZ   and  OH  
ROOT
ATOM     13  CA  TYR A 338     -41.631 124.950   6.058  1.00 38.23     0.164 C 
ENDROOT
BRANCH  13  14
ATOM     14  CB  TYR A 338     -41.621 126.456   6.339  1.00 39.15     0.058 C 
BRANCH  14  15
ATOM     15  CG  TYR A 338     -40.408 127.208   5.843  1.00 39.03    -0.020 A 
ATOM     16  CD2 TYR A 338     -40.239 128.548   6.149  1.00 40.65    -0.002 A 
ATOM     17  CE2 TYR A 338     -39.147 129.272   5.698  1.00 40.91     0.024 A 
ATOM     18  CZ  TYR A 338     -38.189 128.654   4.916  1.00 42.33     0.089 A 
ATOM     19  CE1 TYR A 338     -38.332 127.314   4.601  1.00 40.63     0.024 A 
ATOM     20  CD1 TYR A 338     -39.439 126.611   5.051  1.00 39.27    -0.002 A 
BRANCH  18  21
ATOM     21  OH  TYR A 338     -37.106 129.357   4.470  1.00 43.36    -0.359 OA
ATOM     22  HH  TYR A 338     -37.087 130.305   4.537  1.00  0.00     0.217 HD
ENDBRANCH  18  21
ENDBRANCH  14  15
ENDBRANCH  13  14
END_RES TYR A 338
ENDMDL
