MODEL 1
REMARK VINA RESULT:   -12.166      0.000      0.000
REMARK INTER + INTRA:         -12.156
REMARK INTER:                 -12.166
REMARK INTRA:                   0.009
REMARK UNBOUND:                 0.009
REMARK  0 active torsions:
REMARK  status: ('A' for Active; 'I' for Inactive)
REMARK       I    between atoms: C3_3  and  O3_21 
REMARK       I    between atoms: C6_6  and  C7_7 
REMARK       I    between atoms: C8_8  and  C9_9 
REMARK       I    between atoms: C10_10  and  C11_11 
REMARK       I    between atoms: C12_12  and  C13_13 
REMARK       I    between atoms: C14_14  and  C15_15 
REMARK       I    between atoms: C23_25  and  O23_43 
REMARK       I    between atoms: C26_28  and  C27_29 
REMARK       I    between atoms: C28_30  and  C29_31 
REMARK       I    between atoms: C30_32  and  C31_33 
REMARK       I    between atoms: C32_34  and  C33_35 
REMARK       I    between atoms: C34_36  and  C35_37 
ROOT
HETATM    1  C1  VFQ V1620     -49.771 144.081   9.910  1.00 15.23    -0.018 C 
HETATM    2  C2  VFQ V1620     -50.221 143.837  11.337  1.00 15.23     0.045 C 
HETATM    3  C3  VFQ V1620     -49.288 144.371  12.392  1.00 15.23     0.123 C 
HETATM    4  C4  VFQ V1620     -48.921 145.773  12.010  1.00 15.23     0.066 C 
HETATM    5  C5  VFQ V1620     -48.186 145.783  10.705  1.00 15.23    -0.074 C 
HETATM    6  C6  VFQ V1620     -48.518 144.904   9.757  1.00 15.23    -0.048 C 
HETATM    7  C7  VFQ V1620     -47.567 144.488   8.722  1.00 15.23     0.009 C 
HETATM    8  C8  VFQ V1620     -46.427 144.031   9.248  1.00 15.23     0.007 C 
HETATM    9  C9  VFQ V1620     -45.403 143.367   8.418  1.00 15.23    -0.062 C 
HETATM   10  C10 VFQ V1620     -44.468 142.656   9.063  1.00 15.23     0.007 C 
HETATM   11  C11 VFQ V1620     -43.472 141.837   8.387  1.00 15.23     0.001 C 
HETATM   12  C12 VFQ V1620     -42.756 140.975   9.093  1.00 15.23     0.007 C 
HETATM   13  C13 VFQ V1620     -41.813 140.051   8.448  1.00 15.23    -0.062 C 
HETATM   14  C14 VFQ V1620     -41.300 139.074   9.203  1.00 15.23     0.007 C 
HETATM   15  C15 VFQ V1620     -40.393 138.045   8.708  1.00 15.23     0.001 C 
HETATM   16  C16 VFQ V1620     -50.858 144.913   9.257  1.00 15.23     0.020 C 
HETATM   17  C17 VFQ V1620     -49.626 142.736   9.224  1.00 15.23     0.020 C 
HETATM   18  C18 VFQ V1620     -46.912 146.575  10.719  1.00 15.23     0.044 C 
HETATM   19  C19 VFQ V1620     -45.468 143.467   6.921  1.00 15.23     0.048 C 
HETATM   20  C20 VFQ V1620     -41.513 140.213   6.996  1.00 15.23     0.048 C 
HETATM   21  O3  VFQ V1620     -49.978 144.447  13.634  1.00 15.23    -0.395 OA
ATOM     22  H3  VFQ V1620     -49.390 144.783  14.299  1.00  0.00     0.210 HD
HETATM   23  C21 VFQ V1620     -33.941 127.909   7.166  1.00 46.63    -0.018 C 
HETATM   24  C22 VFQ V1620     -33.042 127.086   6.246  1.00 46.63     0.045 C 
HETATM   25  C23 VFQ V1620     -31.710 127.739   5.903  1.00 46.63     0.123 C 
HETATM   26  C24 VFQ V1620     -31.888 129.243   5.800  1.00 46.63     0.066 C 
HETATM   27  C25 VFQ V1620     -32.297 129.741   7.158  1.00 46.63    -0.074 C 
HETATM   28  C26 VFQ V1620     -33.220 129.050   7.834  1.00 46.63    -0.048 C 
HETATM   29  C27 VFQ V1620     -33.795 129.593   9.063  1.00 46.63     0.009 C 
HETATM   30  C28 VFQ V1620     -34.527 130.658   8.715  1.00 46.63     0.007 C 
HETATM   31  C29 VFQ V1620     -35.376 131.375   9.677  1.00 15.23    -0.062 C 
HETATM   32  C30 VFQ V1620     -36.136 132.335   9.145  1.00 15.23     0.007 C 
HETATM   33  C31 VFQ V1620     -37.059 133.183   9.876  1.00 15.23     0.001 C 
HETATM   34  C32 VFQ V1620     -37.682 134.134   9.190  1.00 15.23     0.007 C 
HETATM   35  C33 VFQ V1620     -38.603 135.079   9.826  1.00 15.23    -0.062 C 
HETATM   36  C34 VFQ V1620     -39.092 136.063   9.059  1.00 15.23     0.007 C 
HETATM   37  C35 VFQ V1620     -39.994 137.099   9.540  1.00 15.23     0.001 C 
HETATM   38  C36 VFQ V1620     -34.523 127.013   8.250  1.00 46.63     0.020 C 
HETATM   39  C37 VFQ V1620     -35.071 128.524   6.352  1.00 46.63     0.020 C 
HETATM   40  C38 VFQ V1620     -31.572 130.937   7.716  1.00 46.63     0.044 C 
HETATM   41  C39 VFQ V1620     -35.383 130.981  11.120  1.00 15.23     0.048 C 
HETATM   42  C40 VFQ V1620     -38.912 134.900  11.275  1.00 15.23     0.048 C 
HETATM   43  O23 VFQ V1620     -31.235 127.236   4.651  1.00 46.63    -0.395 OA
ATOM     44  H23 VFQ V1620     -31.125 126.294   4.716  1.00  0.00     0.210 HD
ENDROOT
TORSDOF 12
BEGIN_RES PHE A  61
REMARK  2 active torsions:
REMARK  status: ('A' for Active; 'I' for Inactive)
REMARK    1  A    between atoms: CA   and  CB  
REMARK    2  A    between atoms: CB   and  CG  
ROOT
ATOM      1  CA  PHE A  61     -36.237 128.293  12.768  1.00 39.40     0.164 C 
ENDROOT
BRANCH   1   2
ATOM      2  CB  PHE A  61     -36.813 128.951  11.509  1.00 39.41     0.058 C 
BRANCH   2   3
ATOM      3  CG  PHE A  61     -37.035 128.003  10.355  1.00 39.01    -0.020 A 
ATOM      4  CD2 PHE A  61     -36.406 126.768  10.317  1.00 40.32    -0.004 A 
ATOM      5  CE2 PHE A  61     -36.609 125.898   9.253  1.00 40.20    -0.000 A 
ATOM      6  CZ  PHE A  61     -37.446 126.250   8.219  1.00 40.34    -0.000 A 
ATOM      7  CE1 PHE A  61     -38.081 127.472   8.243  1.00 41.51    -0.000 A 
ATOM      8  CD1 PHE A  61     -37.873 128.345   9.303  1.00 39.94    -0.004 A 
ENDBRANCH   2   3
ENDBRANCH   1   2
END_RES PHE A  61
BEGIN_RES VAL A 134
REMARK  1 active torsions:
REMARK  status: ('A' for Active; 'I' for Inactive)
REMARK    3  A    between atoms: CA   and  CB  
ROOT
ATOM      9  CA  VAL A 134     -29.766 132.051   9.815  1.00 40.75     0.159 C 
ENDROOT
BRANCH   9  10
ATOM     10  CB  VAL A 134     -30.864 132.765   9.009  1.00 40.76     0.029 C 
ATOM     11  CG1 VAL A 134     -32.105 132.981   9.863  1.00 41.76     0.002 C 
ATOM     12  CG2 VAL A 134     -30.370 134.082   8.432  1.00 40.56     0.002 C 
ENDBRANCH   9  10
END_RES VAL A 134
BEGIN_RES TYR A 338
REMARK  3 active torsions:
REMARK  status: ('A' for Active; 'I' for Inactive)
REMARK    4  A    between atoms: CA   and  CB  
REMARK    5  A    between atoms: CB   and  CG  
REMARK    6  A    between atoms: CZ   and  OH  
ROOT
ATOM     13  CA  TYR A 338     -41.631 124.950   6.058  1.00 38.23     0.164 C 
ENDROOT
BRANCH  13  14
ATOM     14  CB  TYR A 338     -41.621 126.456   6.339  1.00 39.15     0.058 C 
BRANCH  14  15
ATOM     15  CG  TYR A 338     -40.411 127.209   5.836  1.00 39.03    -0.020 A 
ATOM     16  CD2 TYR A 338     -40.260 128.557   6.113  1.00 40.65    -0.002 A 
ATOM     17  CE2 TYR A 338     -39.171 129.283   5.655  1.00 40.91     0.024 A 
ATOM     18  CZ  TYR A 338     -38.200 128.657   4.896  1.00 42.33     0.089 A 
ATOM     19  CE1 TYR A 338     -38.326 127.309   4.610  1.00 40.63     0.024 A 
ATOM     20  CD1 TYR A 338     -39.429 126.604   5.067  1.00 39.27    -0.002 A 
BRANCH  18  21
ATOM     21  OH  TYR A 338     -37.120 129.362   4.442  1.00 43.36    -0.359 OA
ATOM     22  HH  TYR A 338     -36.256 128.966   4.437  1.00  0.00     0.217 HD
ENDBRANCH  18  21
ENDBRANCH  14  15
ENDBRANCH  13  14
END_RES TYR A 338
ENDMDL
MODEL 2
REMARK VINA RESULT:   -11.519      0.936     16.043
REMARK INTER + INTRA:         -11.509
REMARK INTER:                  -9.117
REMARK INTRA:                  -2.392
REMARK UNBOUND:                 0.009
REMARK  0 active torsions:
REMARK  status: ('A' for Active; 'I' for Inactive)
REMARK       I    between atoms: C3_3  and  O3_21 
REMARK       I    between atoms: C6_6  and  C7_7 
REMARK       I    between atoms: C8_8  and  C9_9 
REMARK       I    between atoms: C10_10  and  C11_11 
REMARK       I    between atoms: C12_12  and  C13_13 
REMARK       I    between atoms: C14_14  and  C15_15 
REMARK       I    between atoms: C23_25  and  O23_43 
REMARK       I    between atoms: C26_28  and  C27_29 
REMARK       I    between atoms: C28_30  and  C29_31 
REMARK       I    between atoms: C30_32  and  C31_33 
REMARK       I    between atoms: C32_34  and  C33_35 
REMARK       I    between atoms: C34_36  and  C35_37 
ROOT
HETATM    1  C1  VFQ V1620     -34.273 127.205   6.666  1.00 15.23    -0.018 C 
HETATM    2  C2  VFQ V1620     -34.104 127.272   5.161  1.00 15.23     0.045 C 
HETATM    3  C3  VFQ V1620     -33.223 128.393   4.675  1.00 15.23     0.123 C 
HETATM    4  C4  VFQ V1620     -31.980 128.394   5.515  1.00 15.23     0.066 C 
HETATM    5  C5  VFQ V1620     -32.318 128.669   6.948  1.00 15.23    -0.074 C 
HETATM    6  C6  VFQ V1620     -33.460 128.199   7.456  1.00 15.23    -0.048 C 
HETATM    7  C7  VFQ V1620     -34.110 128.829   8.609  1.00 15.23     0.009 C 
HETATM    8  C8  VFQ V1620     -34.319 130.134   8.412  1.00 15.23     0.007 C 
HETATM    9  C9  VFQ V1620     -35.138 130.935   9.341  1.00 15.23    -0.062 C 
HETATM   10  C10 VFQ V1620     -35.565 132.126   8.899  1.00 15.23     0.007 C 
HETATM   11  C11 VFQ V1620     -36.489 132.976   9.639  1.00 15.23     0.001 C 
HETATM   12  C12 VFQ V1620     -37.054 134.004   9.026  1.00 15.23     0.007 C 
HETATM   13  C13 VFQ V1620     -38.070 134.830   9.692  1.00 15.23    -0.062 C 
HETATM   14  C14 VFQ V1620     -38.742 135.702   8.935  1.00 15.23     0.007 C 
HETATM   15  C15 VFQ V1620     -39.816 136.559   9.426  1.00 15.23     0.001 C 
HETATM   16  C16 VFQ V1620     -33.743 125.850   7.094  1.00 15.23     0.020 C 
HETATM   17  C17 VFQ V1620     -35.752 127.338   6.982  1.00 15.23     0.020 C 
HETATM   18  C18 VFQ V1620     -31.484 129.740   7.585  1.00 15.23     0.044 C 
HETATM   19  C19 VFQ V1620     -35.497 130.387  10.692  1.00 15.23     0.048 C 
HETATM   20  C20 VFQ V1620     -38.334 134.627  11.146  1.00 15.23     0.048 C 
HETATM   21  O3  VFQ V1620     -32.818 128.127   3.337  1.00 15.23    -0.395 OA
ATOM     22  H3  VFQ V1620     -32.263 128.834   3.032  1.00  0.00     0.210 HD
HETATM   23  C21 VFQ V1620     -49.539 143.718  10.399  1.00 46.63    -0.018 C 
HETATM   24  C22 VFQ V1620     -50.545 144.399  11.324  1.00 46.63     0.045 C 
HETATM   25  C23 VFQ V1620     -49.947 145.435  12.266  1.00 46.63     0.123 C 
HETATM   26  C24 VFQ V1620     -48.557 144.997  12.692  1.00 46.63     0.066 C 
HETATM   27  C25 VFQ V1620     -47.699 144.964  11.458  1.00 46.63    -0.074 C 
HETATM   28  C26 VFQ V1620     -48.209 144.422  10.347  1.00 46.63    -0.048 C 
HETATM   29  C27 VFQ V1620     -47.358 144.185   9.183  1.00 46.63     0.009 C 
HETATM   30  C28 VFQ V1620     -46.492 143.222   9.521  1.00 46.63     0.007 C 
HETATM   31  C29 VFQ V1620     -45.572 142.617   8.548  1.00 15.23    -0.062 C 
HETATM   32  C30 VFQ V1620     -44.864 141.585   9.014  1.00 15.23     0.007 C 
HETATM   33  C31 VFQ V1620     -43.892 140.817   8.258  1.00 15.23     0.001 C 
HETATM   34  C32 VFQ V1620     -43.231 139.868   8.909  1.00 15.23     0.007 C 
HETATM   35  C33 VFQ V1620     -42.196 139.057   8.264  1.00 15.23    -0.062 C 
HETATM   36  C34 VFQ V1620     -41.519 138.201   9.042  1.00 15.23     0.007 C 
HETATM   37  C35 VFQ V1620     -40.443 137.344   8.567  1.00 15.23     0.001 C 
HETATM   38  C36 VFQ V1620     -50.101 143.657   8.985  1.00 46.63     0.020 C 
HETATM   39  C37 VFQ V1620     -49.267 142.306  10.900  1.00 46.63     0.020 C 
HETATM   40  C38 VFQ V1620     -46.349 145.627  11.521  1.00 46.63     0.044 C 
HETATM   41  C39 VFQ V1620     -45.514 143.128   7.143  1.00 15.23     0.048 C 
HETATM   42  C40 VFQ V1620     -41.949 139.253   6.805  1.00 15.23     0.048 C 
HETATM   43  O23 VFQ V1620     -50.774 145.564  13.427  1.00 46.63    -0.395 OA
ATOM     44  H23 VFQ V1620     -51.644 145.837  13.160  1.00  0.00     0.210 HD
ENDROOT
TORSDOF 12
BEGIN_RES PHE A  61
REMARK  2 active torsions:
REMARK  status: ('A' for Active; 'I' for Inactive)
REMARK    1  A    between atoms: CA   and  CB  
REMARK    2  A    between atoms: CB   and  CG  
ROOT
ATOM      1  CA  PHE A  61     -36.237 128.293  12.768  1.00 39.40     0.164 C 
ENDROOT
BRANCH   1   2
ATOM      2  CB  PHE A  61     -36.813 128.951  11.509  1.00 39.41     0.058 C 
BRANCH   2   3
ATOM      3  CG  PHE A  61     -37.106 127.991  10.381  1.00 39.01    -0.020 A 
ATOM      4  CD2 PHE A  61     -36.395 126.808  10.251  1.00 40.32    -0.004 A 
ATOM      5  CE2 PHE A  61     -36.664 125.927   9.211  1.00 40.20    -0.000 A 
ATOM      6  CZ  PHE A  61     -37.648 126.216   8.293  1.00 40.34    -0.000 A 
ATOM      7  CE1 PHE A  61     -38.365 127.386   8.410  1.00 41.51    -0.000 A 
ATOM      8  CD1 PHE A  61     -38.092 128.270   9.446  1.00 39.94    -0.004 A 
ENDBRANCH   2   3
ENDBRANCH   1   2
END_RES PHE A  61
BEGIN_RES VAL A 134
REMARK  1 active torsions:
REMARK  status: ('A' for Active; 'I' for Inactive)
REMARK    3  A    between atoms: CA   and  CB  
ROOT
ATOM      9  CA  VAL A 134     -29.766 132.051   9.815  1.00 40.75     0.159 C 
ENDROOT
BRANCH   9  10
ATOM     10  CB  VAL A 134     -30.864 132.765   9.009  1.00 40.76     0.029 C 
ATOM     11  CG1 VAL A 134     -31.001 132.150   7.624  1.00 41.76     0.002 C 
ATOM     12  CG2 VAL A 134     -32.197 132.750   9.741  1.00 40.56     0.002 C 
ENDBRANCH   9  10
END_RES VAL A 134
BEGIN_RES TYR A 338
REMARK  3 active torsions:
REMARK  status: ('A' for Active; 'I' for Inactive)
REMARK    4  A    between atoms: CA   and  CB  
REMARK    5  A    between atoms: CB   and  CG  
REMARK    6  A    between atoms: CZ   and  OH  
ROOT
ATOM     13  CA  TYR A 338     -41.631 124.950   6.058  1.00 38.23     0.164 C 
ENDROOT
BRANCH  13  14
ATOM     14  CB  TYR A 338     -41.621 126.456   6.339  1.00 39.15     0.058 C 
BRANCH  14  15
ATOM     15  CG  TYR A 338     -40.402 127.206   5.853  1.00 39.03    -0.020 A 
ATOM     16  CD2 TYR A 338     -40.232 128.544   6.166  1.00 40.65    -0.002 A 
ATOM     17  CE2 TYR A 338     -39.134 129.267   5.724  1.00 40.91     0.024 A 
ATOM     18  CZ  TYR A 338     -38.173 128.648   4.947  1.00 42.33     0.089 A 
ATOM     19  CE1 TYR A 338     -38.318 127.310   4.625  1.00 40.63     0.024 A 
ATOM     20  CD1 TYR A 338     -39.430 126.609   5.066  1.00 39.27    -0.002 A 
BRANCH  18  21
ATOM     21  OH  TYR A 338     -37.084 129.350   4.510  1.00 43.36    -0.359 OA
ATOM     22  HH  TYR A 338     -36.954 130.252   4.779  1.00  0.00     0.217 HD
ENDBRANCH  18  21
ENDBRANCH  14  15
ENDBRANCH  13  14
END_RES TYR A 338
ENDMDL
MODEL 3
REMARK VINA RESULT:   -10.111      1.157     16.072
REMARK INTER + INTRA:         -10.102
REMARK INTER:                  -8.359
REMARK INTRA:                  -1.743
REMARK UNBOUND:                 0.009
REMARK  0 active torsions:
REMARK  status: ('A' for Active; 'I' for Inactive)
REMARK       I    between atoms: C3_3  and  O3_21 
REMARK       I    between atoms: C6_6  and  C7_7 
REMARK       I    between atoms: C8_8  and  C9_9 
REMARK       I    between atoms: C10_10  and  C11_11 
REMARK       I    between atoms: C12_12  and  C13_13 
REMARK       I    between atoms: C14_14  and  C15_15 
REMARK       I    between atoms: C23_25  and  O23_43 
REMARK       I    between atoms: C26_28  and  C27_29 
REMARK       I    between atoms: C28_30  and  C29_31 
REMARK       I    between atoms: C30_32  and  C31_33 
REMARK       I    between atoms: C32_34  and  C33_35 
REMARK       I    between atoms: C34_36  and  C35_37 
ROOT
HETATM    1  C1  VFQ V1620     -33.831 129.043   7.134  1.00 15.23    -0.018 C 
HETATM    2  C2  VFQ V1620     -33.025 129.546   5.952  1.00 15.23     0.045 C 
HETATM    3  C3  VFQ V1620     -32.083 130.678   6.269  1.00 15.23     0.123 C 
HETATM    4  C4  VFQ V1620     -31.334 130.314   7.516  1.00 15.23     0.066 C 
HETATM    5  C5  VFQ V1620     -32.278 130.172   8.669  1.00 15.23    -0.074 C 
HETATM    6  C6  VFQ V1620     -33.500 129.675   8.462  1.00 15.23    -0.048 C 
HETATM    7  C7  VFQ V1620     -34.622 129.982   9.355  1.00 15.23     0.009 C 
HETATM    8  C8  VFQ V1620     -34.794 131.298   9.503  1.00 15.23     0.007 C 
HETATM    9  C9  VFQ V1620     -35.979 131.851  10.186  1.00 15.23    -0.062 C 
HETATM   10  C10 VFQ V1620     -36.234 133.153   9.997  1.00 15.23     0.007 C 
HETATM   11  C11 VFQ V1620     -37.432 133.819  10.490  1.00 15.23     0.001 C 
HETATM   12  C12 VFQ V1620     -37.728 135.030  10.047  1.00 15.23     0.007 C 
HETATM   13  C13 VFQ V1620     -38.977 135.704  10.430  1.00 15.23    -0.062 C 
HETATM   14  C14 VFQ V1620     -39.297 136.821   9.769  1.00 15.23     0.007 C 
HETATM   15  C15 VFQ V1620     -40.523 137.582   9.989  1.00 15.23     0.001 C 
HETATM   16  C16 VFQ V1620     -33.468 127.580   7.304  1.00 15.23     0.020 C 
HETATM   17  C17 VFQ V1620     -35.304 129.205   6.806  1.00 15.23     0.020 C 
HETATM   18  C18 VFQ V1620     -31.866 130.921   9.902  1.00 15.23     0.044 C 
HETATM   19  C19 VFQ V1620     -36.861 130.955  11.006  1.00 15.23     0.048 C 
HETATM   20  C20 VFQ V1620     -39.838 135.095  11.485  1.00 15.23     0.048 C 
HETATM   21  O3  VFQ V1620     -31.122 130.794   5.226  1.00 15.23    -0.395 OA
ATOM     22  H3  VFQ V1620     -30.528 131.507   5.426  1.00  0.00     0.210 HD
HETATM   23  C21 VFQ V1620     -50.069 144.951   8.848  1.00 46.63    -0.018 C 
HETATM   24  C22 VFQ V1620     -51.413 145.408   9.410  1.00 46.63     0.045 C 
HETATM   25  C23 VFQ V1620     -51.343 146.052  10.788  1.00 46.63     0.123 C 
HETATM   26  C24 VFQ V1620     -50.257 145.384  11.612  1.00 46.63     0.066 C 
HETATM   27  C25 VFQ V1620     -48.946 145.648  10.925  1.00 46.63    -0.074 C 
HETATM   28  C26 VFQ V1620     -48.890 145.516   9.595  1.00 46.63    -0.048 C 
HETATM   29  C27 VFQ V1620     -47.605 145.566   8.902  1.00 46.63     0.009 C 
HETATM   30  C28 VFQ V1620     -46.922 144.473   9.263  1.00 46.63     0.007 C 
HETATM   31  C29 VFQ V1620     -45.638 144.110   8.647  1.00 15.23    -0.062 C 
HETATM   32  C30 VFQ V1620     -45.150 142.927   9.026  1.00 15.23     0.007 C 
HETATM   33  C31 VFQ V1620     -43.905 142.340   8.566  1.00 15.23     0.001 C 
HETATM   34  C32 VFQ V1620     -43.544 141.183   9.107  1.00 15.23     0.007 C 
HETATM   35  C33 VFQ V1620     -42.288 140.516   8.755  1.00 15.23    -0.062 C 
HETATM   36  C34 VFQ V1620     -41.974 139.408   9.440  1.00 15.23     0.007 C 
HETATM   37  C35 VFQ V1620     -40.754 138.642   9.235  1.00 15.23     0.001 C 
HETATM   38  C36 VFQ V1620     -49.953 145.370   7.389  1.00 46.63     0.020 C 
HETATM   39  C37 VFQ V1620     -49.966 143.435   8.952  1.00 46.63     0.020 C 
HETATM   40  C38 VFQ V1620     -47.798 146.138  11.766  1.00 46.63     0.044 C 
HETATM   41  C39 VFQ V1620     -45.001 145.015   7.640  1.00 15.23     0.048 C 
HETATM   42  C40 VFQ V1620     -41.441 141.121   7.686  1.00 15.23     0.048 C 
HETATM   43  O23 VFQ V1620     -52.600 145.897  11.455  1.00 46.63    -0.395 OA
ATOM     44  H23 VFQ V1620     -53.279 146.315  10.939  1.00  0.00     0.210 HD
ENDROOT
TORSDOF 12
BEGIN_RES PHE A  61
REMARK  2 active torsions:
REMARK  status: ('A' for Active; 'I' for Inactive)
REMARK    1  A    between atoms: CA   and  CB  
REMARK    2  A    between atoms: CB   and  CG  
ROOT
ATOM      1  CA  PHE A  61     -36.237 128.293  12.768  1.00 39.40     0.164 C 
ENDROOT
BRANCH   1   2
ATOM      2  CB  PHE A  61     -36.813 128.951  11.509  1.00 39.41     0.058 C 
BRANCH   2   3
ATOM      3  CG  PHE A  61     -36.846 128.053  10.295  1.00 39.01    -0.020 A 
ATOM      4  CD2 PHE A  61     -37.876 128.142   9.372  1.00 40.32    -0.004 A 
ATOM      5  CE2 PHE A  61     -37.907 127.313   8.258  1.00 40.20    -0.000 A 
ATOM      6  CZ  PHE A  61     -36.908 126.390   8.052  1.00 40.34    -0.000 A 
ATOM      7  CE1 PHE A  61     -35.876 126.291   8.958  1.00 41.51    -0.000 A 
ATOM      8  CD1 PHE A  61     -35.848 127.115  10.076  1.00 39.94    -0.004 A 
ENDBRANCH   2   3
ENDBRANCH   1   2
END_RES PHE A  61
BEGIN_RES VAL A 134
REMARK  1 active torsions:
REMARK  status: ('A' for Active; 'I' for Inactive)
REMARK    3  A    between atoms: CA   and  CB  
ROOT
ATOM      9  CA  VAL A 134     -29.766 132.051   9.815  1.00 40.75     0.159 C 
ENDROOT
BRANCH   9  10
ATOM     10  CB  VAL A 134     -30.864 132.765   9.009  1.00 40.76     0.029 C 
ATOM     11  CG1 VAL A 134     -31.903 133.375   9.938  1.00 41.76     0.002 C 
ATOM     12  CG2 VAL A 134     -30.283 133.821   8.081  1.00 40.56     0.002 C 
ENDBRANCH   9  10
END_RES VAL A 134
BEGIN_RES TYR A 338
REMARK  3 active torsions:
REMARK  status: ('A' for Active; 'I' for Inactive)
REMARK    4  A    between atoms: CA   and  CB  
REMARK    5  A    between atoms: CB   and  CG  
REMARK    6  A    between atoms: CZ   and  OH  
ROOT
ATOM     13  CA  TYR A 338     -41.631 124.950   6.058  1.00 38.23     0.164 C 
ENDROOT
BRANCH  13  14
ATOM     14  CB  TYR A 338     -41.621 126.456   6.339  1.00 39.15     0.058 C 
BRANCH  14  15
ATOM     15  CG  TYR A 338     -40.412 127.210   5.834  1.00 39.03    -0.020 A 
ATOM     16  CD2 TYR A 338     -39.445 126.561   5.085  1.00 40.65    -0.002 A 
ATOM     17  CE2 TYR A 338     -38.316 127.218   4.619  1.00 40.91     0.024 A 
ATOM     18  CZ  TYR A 338     -38.135 128.558   4.902  1.00 42.33     0.089 A 
ATOM     19  CE1 TYR A 338     -39.091 129.229   5.645  1.00 40.63     0.024 A 
ATOM     20  CD1 TYR A 338     -40.207 128.552   6.113  1.00 39.27    -0.002 A 
BRANCH  18  21
ATOM     21  OH  TYR A 338     -37.028 129.216   4.444  1.00 43.36    -0.359 OA
ATOM     22  HH  TYR A 338     -36.199 128.761   4.361  1.00  0.00     0.217 HD
ENDBRANCH  18  21
ENDBRANCH  14  15
ENDBRANCH  13  14
END_RES TYR A 338
ENDMDL
