MODEL 1
REMARK VINA RESULT:   -12.580      0.000      0.000
REMARK INTER + INTRA:         -15.059
REMARK INTER:                 -12.580
REMARK INTRA:                  -2.479
REMARK UNBOUND:                -2.479
REMARK  0 active torsions:
REMARK  status: ('A' for Active; 'I' for Inactive)
REMARK       I    between atoms: C3_3  and  O3_21 
REMARK       I    between atoms: C6_6  and  C7_7 
REMARK       I    between atoms: C8_8  and  C9_9 
REMARK       I    between atoms: C10_10  and  C11_11 
REMARK       I    between atoms: C12_12  and  C13_13 
REMARK       I    between atoms: C14_14  and  C15_15 
REMARK       I    between atoms: C23_25  and  O23_43 
REMARK       I    between atoms: C26_28  and  C27_29 
REMARK       I    between atoms: C28_30  and  C29_31 
REMARK       I    between atoms: C30_32  and  C31_33 
REMARK       I    between atoms: C32_34  and  C33_35 
REMARK       I    between atoms: C34_36  and  C35_37 
ROOT
HETATM    1  C1  VFQ 4 620     -34.244 127.075   6.599  1.00 26.49    -0.018 C 
HETATM    2  C2  VFQ 4 620     -33.764 126.603   5.229  1.00 26.49     0.045 C 
HETATM    3  C3  VFQ 4 620     -32.661 127.410   4.564  1.00 26.49     0.123 C 
HETATM    4  C4  VFQ 4 620     -31.636 127.838   5.594  1.00 26.49     0.066 C 
HETATM    5  C5  VFQ 4 620     -32.349 128.687   6.604  1.00 26.49    -0.074 C 
HETATM    6  C6  VFQ 4 620     -33.513 128.293   7.140  1.00 26.49    -0.048 C 
HETATM    7  C7  VFQ 4 620     -34.073 129.050   8.297  1.00 26.49     0.009 C 
HETATM    8  C8  VFQ 4 620     -34.910 130.078   8.133  1.00 26.49     0.007 C 
HETATM    9  C9  VFQ 4 620     -35.494 130.884   9.226  1.00 26.49    -0.062 C 
HETATM   10  C10 VFQ 4 620     -36.413 131.789   8.867  1.00 26.49     0.007 C 
HETATM   11  C11 VFQ 4 620     -37.139 132.717   9.728  1.00 26.49     0.001 C 
HETATM   12  C12 VFQ 4 620     -37.585 133.811   9.112  1.00 26.49     0.007 C 
HETATM   13  C13 VFQ 4 620     -38.390 134.866   9.747  1.00 26.49    -0.062 C 
HETATM   14  C14 VFQ 4 620     -39.046 135.703   8.928  1.00 26.49     0.007 C 
HETATM   15  C15 VFQ 4 620     -39.929 136.755   9.411  1.00 26.49     0.001 C 
HETATM   16  C16 VFQ 4 620     -34.134 125.892   7.553  1.00 26.49     0.020 C 
HETATM   17  C17 VFQ 4 620     -35.707 127.448   6.459  1.00 26.49     0.020 C 
HETATM   18  C18 VFQ 4 620     -31.488 129.735   7.241  1.00 26.49     0.044 C 
HETATM   19  C19 VFQ 4 620     -35.058 130.722  10.651  1.00 26.49     0.048 C 
HETATM   20  C20 VFQ 4 620     -38.499 134.981  11.238  1.00 26.49     0.048 C 
HETATM   21  O3  VFQ 4 620     -32.035 126.609   3.557  1.00 26.49    -0.395 OA
ATOM     22  H3  VFQ 4 620     -31.346 127.114   3.142  1.00  0.00     0.210 HD
HETATM   23  C21 VFQ 4 620     -49.656 145.225   8.930  1.00 25.46    -0.018 C 
HETATM   24  C22 VFQ 4 620     -50.602 146.174   9.663  1.00 25.46     0.045 C 
HETATM   25  C23 VFQ 4 620     -49.979 147.159  10.636  1.00 25.46     0.123 C 
HETATM   26  C24 VFQ 4 620     -48.847 146.500  11.391  1.00 25.46     0.066 C 
HETATM   27  C25 VFQ 4 620     -47.827 146.064  10.380  1.00 25.46    -0.074 C 
HETATM   28  C26 VFQ 4 620     -48.192 145.339   9.318  1.00 25.46    -0.048 C 
HETATM   29  C27 VFQ 4 620     -47.168 144.667   8.466  1.00 25.46     0.009 C 
HETATM   30  C28 VFQ 4 620     -46.686 143.457   8.761  1.00 25.46     0.007 C 
HETATM   31  C29 VFQ 4 620     -45.685 142.740   7.962  1.00 26.49    -0.062 C 
HETATM   32  C30 VFQ 4 620     -45.130 141.654   8.508  1.00 26.49     0.007 C 
HETATM   33  C31 VFQ 4 620     -44.150 140.797   7.854  1.00 26.49     0.001 C 
HETATM   34  C32 VFQ 4 620     -43.399 140.042   8.642  1.00 26.49     0.007 C 
HETATM   35  C33 VFQ 4 620     -42.412 139.087   8.118  1.00 26.49    -0.062 C 
HETATM   36  C34 VFQ 4 620     -41.613 138.438   8.976  1.00 26.49     0.007 C 
HETATM   37  C35 VFQ 4 620     -40.659 137.431   8.527  1.00 26.49     0.001 C 
HETATM   38  C36 VFQ 4 620     -49.722 145.573   7.456  1.00 25.46     0.020 C 
HETATM   39  C37 VFQ 4 620     -50.184 143.810   9.133  1.00 25.46     0.020 C 
HETATM   40  C38 VFQ 4 620     -46.416 146.507  10.598  1.00 25.46     0.044 C 
HETATM   41  C39 VFQ 4 620     -45.322 143.209   6.588  1.00 26.49     0.048 C 
HETATM   42  C40 VFQ 4 620     -42.349 138.831   6.646  1.00 26.49     0.048 C 
HETATM   43  O23 VFQ 4 620     -50.984 147.574  11.564  1.00 25.46    -0.395 OA
ATOM     44  H23 VFQ 4 620     -50.594 148.190  12.172  1.00  0.00     0.210 HD
ENDROOT
TORSDOF 12
BEGIN_RES PHE A  61
REMARK  2 active torsions:
REMARK  status: ('A' for Active; 'I' for Inactive)
REMARK    1  A    between atoms: CA   and  CB  
REMARK    2  A    between atoms: CB   and  CG  
ROOT
ATOM      1  CA  PHE A  61     -36.237 128.293  12.768  1.00 39.40     0.164 C 
ENDROOT
BRANCH   1   2
ATOM      2  CB  PHE A  61     -36.813 128.951  11.509  1.00 39.41     0.058 C 
BRANCH   2   3
ATOM      3  CG  PHE A  61     -37.071 127.996  10.368  1.00 39.01    -0.020 A 
ATOM      4  CD2 PHE A  61     -36.344 126.822  10.245  1.00 40.32    -0.004 A 
ATOM      5  CE2 PHE A  61     -36.580 125.946   9.193  1.00 40.20    -0.000 A 
ATOM      6  CZ  PHE A  61     -37.547 126.231   8.255  1.00 40.34    -0.000 A 
ATOM      7  CE1 PHE A  61     -38.279 127.393   8.365  1.00 41.51    -0.000 A 
ATOM      8  CD1 PHE A  61     -38.039 128.272   9.413  1.00 39.94    -0.004 A 
ENDBRANCH   2   3
ENDBRANCH   1   2
END_RES PHE A  61
BEGIN_RES VAL A 134
REMARK  1 active torsions:
REMARK  status: ('A' for Active; 'I' for Inactive)
REMARK    3  A    between atoms: CA   and  CB  
ROOT
ATOM      9  CA  VAL A 134     -29.766 132.051   9.815  1.00 40.75     0.159 C 
ENDROOT
BRANCH   9  10
ATOM     10  CB  VAL A 134     -30.864 132.765   9.009  1.00 40.76     0.029 C 
ATOM     11  CG1 VAL A 134     -30.851 132.306   7.558  1.00 41.76     0.002 C 
ATOM     12  CG2 VAL A 134     -32.238 132.560   9.628  1.00 40.56     0.002 C 
ENDBRANCH   9  10
END_RES VAL A 134
BEGIN_RES TYR A 338
REMARK  3 active torsions:
REMARK  status: ('A' for Active; 'I' for Inactive)
REMARK    4  A    between atoms: CA   and  CB  
REMARK    5  A    between atoms: CB   and  CG  
REMARK    6  A    between atoms: CZ   and  OH  
ROOT
ATOM     13  CA  TYR A 338     -41.631 124.950   6.058  1.00 38.23     0.164 C 
ENDROOT
BRANCH  13  14
ATOM     14  CB  TYR A 338     -41.621 126.456   6.339  1.00 39.15     0.058 C 
BRANCH  14  15
ATOM     15  CG  TYR A 338     -40.419 127.212   5.822  1.00 39.03    -0.020 A 
ATOM     16  CD2 TYR A 338     -40.257 128.556   6.114  1.00 40.65    -0.002 A 
ATOM     17  CE2 TYR A 338     -39.175 129.284   5.644  1.00 40.91     0.024 A 
ATOM     18  CZ  TYR A 338     -38.221 128.665   4.858  1.00 42.33     0.089 A 
ATOM     19  CE1 TYR A 338     -38.358 127.321   4.556  1.00 40.63     0.024 A 
ATOM     20  CD1 TYR A 338     -39.454 126.614   5.026  1.00 39.27    -0.002 A 
BRANCH  18  21
ATOM     21  OH  TYR A 338     -37.148 129.372   4.392  1.00 43.36    -0.359 OA
ATOM     22  HH  TYR A 338     -37.095 130.311   4.528  1.00  0.00     0.217 HD
ENDBRANCH  18  21
ENDBRANCH  14  15
ENDBRANCH  13  14
END_RES TYR A 338
ENDMDL
