MODEL 1
REMARK VINA RESULT:   -11.352      0.000      0.000
REMARK INTER + INTRA:         -11.992
REMARK INTER:                 -11.352
REMARK INTRA:                  -0.640
REMARK UNBOUND:                -0.640
REMARK  0 active torsions:
REMARK  status: ('A' for Active; 'I' for Inactive)
REMARK       I    between atoms: C3_3  and  O3_21 
REMARK       I    between atoms: C6_6  and  C7_7 
REMARK       I    between atoms: C8_8  and  C9_9 
REMARK       I    between atoms: C10_10  and  C11_11 
REMARK       I    between atoms: C12_12  and  C13_13 
REMARK       I    between atoms: C14_14  and  C15_15 
REMARK       I    between atoms: C23_25  and  O23_43 
REMARK       I    between atoms: C26_28  and  C27_29 
REMARK       I    between atoms: C28_30  and  C29_31 
REMARK       I    between atoms: C30_32  and  C31_33 
REMARK       I    between atoms: C32_34  and  C33_35 
REMARK       I    between atoms: C34_36  and  C35_37 
ROOT
HETATM    1  C1  VFQ 7 622     -49.452 145.851  11.477  1.00 13.75    -0.018 C 
HETATM    2  C2  VFQ 7 622     -50.539 146.406  12.385  1.00 13.75     0.045 C 
HETATM    3  C3  VFQ 7 622     -50.007 146.997  13.671  1.00 13.75     0.123 C 
HETATM    4  C4  VFQ 7 622     -49.013 148.073  13.324  1.00 13.75     0.066 C 
HETATM    5  C5  VFQ 7 622     -47.886 147.477  12.535  1.00 13.75    -0.074 C 
HETATM    6  C6  VFQ 7 622     -48.085 146.500  11.634  1.00 13.75    -0.048 C 
HETATM    7  C7  VFQ 7 622     -47.019 146.029  10.705  1.00 13.75     0.009 C 
HETATM    8  C8  VFQ 7 622     -46.030 145.187  11.032  1.00 13.75     0.007 C 
HETATM    9  C9  VFQ 7 622     -45.028 144.738  10.045  1.00 13.75    -0.062 C 
HETATM   10  C10 VFQ 7 622     -44.305 143.653  10.353  1.00 13.75     0.007 C 
HETATM   11  C11 VFQ 7 622     -43.294 143.038   9.500  1.00 13.75     0.001 C 
HETATM   12  C12 VFQ 7 622     -42.951 141.807   9.862  1.00 13.75     0.007 C 
HETATM   13  C13 VFQ 7 622     -41.983 140.931   9.182  1.00 13.75    -0.062 C 
HETATM   14  C14 VFQ 7 622     -41.610 139.811   9.821  1.00 13.75     0.007 C 
HETATM   15  C15 VFQ 7 622     -40.693 138.838   9.248  1.00 13.75     0.001 C 
HETATM   16  C16 VFQ 7 622     -49.969 145.999  10.054  1.00 13.75     0.020 C 
HETATM   17  C17 VFQ 7 622     -49.281 144.376  11.802  1.00 13.75     0.020 C 
HETATM   18  C18 VFQ 7 622     -46.621 148.265  12.626  1.00 13.75     0.044 C 
HETATM   19  C19 VFQ 7 622     -44.841 145.465   8.748  1.00 13.75     0.048 C 
HETATM   20  C20 VFQ 7 622     -41.464 141.253   7.813  1.00 13.75     0.048 C 
HETATM   21  O3  VFQ 7 622     -51.079 147.573  14.418  1.00 13.75    -0.395 OA
ATOM     22  H3  VFQ 7 622     -51.706 146.894  14.637  1.00  0.00     0.210 HD
HETATM   23  C21 VFQ 7 622     -33.938 128.027   7.164  1.00 19.07    -0.018 C 
HETATM   24  C22 VFQ 7 622     -33.077 127.388   6.056  1.00 18.69     0.045 C 
HETATM   25  C23 VFQ 7 622     -31.745 128.057   5.733  1.00 19.88     0.123 C 
HETATM   26  C24 VFQ 7 622     -31.779 129.592   5.834  1.00 19.59     0.066 C 
HETATM   27  C25 VFQ 7 622     -32.656 130.204   6.881  1.00 18.61    -0.074 C 
HETATM   28  C26 VFQ 7 622     -33.664 129.515   7.520  1.00 18.29    -0.048 C 
HETATM   29  C27 VFQ 7 622     -34.507 130.158   8.551  1.00 19.20     0.009 C 
HETATM   30  C28 VFQ 7 622     -35.540 131.020   8.370  1.00 18.47     0.007 C 
HETATM   31  C29 VFQ 7 622     -36.242 131.767   9.395  1.00 13.75    -0.062 C 
HETATM   32  C30 VFQ 7 622     -37.166 132.642   8.980  1.00 13.75     0.007 C 
HETATM   33  C31 VFQ 7 622     -37.986 133.465   9.857  1.00 13.75     0.001 C 
HETATM   34  C32 VFQ 7 622     -38.460 134.576   9.311  1.00 13.75     0.007 C 
HETATM   35  C33 VFQ 7 622     -39.323 135.543  10.006  1.00 13.75    -0.062 C 
HETATM   36  C34 VFQ 7 622     -39.648 136.662   9.344  1.00 13.75     0.007 C 
HETATM   37  C35 VFQ 7 622     -40.522 137.688   9.895  1.00 13.75     0.001 C 
HETATM   38  C36 VFQ 7 622     -33.818 127.151   8.426  1.00 17.04     0.020 C 
HETATM   39  C37 VFQ 7 622     -35.357 127.870   6.589  1.00 20.18     0.020 C 
HETATM   40  C38 VFQ 7 622     -32.210 131.609   7.061  1.00 19.93     0.044 C 
HETATM   41  C39 VFQ 7 622     -35.950 131.550  10.845  1.00 13.75     0.048 C 
HETATM   42  C40 VFQ 7 622     -39.829 135.275  11.391  1.00 13.75     0.048 C 
HETATM   43  O23 VFQ 7 622     -31.282 127.653   4.452  1.00 19.51    -0.395 OA
ATOM     44  H23 VFQ 7 622     -30.453 128.069   4.251  1.00  0.00     0.210 HD
ENDROOT
TORSDOF 12
BEGIN_RES PHE A  61
REMARK  2 active torsions:
REMARK  status: ('A' for Active; 'I' for Inactive)
REMARK    1  A    between atoms: CA   and  CB  
REMARK    2  A    between atoms: CB   and  CG  
ROOT
ATOM      1  CA  PHE A  61     -36.237 128.293  12.768  1.00 39.40     0.164 C 
ENDROOT
BRANCH   1   2
ATOM      2  CB  PHE A  61     -36.813 128.951  11.509  1.00 39.41     0.058 C 
BRANCH   2   3
ATOM      3  CG  PHE A  61     -37.008 128.008  10.346  1.00 39.01    -0.020 A 
ATOM      4  CD2 PHE A  61     -36.267 126.841  10.244  1.00 40.32    -0.004 A 
ATOM      5  CE2 PHE A  61     -36.445 125.976   9.171  1.00 40.20    -0.000 A 
ATOM      6  CZ  PHE A  61     -37.367 126.266   8.191  1.00 40.34    -0.000 A 
ATOM      7  CE1 PHE A  61     -38.113 127.421   8.279  1.00 41.51    -0.000 A 
ATOM      8  CD1 PHE A  61     -37.930 128.289   9.348  1.00 39.94    -0.004 A 
ENDBRANCH   2   3
ENDBRANCH   1   2
END_RES PHE A  61
BEGIN_RES VAL A 134
REMARK  1 active torsions:
REMARK  status: ('A' for Active; 'I' for Inactive)
REMARK    3  A    between atoms: CA   and  CB  
ROOT
ATOM      9  CA  VAL A 134     -29.766 132.051   9.815  1.00 40.75     0.159 C 
ENDROOT
BRANCH   9  10
ATOM     10  CB  VAL A 134     -30.864 132.765   9.009  1.00 40.76     0.029 C 
ATOM     11  CG1 VAL A 134     -32.131 132.913   9.839  1.00 41.76     0.002 C 
ATOM     12  CG2 VAL A 134     -30.394 134.117   8.495  1.00 40.56     0.002 C 
ENDBRANCH   9  10
END_RES VAL A 134
BEGIN_RES TYR A 338
REMARK  3 active torsions:
REMARK  status: ('A' for Active; 'I' for Inactive)
REMARK    4  A    between atoms: CA   and  CB  
REMARK    5  A    between atoms: CB   and  CG  
REMARK    6  A    between atoms: CZ   and  OH  
ROOT
ATOM     13  CA  TYR A 338     -41.631 124.950   6.058  1.00 38.23     0.164 C 
ENDROOT
BRANCH  13  14
ATOM     14  CB  TYR A 338     -41.621 126.456   6.339  1.00 39.15     0.058 C 
BRANCH  14  15
ATOM     15  CG  TYR A 338     -40.414 127.210   5.831  1.00 39.03    -0.020 A 
ATOM     16  CD2 TYR A 338     -40.257 128.556   6.117  1.00 40.65    -0.002 A 
ATOM     17  CE2 TYR A 338     -39.170 129.282   5.654  1.00 40.91     0.024 A 
ATOM     18  CZ  TYR A 338     -38.208 128.660   4.881  1.00 42.33     0.089 A 
ATOM     19  CE1 TYR A 338     -38.341 127.315   4.586  1.00 40.63     0.024 A 
ATOM     20  CD1 TYR A 338     -39.441 126.609   5.047  1.00 39.27    -0.002 A 
BRANCH  18  21
ATOM     21  OH  TYR A 338     -37.130 129.366   4.423  1.00 43.36    -0.359 OA
ATOM     22  HH  TYR A 338     -36.304 128.927   4.259  1.00  0.00     0.217 HD
ENDBRANCH  18  21
ENDBRANCH  14  15
ENDBRANCH  13  14
END_RES TYR A 338
ENDMDL
MODEL 2
REMARK VINA RESULT:   -10.195      1.542     16.869
REMARK INTER + INTRA:         -10.835
REMARK INTER:                  -7.006
REMARK INTRA:                  -3.829
REMARK UNBOUND:                -0.640
REMARK  0 active torsions:
REMARK  status: ('A' for Active; 'I' for Inactive)
REMARK       I    between atoms: C3_3  and  O3_21 
REMARK       I    between atoms: C6_6  and  C7_7 
REMARK       I    between atoms: C8_8  and  C9_9 
REMARK       I    between atoms: C10_10  and  C11_11 
REMARK       I    between atoms: C12_12  and  C13_13 
REMARK       I    between atoms: C14_14  and  C15_15 
REMARK       I    between atoms: C23_25  and  O23_43 
REMARK       I    between atoms: C26_28  and  C27_29 
REMARK       I    between atoms: C28_30  and  C29_31 
REMARK       I    between atoms: C30_32  and  C31_33 
REMARK       I    between atoms: C32_34  and  C33_35 
REMARK       I    between atoms: C34_36  and  C35_37 
ROOT
HETATM    1  C1  VFQ 7 622     -34.430 126.924   5.940  1.00 13.75    -0.018 C 
HETATM    2  C2  VFQ 7 622     -33.813 126.052   4.857  1.00 13.75     0.045 C 
HETATM    3  C3  VFQ 7 622     -32.773 126.768   4.026  1.00 13.75     0.123 C 
HETATM    4  C4  VFQ 7 622     -31.706 127.293   4.949  1.00 13.75     0.066 C 
HETATM    5  C5  VFQ 7 622     -32.318 128.249   5.929  1.00 13.75    -0.074 C 
HETATM    6  C6  VFQ 7 622     -33.544 128.054   6.442  1.00 13.75    -0.048 C 
HETATM    7  C7  VFQ 7 622     -34.094 128.879   7.556  1.00 13.75     0.009 C 
HETATM    8  C8  VFQ 7 622     -34.615 130.106   7.421  1.00 13.75     0.007 C 
HETATM    9  C9  VFQ 7 622     -35.172 130.849   8.569  1.00 13.75    -0.062 C 
HETATM   10  C10 VFQ 7 622     -35.969 131.890   8.298  1.00 13.75     0.007 C 
HETATM   11  C11 VFQ 7 622     -36.639 132.725   9.289  1.00 13.75     0.001 C 
HETATM   12  C12 VFQ 7 622     -37.622 133.472   8.799  1.00 13.75     0.007 C 
HETATM   13  C13 VFQ 7 622     -38.489 134.388   9.557  1.00 13.75    -0.062 C 
HETATM   14  C14 VFQ 7 622     -39.277 135.216   8.854  1.00 13.75     0.007 C 
HETATM   15  C15 VFQ 7 622     -40.211 136.142   9.474  1.00 13.75     0.001 C 
HETATM   16  C16 VFQ 7 622     -34.819 125.986   7.073  1.00 13.75     0.020 C 
HETATM   17  C17 VFQ 7 622     -35.682 127.567   5.364  1.00 13.75     0.020 C 
HETATM   18  C18 VFQ 7 622     -31.340 129.229   6.487  1.00 13.75     0.044 C 
HETATM   19  C19 VFQ 7 622     -34.860 130.442   9.977  1.00 13.75     0.048 C 
HETATM   20  C20 VFQ 7 622     -38.524 134.370  11.056  1.00 13.75     0.048 C 
HETATM   21  O3  VFQ 7 622     -32.183 125.856   3.099  1.00 13.75    -0.395 OA
ATOM     22  H3  VFQ 7 622     -32.856 125.525   2.517  1.00  0.00     0.210 HD
HETATM   23  C21 VFQ 7 622     -49.839 144.565  11.268  1.00 19.07    -0.018 C 
HETATM   24  C22 VFQ 7 622     -50.634 145.192  12.430  1.00 18.69     0.045 C 
HETATM   25  C23 VFQ 7 622     -49.885 146.142  13.358  1.00 19.88     0.123 C 
HETATM   26  C24 VFQ 7 622     -48.423 145.736  13.613  1.00 19.59     0.066 C 
HETATM   27  C25 VFQ 7 622     -47.673 145.083  12.494  1.00 18.61    -0.074 C 
HETATM   28  C26 VFQ 7 622     -48.290 144.530  11.393  1.00 18.29    -0.048 C 
HETATM   29  C27 VFQ 7 622     -47.511 143.895  10.307  1.00 19.20     0.009 C 
HETATM   30  C28 VFQ 7 622     -46.934 142.667  10.300  1.00 18.47     0.007 C 
HETATM   31  C29 VFQ 7 622     -46.036 142.131   9.296  1.00 13.75    -0.062 C 
HETATM   32  C30 VFQ 7 622     -45.501 140.930   9.541  1.00 13.75     0.007 C 
HETATM   33  C31 VFQ 7 622     -44.597 140.222   8.645  1.00 13.75     0.001 C 
HETATM   34  C32 VFQ 7 622     -43.805 139.332   9.227  1.00 13.75     0.007 C 
HETATM   35  C33 VFQ 7 622     -42.831 138.493   8.514  1.00 13.75    -0.062 C 
HETATM   36  C34 VFQ 7 622     -42.043 137.703   9.256  1.00 13.75     0.007 C 
HETATM   37  C35 VFQ 7 622     -41.059 136.795   8.683  1.00 13.75     0.001 C 
HETATM   38  C36 VFQ 7 622     -50.248 145.282   9.967  1.00 17.04     0.020 C 
HETATM   39  C37 VFQ 7 622     -50.402 143.132  11.239  1.00 20.18     0.020 C 
HETATM   40  C38 VFQ 7 622     -46.228 145.176  12.821  1.00 19.93     0.044 C 
HETATM   41  C39 VFQ 7 622     -45.742 142.890   8.041  1.00 13.75     0.048 C 
HETATM   42  C40 VFQ 7 622     -42.738 138.512   7.019  1.00 13.75     0.048 C 
HETATM   43  O23 VFQ 7 622     -50.581 146.290  14.587  1.00 19.51    -0.395 OA
ATOM     44  H23 VFQ 7 622     -50.114 146.882  15.165  1.00  0.00     0.210 HD
ENDROOT
TORSDOF 12
BEGIN_RES PHE A  61
REMARK  2 active torsions:
REMARK  status: ('A' for Active; 'I' for Inactive)
REMARK    1  A    between atoms: CA   and  CB  
REMARK    2  A    between atoms: CB   and  CG  
ROOT
ATOM      1  CA  PHE A  61     -36.237 128.293  12.768  1.00 39.40     0.164 C 
ENDROOT
BRANCH   1   2
ATOM      2  CB  PHE A  61     -36.813 128.951  11.509  1.00 39.41     0.058 C 
BRANCH   2   3
ATOM      3  CG  PHE A  61     -36.969 128.017  10.333  1.00 39.01    -0.020 A 
ATOM      4  CD2 PHE A  61     -36.173 126.890  10.208  1.00 40.32    -0.004 A 
ATOM      5  CE2 PHE A  61     -36.315 126.033   9.124  1.00 40.20    -0.000 A 
ATOM      6  CZ  PHE A  61     -37.258 126.292   8.155  1.00 40.34    -0.000 A 
ATOM      7  CE1 PHE A  61     -38.058 127.407   8.265  1.00 41.51    -0.000 A 
ATOM      8  CD1 PHE A  61     -37.912 128.267   9.345  1.00 39.94    -0.004 A 
ENDBRANCH   2   3
ENDBRANCH   1   2
END_RES PHE A  61
BEGIN_RES VAL A 134
REMARK  1 active torsions:
REMARK  status: ('A' for Active; 'I' for Inactive)
REMARK    3  A    between atoms: CA   and  CB  
ROOT
ATOM      9  CA  VAL A 134     -29.766 132.051   9.815  1.00 40.75     0.159 C 
ENDROOT
BRANCH   9  10
ATOM     10  CB  VAL A 134     -30.864 132.765   9.009  1.00 40.76     0.029 C 
ATOM     11  CG1 VAL A 134     -31.177 132.000   7.731  1.00 41.76     0.002 C 
ATOM     12  CG2 VAL A 134     -32.123 132.972   9.837  1.00 40.56     0.002 C 
ENDBRANCH   9  10
END_RES VAL A 134
BEGIN_RES TYR A 338
REMARK  3 active torsions:
REMARK  status: ('A' for Active; 'I' for Inactive)
REMARK    4  A    between atoms: CA   and  CB  
REMARK    5  A    between atoms: CB   and  CG  
REMARK    6  A    between atoms: CZ   and  OH  
ROOT
ATOM     13  CA  TYR A 338     -41.631 124.950   6.058  1.00 38.23     0.164 C 
ENDROOT
BRANCH  13  14
ATOM     14  CB  TYR A 338     -41.621 126.456   6.339  1.00 39.15     0.058 C 
BRANCH  14  15
ATOM     15  CG  TYR A 338     -40.426 127.214   5.810  1.00 39.03    -0.020 A 
ATOM     16  CD2 TYR A 338     -40.250 128.552   6.122  1.00 40.65    -0.002 A 
ATOM     17  CE2 TYR A 338     -39.174 129.282   5.641  1.00 40.91     0.024 A 
ATOM     18  CZ  TYR A 338     -38.241 128.672   4.823  1.00 42.33     0.089 A 
ATOM     19  CE1 TYR A 338     -38.392 127.335   4.501  1.00 40.63     0.024 A 
ATOM     20  CD1 TYR A 338     -39.483 126.626   4.981  1.00 39.27    -0.002 A 
BRANCH  18  21
ATOM     21  OH  TYR A 338     -37.174 129.381   4.347  1.00 43.36    -0.359 OA
ATOM     22  HH  TYR A 338     -36.633 129.892   4.939  1.00  0.00     0.217 HD
ENDBRANCH  18  21
ENDBRANCH  14  15
ENDBRANCH  13  14
END_RES TYR A 338
ENDMDL
