MODEL 1
REMARK VINA RESULT:    -9.248      0.000      0.000
REMARK INTER + INTRA:         -11.842
REMARK INTER:                  -9.248
REMARK INTRA:                  -2.594
REMARK UNBOUND:                -2.594
REMARK  0 active torsions:
REMARK  status: ('A' for Active; 'I' for Inactive)
REMARK       I    between atoms: C3_3  and  O3_21 
REMARK       I    between atoms: C6_6  and  C7_7 
REMARK       I    between atoms: C8_8  and  C9_9 
REMARK       I    between atoms: C10_10  and  C11_11 
REMARK       I    between atoms: C12_12  and  C13_13 
REMARK       I    between atoms: C14_14  and  C15_15 
REMARK       I    between atoms: C23_25  and  O23_43 
REMARK       I    between atoms: C26_28  and  C27_29 
REMARK       I    between atoms: C28_30  and  C29_31 
REMARK       I    between atoms: C30_32  and  C31_33 
REMARK       I    between atoms: C32_34  and  C33_35 
REMARK       I    between atoms: C34_36  and  C35_37 
ROOT
HETATM    1  C1  VFQ 8 620     -48.418 144.327  11.611  1.00 98.00    -0.022 C 
HETATM    2  C2  VFQ 8 620     -49.461 145.414  11.851  1.00 98.00     0.045 C 
HETATM    3  C3  VFQ 8 620     -48.882 146.743  12.330  1.00 98.00     0.119 C 
HETATM    4  C4  VFQ 8 620     -47.762 147.210  11.416  1.00 98.00     0.040 C 
HETATM    5  C5  VFQ 8 620     -46.757 146.096  11.318  1.00 98.00     0.013 C 
HETATM    6  C6  VFQ 8 620     -47.177 144.890  10.970  1.00 98.00    -0.068 C 
HETATM    7  C7  VFQ 8 620     -46.458 144.121   9.944  1.00 98.00     0.004 C 
HETATM    8  C8  VFQ 8 620     -45.213 143.736  10.193  1.00 98.00     0.007 C 
HETATM    9  C9  VFQ 8 620     -44.463 142.941   9.211  1.00 98.00    -0.062 C 
HETATM   10  C10 VFQ 8 620     -43.451 142.203   9.670  1.00 98.00     0.007 C 
HETATM   11  C11 VFQ 8 620     -42.652 141.346   8.809  1.00 98.00     0.001 C 
HETATM   12  C12 VFQ 8 620     -42.014 140.370   9.435  1.00 98.00     0.007 C 
HETATM   13  C13 VFQ 8 620     -41.179 139.386   8.740  1.00 98.00    -0.062 C 
HETATM   14  C14 VFQ 8 620     -40.661 138.393   9.472  1.00 98.00     0.007 C 
HETATM   15  C15 VFQ 8 620     -39.842 137.350   8.886  1.00 98.00     0.001 C 
HETATM   16  C16 VFQ 8 620     -49.027 143.241  10.734  1.00 98.00     0.019 C 
HETATM   17  C17 VFQ 8 620     -47.996 143.699  12.931  1.00 98.00     0.019 C 
HETATM   18  C18 VFQ 8 620     -46.381 147.112  10.277  1.00 98.00     0.015 C 
HETATM   19  C19 VFQ 8 620     -44.834 142.945   7.758  1.00 98.00     0.048 C 
HETATM   20  C20 VFQ 8 620     -40.940 139.483   7.262  1.00 98.00     0.048 C 
HETATM   21  O3  VFQ 8 620     -49.911 147.736  12.367  1.00 98.00    -0.396 OA
ATOM     22  H3  VFQ 8 620     -50.612 147.444  12.938  1.00  0.00     0.210 HD
HETATM   23  C21 VFQ 8 620     -34.323 126.780   6.476  1.00 45.52    -0.018 C 
HETATM   24  C22 VFQ 8 620     -33.559 125.850   5.538  1.00 45.52     0.045 C 
HETATM   25  C23 VFQ 8 620     -32.384 126.509   4.826  1.00 45.52     0.123 C 
HETATM   26  C24 VFQ 8 620     -32.698 127.972   4.572  1.00 45.52     0.066 C 
HETATM   27  C25 VFQ 8 620     -32.804 128.628   5.917  1.00 45.52    -0.074 C 
HETATM   28  C26 VFQ 8 620     -33.536 128.008   6.853  1.00 45.52    -0.048 C 
HETATM   29  C27 VFQ 8 620     -33.829 128.659   8.132  1.00 45.52     0.009 C 
HETATM   30  C28 VFQ 8 620     -34.479 129.801   7.896  1.00 45.52     0.007 C 
HETATM   31  C29 VFQ 8 620     -35.052 130.611   8.967  1.00 98.00    -0.062 C 
HETATM   32  C30 VFQ 8 620     -36.074 131.397   8.638  1.00 98.00     0.007 C 
HETATM   33  C31 VFQ 8 620     -36.750 132.261   9.589  1.00 98.00     0.001 C 
HETATM   34  C32 VFQ 8 620     -37.385 133.272   9.023  1.00 98.00     0.007 C 
HETATM   35  C33 VFQ 8 620     -38.143 134.285   9.761  1.00 98.00    -0.062 C 
HETATM   36  C34 VFQ 8 620     -38.723 135.249   9.040  1.00 98.00     0.007 C 
HETATM   37  C35 VFQ 8 620     -39.521 136.306   9.638  1.00 98.00     0.001 C 
HETATM   38  C36 VFQ 8 620     -34.705 126.046   7.752  1.00 45.52     0.020 C 
HETATM   39  C37 VFQ 8 620     -35.587 127.273   5.779  1.00 45.52     0.020 C 
HETATM   40  C38 VFQ 8 620     -31.993 129.879   6.151  1.00 45.52     0.044 C 
HETATM   41  C39 VFQ 8 620     -34.519 130.554  10.364  1.00 98.00     0.048 C 
HETATM   42  C40 VFQ 8 620     -38.249 134.242  11.253  1.00 98.00     0.048 C 
HETATM   43  O23 VFQ 8 620     -32.138 125.859   3.576  1.00 45.52    -0.395 OA
ATOM     44  H23 VFQ 8 620     -31.406 126.270   3.133  1.00  0.00     0.210 HD
ENDROOT
TORSDOF 12
BEGIN_RES PHE A  61
REMARK  2 active torsions:
REMARK  status: ('A' for Active; 'I' for Inactive)
REMARK    1  A    between atoms: CA   and  CB  
REMARK    2  A    between atoms: CB   and  CG  
ROOT
ATOM      1  CA  PHE A  61     -36.237 128.293  12.768  1.00 39.40     0.164 C 
ENDROOT
BRANCH   1   2
ATOM      2  CB  PHE A  61     -36.813 128.951  11.509  1.00 39.41     0.058 C 
BRANCH   2   3
ATOM      3  CG  PHE A  61     -37.071 127.996  10.368  1.00 39.01    -0.020 A 
ATOM      4  CD2 PHE A  61     -36.428 126.770  10.307  1.00 40.32    -0.004 A 
ATOM      5  CE2 PHE A  61     -36.664 125.894   9.255  1.00 40.20    -0.000 A 
ATOM      6  CZ  PHE A  61     -37.549 126.231   8.256  1.00 40.34    -0.000 A 
ATOM      7  CE1 PHE A  61     -38.198 127.445   8.304  1.00 41.51    -0.000 A 
ATOM      8  CD1 PHE A  61     -37.957 128.324   9.352  1.00 39.94    -0.004 A 
ENDBRANCH   2   3
ENDBRANCH   1   2
END_RES PHE A  61
BEGIN_RES VAL A 134
REMARK  1 active torsions:
REMARK  status: ('A' for Active; 'I' for Inactive)
REMARK    3  A    between atoms: CA   and  CB  
ROOT
ATOM      9  CA  VAL A 134     -29.766 132.051   9.815  1.00 40.75     0.159 C 
ENDROOT
BRANCH   9  10
ATOM     10  CB  VAL A 134     -30.864 132.765   9.009  1.00 40.76     0.029 C 
ATOM     11  CG1 VAL A 134     -31.207 131.978   7.752  1.00 41.76     0.002 C 
ATOM     12  CG2 VAL A 134     -32.108 133.010   9.849  1.00 40.56     0.002 C 
ENDBRANCH   9  10
END_RES VAL A 134
BEGIN_RES TYR A 338
REMARK  3 active torsions:
REMARK  status: ('A' for Active; 'I' for Inactive)
REMARK    4  A    between atoms: CA   and  CB  
REMARK    5  A    between atoms: CB   and  CG  
REMARK    6  A    between atoms: CZ   and  OH  
ROOT
ATOM     13  CA  TYR A 338     -41.631 124.950   6.058  1.00 38.23     0.164 C 
ENDROOT
BRANCH  13  14
ATOM     14  CB  TYR A 338     -41.621 126.456   6.339  1.00 39.15     0.058 C 
BRANCH  14  15
ATOM     15  CG  TYR A 338     -40.412 127.210   5.834  1.00 39.03    -0.020 A 
ATOM     16  CD2 TYR A 338     -40.246 128.551   6.135  1.00 40.65    -0.002 A 
ATOM     17  CE2 TYR A 338     -39.158 129.277   5.675  1.00 40.91     0.024 A 
ATOM     18  CZ  TYR A 338     -38.203 128.659   4.891  1.00 42.33     0.089 A 
ATOM     19  CE1 TYR A 338     -38.344 127.318   4.580  1.00 40.63     0.024 A 
ATOM     20  CD1 TYR A 338     -39.446 126.613   5.039  1.00 39.27    -0.002 A 
BRANCH  18  21
ATOM     21  OH  TYR A 338     -37.124 129.364   4.436  1.00 43.36    -0.359 OA
ATOM     22  HH  TYR A 338     -36.890 129.343   3.515  1.00  0.00     0.217 HD
ENDBRANCH  18  21
ENDBRANCH  14  15
ENDBRANCH  13  14
END_RES TYR A 338
ENDMDL
