MODEL 1
REMARK VINA RESULT:   -10.272      0.000      0.000
REMARK INTER + INTRA:         -13.155
REMARK INTER:                 -10.272
REMARK INTRA:                  -2.883
REMARK UNBOUND:                -2.883
REMARK  0 active torsions:
REMARK  status: ('A' for Active; 'I' for Inactive)
REMARK       I    between atoms: C3_3  and  O3_21 
REMARK       I    between atoms: C6_6  and  C7_7 
REMARK       I    between atoms: C8_8  and  C9_9 
REMARK       I    between atoms: C10_10  and  C11_11 
REMARK       I    between atoms: C12_12  and  C13_13 
REMARK       I    between atoms: C14_14  and  C15_15 
REMARK       I    between atoms: C23_25  and  O23_43 
REMARK       I    between atoms: C26_28  and  C27_29 
REMARK       I    between atoms: C28_30  and  C29_31 
REMARK       I    between atoms: C30_32  and  C31_33 
REMARK       I    between atoms: C32_34  and  C33_35 
REMARK       I    between atoms: C34_36  and  C35_37 
ROOT
HETATM    1  C1  VFQ N1621     -47.383 145.153  12.439  1.00 48.43    -0.018 C 
HETATM    2  C2  VFQ N1621     -48.064 145.627  13.715  1.00 44.61     0.045 C 
HETATM    3  C3  VFQ N1621     -47.214 146.449  14.663  1.00 44.41     0.123 C 
HETATM    4  C4  VFQ N1621     -46.361 147.435  13.903  1.00 41.53     0.066 C 
HETATM    5  C5  VFQ N1621     -45.474 146.660  12.982  1.00 37.72    -0.074 C 
HETATM    6  C6  VFQ N1621     -45.984 145.701  12.211  1.00 43.52    -0.048 C 
HETATM    7  C7  VFQ N1621     -45.228 145.137  11.069  1.00 44.60     0.009 C 
HETATM    8  C8  VFQ N1621     -44.305 144.196  11.227  1.00 43.22     0.007 C 
HETATM    9  C9  VFQ N1621     -43.606 143.626  10.076  1.00 45.04    -0.062 C 
HETATM   10  C10 VFQ N1621     -42.888 142.541  10.336  1.00 43.71     0.007 C 
HETATM   11  C11 VFQ N1621     -42.157 141.771   9.359  1.00 42.87     0.001 C 
HETATM   12  C12 VFQ N1621     -41.645 140.675   9.882  1.00 44.70     0.007 C 
HETATM   13  C13 VFQ N1621     -40.920 139.677   9.100  1.00 42.63    -0.062 C 
HETATM   14  C14 VFQ N1621     -40.509 138.588   9.752  1.00 42.62     0.007 C 
HETATM   15  C15 VFQ N1621     -39.821 137.519   9.061  1.00 44.33     0.001 C 
HETATM   16  C16 VFQ N1621     -48.336 145.506  11.303  1.00 47.48     0.020 C 
HETATM   17  C17 VFQ N1621     -47.201 143.648  12.495  1.00 54.25     0.020 C 
HETATM   18  C18 VFQ N1621     -44.247 147.423  12.607  1.00 37.77     0.044 C 
HETATM   19  C19 VFQ N1621     -43.723 144.219   8.709  1.00 46.17     0.048 C 
HETATM   20  C20 VFQ N1621     -40.713 139.863   7.629  1.00 40.87     0.048 C 
HETATM   21  O3  VFQ N1621     -48.072 147.171  15.548  1.00 48.83    -0.395 OA
ATOM     22  H3  VFQ N1621     -47.539 147.686  16.142  1.00  0.00     0.210 HD
HETATM   23  C21 VFQ N1621     -33.858 126.452   6.638  1.00 98.00    -0.018 C 
HETATM   24  C22 VFQ N1621     -34.261 125.862   5.290  1.00 98.00     0.045 C 
HETATM   25  C23 VFQ N1621     -33.530 126.470   4.096  1.00 98.00     0.123 C 
HETATM   26  C24 VFQ N1621     -33.623 127.986   4.114  1.00 98.00     0.066 C 
HETATM   27  C25 VFQ N1621     -33.126 128.459   5.451  1.00 98.00    -0.074 C 
HETATM   28  C26 VFQ N1621     -33.658 127.942   6.547  1.00 98.00    -0.048 C 
HETATM   29  C27 VFQ N1621     -34.024 128.810   7.675  1.00 98.00     0.009 C 
HETATM   30  C28 VFQ N1621     -34.982 129.711   7.502  1.00 98.00     0.007 C 
HETATM   31  C29 VFQ N1621     -35.400 130.578   8.604  1.00 54.19    -0.062 C 
HETATM   32  C30 VFQ N1621     -36.508 131.289   8.389  1.00 54.84     0.007 C 
HETATM   33  C31 VFQ N1621     -37.087 132.203   9.352  1.00 51.40     0.001 C 
HETATM   34  C32 VFQ N1621     -37.638 133.282   8.824  1.00 48.08     0.007 C 
HETATM   35  C33 VFQ N1621     -38.269 134.313   9.646  1.00 45.58    -0.062 C 
HETATM   36  C34 VFQ N1621     -38.752 135.397   9.038  1.00 47.58     0.007 C 
HETATM   37  C35 VFQ N1621     -39.412 136.472   9.757  1.00 48.15     0.001 C 
HETATM   38  C36 VFQ N1621     -32.542 125.850   7.105  1.00 98.00     0.020 C 
HETATM   39  C37 VFQ N1621     -34.931 126.118   7.666  1.00 98.00     0.020 C 
HETATM   40  C38 VFQ N1621     -32.009 129.461   5.536  1.00 98.00     0.044 C 
HETATM   41  C39 VFQ N1621     -34.630 130.610   9.885  1.00 53.01     0.048 C 
HETATM   42  C40 VFQ N1621     -38.351 134.130  11.122  1.00 46.34     0.048 C 
HETATM   43  O23 VFQ N1621     -34.092 125.973   2.877  1.00 98.00    -0.395 OA
ATOM     44  H23 VFQ N1621     -34.034 125.025   2.866  1.00  0.00     0.210 HD
ENDROOT
TORSDOF 12
BEGIN_RES PHE A  61
REMARK  2 active torsions:
REMARK  status: ('A' for Active; 'I' for Inactive)
REMARK    1  A    between atoms: CA   and  CB  
REMARK    2  A    between atoms: CB   and  CG  
ROOT
ATOM      1  CA  PHE A  61     -36.237 128.293  12.768  1.00 39.40     0.164 C 
ENDROOT
BRANCH   1   2
ATOM      2  CB  PHE A  61     -36.813 128.951  11.509  1.00 39.41     0.058 C 
BRANCH   2   3
ATOM      3  CG  PHE A  61     -37.069 127.996  10.367  1.00 39.01    -0.020 A 
ATOM      4  CD2 PHE A  61     -36.356 126.813  10.256  1.00 40.32    -0.004 A 
ATOM      5  CE2 PHE A  61     -36.590 125.937   9.203  1.00 40.20    -0.000 A 
ATOM      6  CZ  PHE A  61     -37.541 126.232   8.253  1.00 40.34    -0.000 A 
ATOM      7  CE1 PHE A  61     -38.260 127.403   8.351  1.00 41.51    -0.000 A 
ATOM      8  CD1 PHE A  61     -38.021 128.282   9.400  1.00 39.94    -0.004 A 
ENDBRANCH   2   3
ENDBRANCH   1   2
END_RES PHE A  61
BEGIN_RES VAL A 134
REMARK  1 active torsions:
REMARK  status: ('A' for Active; 'I' for Inactive)
REMARK    3  A    between atoms: CA   and  CB  
ROOT
ATOM      9  CA  VAL A 134     -29.766 132.051   9.815  1.00 40.75     0.159 C 
ENDROOT
BRANCH   9  10
ATOM     10  CB  VAL A 134     -30.864 132.765   9.009  1.00 40.76     0.029 C 
ATOM     11  CG1 VAL A 134     -31.238 131.956   7.775  1.00 41.76     0.002 C 
ATOM     12  CG2 VAL A 134     -32.091 133.049   9.861  1.00 40.56     0.002 C 
ENDBRANCH   9  10
END_RES VAL A 134
BEGIN_RES TYR A 338
REMARK  3 active torsions:
REMARK  status: ('A' for Active; 'I' for Inactive)
REMARK    4  A    between atoms: CA   and  CB  
REMARK    5  A    between atoms: CB   and  CG  
REMARK    6  A    between atoms: CZ   and  OH  
ROOT
ATOM     13  CA  TYR A 338     -41.631 124.950   6.058  1.00 38.23     0.164 C 
ENDROOT
BRANCH  13  14
ATOM     14  CB  TYR A 338     -41.621 126.456   6.339  1.00 39.15     0.058 C 
BRANCH  14  15
ATOM     15  CG  TYR A 338     -40.395 127.203   5.867  1.00 39.03    -0.020 A 
ATOM     16  CD2 TYR A 338     -39.407 126.548   5.151  1.00 40.65    -0.002 A 
ATOM     17  CE2 TYR A 338     -38.263 127.199   4.717  1.00 40.91     0.024 A 
ATOM     18  CZ  TYR A 338     -38.086 128.540   4.999  1.00 42.33     0.089 A 
ATOM     19  CE1 TYR A 338     -39.062 129.218   5.709  1.00 40.63     0.024 A 
ATOM     20  CD1 TYR A 338     -40.193 128.546   6.146  1.00 39.27    -0.002 A 
BRANCH  18  21
ATOM     21  OH  TYR A 338     -36.964 129.192   4.572  1.00 43.36    -0.359 OA
ATOM     22  HH  TYR A 338     -36.123 129.021   4.981  1.00  0.00     0.217 HD
ENDBRANCH  18  21
ENDBRANCH  14  15
ENDBRANCH  13  14
END_RES TYR A 338
ENDMDL
MODEL 2
REMARK VINA RESULT:    -9.623      1.813     16.463
REMARK INTER + INTRA:         -12.506
REMARK INTER:                  -9.887
REMARK INTRA:                  -2.619
REMARK UNBOUND:                -2.883
REMARK  0 active torsions:
REMARK  status: ('A' for Active; 'I' for Inactive)
REMARK       I    between atoms: C3_3  and  O3_21 
REMARK       I    between atoms: C6_6  and  C7_7 
REMARK       I    between atoms: C8_8  and  C9_9 
REMARK       I    between atoms: C10_10  and  C11_11 
REMARK       I    between atoms: C12_12  and  C13_13 
REMARK       I    between atoms: C14_14  and  C15_15 
REMARK       I    between atoms: C23_25  and  O23_43 
REMARK       I    between atoms: C26_28  and  C27_29 
REMARK       I    between atoms: C28_30  and  C29_31 
REMARK       I    between atoms: C30_32  and  C31_33 
REMARK       I    between atoms: C32_34  and  C33_35 
REMARK       I    between atoms: C34_36  and  C35_37 
ROOT
HETATM    1  C1  VFQ N1621     -34.334 127.484   6.547  1.00 48.43    -0.018 C 
HETATM    2  C2  VFQ N1621     -33.715 126.836   5.316  1.00 44.61     0.045 C 
HETATM    3  C3  VFQ N1621     -32.500 127.530   4.732  1.00 44.41     0.123 C 
HETATM    4  C4  VFQ N1621     -31.577 128.008   5.826  1.00 41.53     0.066 C 
HETATM    5  C5  VFQ N1621     -32.338 128.971   6.681  1.00 37.72    -0.074 C 
HETATM    6  C6  VFQ N1621     -33.556 128.657   7.120  1.00 43.52    -0.048 C 
HETATM    7  C7  VFQ N1621     -34.207 129.414   8.214  1.00 44.60     0.009 C 
HETATM    8  C8  VFQ N1621     -34.835 130.565   8.002  1.00 43.22     0.007 C 
HETATM    9  C9  VFQ N1621     -35.507 131.268   9.093  1.00 45.04    -0.062 C 
HETATM   10  C10 VFQ N1621     -36.290 132.270   8.716  1.00 43.71     0.007 C 
HETATM   11  C11 VFQ N1621     -37.098 133.076   9.601  1.00 42.87     0.001 C 
HETATM   12  C12 VFQ N1621     -37.870 133.911   8.935  1.00 44.70     0.007 C 
HETATM   13  C13 VFQ N1621     -38.841 134.790   9.580  1.00 42.63    -0.062 C 
HETATM   14  C14 VFQ N1621     -39.597 135.540   8.776  1.00 42.62     0.007 C 
HETATM   15  C15 VFQ N1621     -40.621 136.413   9.310  1.00 44.33     0.001 C 
HETATM   16  C16 VFQ N1621     -34.519 126.360   7.560  1.00 47.48     0.020 C 
HETATM   17  C17 VFQ N1621     -35.688 128.064   6.182  1.00 54.25     0.020 C 
HETATM   18  C18 VFQ N1621     -31.437 129.906   7.416  1.00 37.77     0.044 C 
HETATM   19  C19 VFQ N1621     -35.335 130.859  10.520  1.00 46.17     0.048 C 
HETATM   20  C20 VFQ N1621     -39.003 134.789  11.068  1.00 40.87     0.048 C 
HETATM   21  O3  VFQ N1621     -31.791 126.606   3.905  1.00 48.83    -0.395 OA
ATOM     22  H3  VFQ N1621     -31.030 127.042   3.539  1.00  0.00     0.210 HD
HETATM   23  C21 VFQ N1621     -50.246 144.815  10.117  1.00 98.00    -0.018 C 
HETATM   24  C22 VFQ N1621     -51.243 144.447  11.211  1.00 98.00     0.045 C 
HETATM   25  C23 VFQ N1621     -50.816 144.865  12.616  1.00 98.00     0.123 C 
HETATM   26  C24 VFQ N1621     -49.411 144.376  12.927  1.00 98.00     0.066 C 
HETATM   27  C25 VFQ N1621     -48.504 144.864  11.831  1.00 98.00    -0.074 C 
HETATM   28  C26 VFQ N1621     -48.827 144.602  10.575  1.00 98.00    -0.048 C 
HETATM   29  C27 VFQ N1621     -47.804 144.137   9.627  1.00 98.00     0.009 C 
HETATM   30  C28 VFQ N1621     -47.225 142.962   9.839  1.00 98.00     0.007 C 
HETATM   31  C29 VFQ N1621     -46.222 142.444   8.909  1.00 54.19    -0.062 C 
HETATM   32  C30 VFQ N1621     -45.868 141.172   9.093  1.00 54.84     0.007 C 
HETATM   33  C31 VFQ N1621     -44.895 140.472   8.280  1.00 51.40     0.001 C 
HETATM   34  C32 VFQ N1621     -44.148 139.604   8.940  1.00 48.08     0.007 C 
HETATM   35  C33 VFQ N1621     -43.114 138.810   8.279  1.00 45.58    -0.062 C 
HETATM   36  C34 VFQ N1621     -42.368 137.998   9.029  1.00 47.58     0.007 C 
HETATM   37  C35 VFQ N1621     -41.326 137.154   8.473  1.00 48.15     0.001 C 
HETATM   38  C36 VFQ N1621     -50.384 146.285   9.750  1.00 98.00     0.020 C 
HETATM   39  C37 VFQ N1621     -50.539 143.980   8.877  1.00 98.00     0.020 C 
HETATM   40  C38 VFQ N1621     -47.285 145.678  12.161  1.00 98.00     0.044 C 
HETATM   41  C39 VFQ N1621     -45.680 143.305   7.813  1.00 53.01     0.048 C 
HETATM   42  C40 VFQ N1621     -42.920 138.931   6.808  1.00 46.34     0.048 C 
HETATM   43  O23 VFQ N1621     -51.729 144.334  13.580  1.00 98.00    -0.395 OA
ATOM     44  H23 VFQ N1621     -52.607 144.639  13.387  1.00  0.00     0.210 HD
ENDROOT
TORSDOF 12
BEGIN_RES PHE A  61
REMARK  2 active torsions:
REMARK  status: ('A' for Active; 'I' for Inactive)
REMARK    1  A    between atoms: CA   and  CB  
REMARK    2  A    between atoms: CB   and  CG  
ROOT
ATOM      1  CA  PHE A  61     -36.237 128.293  12.768  1.00 39.40     0.164 C 
ENDROOT
BRANCH   1   2
ATOM      2  CB  PHE A  61     -36.813 128.951  11.509  1.00 39.41     0.058 C 
BRANCH   2   3
ATOM      3  CG  PHE A  61     -37.045 128.001  10.359  1.00 39.01    -0.020 A 
ATOM      4  CD2 PHE A  61     -36.333 126.816  10.260  1.00 40.32    -0.004 A 
ATOM      5  CE2 PHE A  61     -36.545 125.944   9.199  1.00 40.20    -0.000 A 
ATOM      6  CZ  PHE A  61     -37.473 126.245   8.229  1.00 40.34    -0.000 A 
ATOM      7  CE1 PHE A  61     -38.191 127.417   8.314  1.00 41.51    -0.000 A 
ATOM      8  CD1 PHE A  61     -37.974 128.292   9.370  1.00 39.94    -0.004 A 
ENDBRANCH   2   3
ENDBRANCH   1   2
END_RES PHE A  61
BEGIN_RES VAL A 134
REMARK  1 active torsions:
REMARK  status: ('A' for Active; 'I' for Inactive)
REMARK    3  A    between atoms: CA   and  CB  
ROOT
ATOM      9  CA  VAL A 134     -29.766 132.051   9.815  1.00 40.75     0.159 C 
ENDROOT
BRANCH   9  10
ATOM     10  CB  VAL A 134     -30.864 132.765   9.009  1.00 40.76     0.029 C 
ATOM     11  CG1 VAL A 134     -30.885 132.269   7.571  1.00 41.76     0.002 C 
ATOM     12  CG2 VAL A 134     -32.231 132.603   9.656  1.00 40.56     0.002 C 
ENDBRANCH   9  10
END_RES VAL A 134
BEGIN_RES TYR A 338
REMARK  3 active torsions:
REMARK  status: ('A' for Active; 'I' for Inactive)
REMARK    4  A    between atoms: CA   and  CB  
REMARK    5  A    between atoms: CB   and  CG  
REMARK    6  A    between atoms: CZ   and  OH  
ROOT
ATOM     13  CA  TYR A 338     -41.631 124.950   6.058  1.00 38.23     0.164 C 
ENDROOT
BRANCH  13  14
ATOM     14  CB  TYR A 338     -41.621 126.456   6.339  1.00 39.15     0.058 C 
BRANCH  14  15
ATOM     15  CG  TYR A 338     -40.429 127.215   5.804  1.00 39.03    -0.020 A 
ATOM     16  CD2 TYR A 338     -40.264 128.558   6.098  1.00 40.65    -0.002 A 
ATOM     17  CE2 TYR A 338     -39.191 129.289   5.612  1.00 40.91     0.024 A 
ATOM     18  CZ  TYR A 338     -38.250 128.674   4.807  1.00 42.33     0.089 A 
ATOM     19  CE1 TYR A 338     -38.390 127.332   4.504  1.00 40.63     0.024 A 
ATOM     20  CD1 TYR A 338     -39.477 126.622   4.989  1.00 39.27    -0.002 A 
BRANCH  18  21
ATOM     21  OH  TYR A 338     -37.185 129.384   4.326  1.00 43.36    -0.359 OA
ATOM     22  HH  TYR A 338     -36.426 129.544   4.875  1.00  0.00     0.217 HD
ENDBRANCH  18  21
ENDBRANCH  14  15
ENDBRANCH  13  14
END_RES TYR A 338
ENDMDL
