MODEL 1
REMARK VINA RESULT:    -9.495      0.000      0.000
REMARK INTER + INTRA:         -12.728
REMARK INTER:                  -9.495
REMARK INTRA:                  -3.233
REMARK UNBOUND:                -3.233
REMARK  0 active torsions:
REMARK  status: ('A' for Active; 'I' for Inactive)
REMARK       I    between atoms: C3_3  and  O3_21 
REMARK       I    between atoms: C6_6  and  C7_7 
REMARK       I    between atoms: C8_8  and  C9_9 
REMARK       I    between atoms: C10_10  and  C11_11 
REMARK       I    between atoms: C12_12  and  C13_13 
REMARK       I    between atoms: C14_14  and  C15_15 
REMARK       I    between atoms: C23_25  and  O23_43 
REMARK       I    between atoms: C26_28  and  C27_29 
REMARK       I    between atoms: C28_30  and  C29_31 
REMARK       I    between atoms: C30_32  and  C31_33 
REMARK       I    between atoms: C32_34  and  C33_35 
REMARK       I    between atoms: C34_36  and  C35_37 
ROOT
HETATM    1  C1  VFQ Y1620     -33.686 129.340   6.871  1.00 32.37    -0.022 C 
HETATM    2  C2  VFQ Y1620     -32.883 130.134   5.852  1.00 32.37     0.045 C 
HETATM    3  C3  VFQ Y1620     -32.030 131.234   6.444  1.00 32.37     0.119 C 
HETATM    4  C4  VFQ Y1620     -31.134 130.595   7.482  1.00 32.37     0.040 C 
HETATM    5  C5  VFQ Y1620     -31.981 129.976   8.564  1.00 32.37     0.013 C 
HETATM    6  C6  VFQ Y1620     -33.254 129.658   8.302  1.00 32.37    -0.068 C 
HETATM    7  C7  VFQ Y1620     -34.308 129.920   9.290  1.00 32.37     0.004 C 
HETATM    8  C8  VFQ Y1620     -34.839 131.118   9.013  1.00 32.37     0.007 C 
HETATM    9  C9  VFQ Y1620     -35.895 131.757   9.838  1.00 32.37    -0.062 C 
HETATM   10  C10 VFQ Y1620     -36.323 132.975   9.429  1.00 32.37     0.007 C 
HETATM   11  C11 VFQ Y1620     -37.378 133.733  10.093  1.00 32.37     0.001 C 
HETATM   12  C12 VFQ Y1620     -37.782 134.893   9.600  1.00 32.37     0.007 C 
HETATM   13  C13 VFQ Y1620     -38.896 135.632  10.222  1.00 32.37    -0.062 C 
HETATM   14  C14 VFQ Y1620     -39.326 136.711   9.550  1.00 32.37     0.007 C 
HETATM   15  C15 VFQ Y1620     -40.460 137.551   9.942  1.00 32.37     0.001 C 
HETATM   16  C16 VFQ Y1620     -33.557 127.881   6.432  1.00 32.37     0.019 C 
HETATM   17  C17 VFQ Y1620     -35.141 129.775   6.711  1.00 32.37     0.019 C 
HETATM   18  C18 VFQ Y1620     -31.571 130.852   9.718  1.00 32.37     0.015 C 
HETATM   19  C19 VFQ Y1620     -36.455 131.052  11.056  1.00 32.37     0.048 C 
HETATM   20  C20 VFQ Y1620     -39.536 135.103  11.479  1.00 32.37     0.048 C 
HETATM   21  O3  VFQ Y1620     -31.244 131.778   5.378  1.00 32.37    -0.396 OA
ATOM     22  H3  VFQ Y1620     -30.708 132.469   5.749  1.00  0.00     0.210 HD
HETATM   23  C21 VFQ Y1620     -50.169 146.016   8.992  1.00 35.06    -0.018 C 
HETATM   24  C22 VFQ Y1620     -51.275 146.754   9.750  1.00 35.06     0.045 C 
HETATM   25  C23 VFQ Y1620     -51.259 146.590  11.265  1.00 35.06     0.123 C 
HETATM   26  C24 VFQ Y1620     -50.473 145.353  11.655  1.00 35.06     0.066 C 
HETATM   27  C25 VFQ Y1620     -49.084 145.582  11.138  1.00 35.06    -0.074 C 
HETATM   28  C26 VFQ Y1620     -48.934 145.781   9.828  1.00 35.06    -0.048 C 
HETATM   29  C27 VFQ Y1620     -47.639 145.598   9.147  1.00 35.06     0.009 C 
HETATM   30  C28 VFQ Y1620     -46.915 144.551   9.542  1.00 35.06     0.007 C 
HETATM   31  C29 VFQ Y1620     -45.690 144.136   8.797  1.00 32.37    -0.062 C 
HETATM   32  C30 VFQ Y1620     -45.121 142.999   9.255  1.00 32.37     0.007 C 
HETATM   33  C31 VFQ Y1620     -43.938 142.349   8.686  1.00 32.37     0.001 C 
HETATM   34  C32 VFQ Y1620     -43.499 141.225   9.262  1.00 32.37     0.007 C 
HETATM   35  C33 VFQ Y1620     -42.317 140.485   8.765  1.00 32.37    -0.062 C 
HETATM   36  C34 VFQ Y1620     -41.924 139.411   9.480  1.00 32.37     0.007 C 
HETATM   37  C35 VFQ Y1620     -40.783 138.561   9.138  1.00 32.37     0.001 C 
HETATM   38  C36 VFQ Y1620     -49.796 146.786   7.735  1.00 35.06     0.020 C 
HETATM   39  C37 VFQ Y1620     -50.674 144.632   8.598  1.00 35.06     0.020 C 
HETATM   40  C38 VFQ Y1620     -47.967 145.726  12.141  1.00 35.06     0.044 C 
HETATM   41  C39 VFQ Y1620     -45.192 144.907   7.598  1.00 32.37     0.048 C 
HETATM   42  C40 VFQ Y1620     -41.654 140.932   7.488  1.00 32.37     0.048 C 
HETATM   43  O23 VFQ Y1620     -52.598 146.459  11.753  1.00 35.06    -0.395 OA
ATOM     44  H23 VFQ Y1620     -52.589 146.357  12.698  1.00  0.00     0.210 HD
ENDROOT
TORSDOF 12
BEGIN_RES PHE A  61
REMARK  2 active torsions:
REMARK  status: ('A' for Active; 'I' for Inactive)
REMARK    1  A    between atoms: CA   and  CB  
REMARK    2  A    between atoms: CB   and  CG  
ROOT
ATOM      1  CA  PHE A  61     -36.237 128.293  12.768  1.00 39.40     0.164 C 
ENDROOT
BRANCH   1   2
ATOM      2  CB  PHE A  61     -36.813 128.951  11.509  1.00 39.41     0.058 C 
BRANCH   2   3
ATOM      3  CG  PHE A  61     -36.704 128.110  10.260  1.00 39.01    -0.020 A 
ATOM      4  CD2 PHE A  61     -35.595 127.309  10.036  1.00 40.32    -0.004 A 
ATOM      5  CE2 PHE A  61     -35.494 126.539   8.884  1.00 40.20    -0.000 A 
ATOM      6  CZ  PHE A  61     -36.501 126.557   7.947  1.00 40.34    -0.000 A 
ATOM      7  CE1 PHE A  61     -37.611 127.345   8.155  1.00 41.51    -0.000 A 
ATOM      8  CD1 PHE A  61     -37.709 128.121   9.303  1.00 39.94    -0.004 A 
ENDBRANCH   2   3
ENDBRANCH   1   2
END_RES PHE A  61
BEGIN_RES VAL A 134
REMARK  1 active torsions:
REMARK  status: ('A' for Active; 'I' for Inactive)
REMARK    3  A    between atoms: CA   and  CB  
ROOT
ATOM      9  CA  VAL A 134     -29.766 132.051   9.815  1.00 40.75     0.159 C 
ENDROOT
BRANCH   9  10
ATOM     10  CB  VAL A 134     -30.864 132.765   9.009  1.00 40.76     0.029 C 
ATOM     11  CG1 VAL A 134     -31.982 133.240   9.926  1.00 41.76     0.002 C 
ATOM     12  CG2 VAL A 134     -30.302 133.922   8.198  1.00 40.56     0.002 C 
ENDBRANCH   9  10
END_RES VAL A 134
BEGIN_RES TYR A 338
REMARK  3 active torsions:
REMARK  status: ('A' for Active; 'I' for Inactive)
REMARK    4  A    between atoms: CA   and  CB  
REMARK    5  A    between atoms: CB   and  CG  
REMARK    6  A    between atoms: CZ   and  OH  
ROOT
ATOM     13  CA  TYR A 338     -41.631 124.950   6.058  1.00 38.23     0.164 C 
ENDROOT
BRANCH  13  14
ATOM     14  CB  TYR A 338     -41.621 126.456   6.339  1.00 39.15     0.058 C 
BRANCH  14  15
ATOM     15  CG  TYR A 338     -40.401 127.206   5.855  1.00 39.03    -0.020 A 
ATOM     16  CD2 TYR A 338     -40.226 128.541   6.176  1.00 40.65    -0.002 A 
ATOM     17  CE2 TYR A 338     -39.128 129.263   5.736  1.00 40.91     0.024 A 
ATOM     18  CZ  TYR A 338     -38.171 128.648   4.951  1.00 42.33     0.089 A 
ATOM     19  CE1 TYR A 338     -38.321 127.313   4.620  1.00 40.63     0.024 A 
ATOM     20  CD1 TYR A 338     -39.434 126.611   5.060  1.00 39.27    -0.002 A 
BRANCH  18  21
ATOM     21  OH  TYR A 338     -37.082 129.349   4.515  1.00 43.36    -0.359 OA
ATOM     22  HH  TYR A 338     -37.177 130.244   4.211  1.00  0.00     0.217 HD
ENDBRANCH  18  21
ENDBRANCH  14  15
ENDBRANCH  13  14
END_RES TYR A 338
ENDMDL
MODEL 2
REMARK VINA RESULT:    -8.816      1.258     16.294
REMARK INTER + INTRA:         -12.049
REMARK INTER:                 -12.129
REMARK INTRA:                   0.080
REMARK UNBOUND:                -3.233
REMARK  0 active torsions:
REMARK  status: ('A' for Active; 'I' for Inactive)
REMARK       I    between atoms: C3_3  and  O3_21 
REMARK       I    between atoms: C6_6  and  C7_7 
REMARK       I    between atoms: C8_8  and  C9_9 
REMARK       I    between atoms: C10_10  and  C11_11 
REMARK       I    between atoms: C12_12  and  C13_13 
REMARK       I    between atoms: C14_14  and  C15_15 
REMARK       I    between atoms: C23_25  and  O23_43 
REMARK       I    between atoms: C26_28  and  C27_29 
REMARK       I    between atoms: C28_30  and  C29_31 
REMARK       I    between atoms: C30_32  and  C31_33 
REMARK       I    between atoms: C32_34  and  C33_35 
REMARK       I    between atoms: C34_36  and  C35_37 
ROOT
HETATM    1  C1  VFQ Y1620     -50.319 144.595  10.001  1.00 32.37    -0.022 C 
HETATM    2  C2  VFQ Y1620     -50.427 144.395  11.504  1.00 32.37     0.045 C 
HETATM    3  C3  VFQ Y1620     -49.318 145.041  12.306  1.00 32.37     0.119 C 
HETATM    4  C4  VFQ Y1620     -49.300 146.509  11.940  1.00 32.37     0.040 C 
HETATM    5  C5  VFQ Y1620     -49.011 146.657  10.468  1.00 32.37     0.013 C 
HETATM    6  C6  VFQ Y1620     -49.253 145.631   9.645  1.00 32.37    -0.068 C 
HETATM    7  C7  VFQ Y1620     -48.306 145.294   8.574  1.00 32.37     0.004 C 
HETATM    8  C8  VFQ Y1620     -47.470 144.360   9.046  1.00 32.37     0.007 C 
HETATM    9  C9  VFQ Y1620     -46.329 143.813   8.269  1.00 32.37    -0.062 C 
HETATM   10  C10 VFQ Y1620     -45.572 142.878   8.891  1.00 32.37     0.007 C 
HETATM   11  C11 VFQ Y1620     -44.437 142.205   8.270  1.00 32.37     0.001 C 
HETATM   12  C12 VFQ Y1620     -43.779 141.259   8.922  1.00 32.37     0.007 C 
HETATM   13  C13 VFQ Y1620     -42.676 140.523   8.277  1.00 32.37    -0.062 C 
HETATM   14  C14 VFQ Y1620     -42.187 139.482   8.969  1.00 32.37     0.007 C 
HETATM   15  C15 VFQ Y1620     -41.144 138.571   8.496  1.00 32.37     0.001 C 
HETATM   16  C16 VFQ Y1620     -51.742 144.900   9.535  1.00 32.37     0.019 C 
HETATM   17  C17 VFQ Y1620     -49.886 143.253   9.414  1.00 32.37     0.019 C 
HETATM   18  C18 VFQ Y1620     -47.676 147.347  10.556  1.00 32.37     0.015 C 
HETATM   19  C19 VFQ Y1620     -46.062 144.284   6.855  1.00 32.37     0.048 C 
HETATM   20  C20 VFQ Y1620     -42.237 140.900   6.887  1.00 32.37     0.048 C 
HETATM   21  O3  VFQ Y1620     -49.648 144.880  13.690  1.00 32.37    -0.396 OA
ATOM     22  H3  VFQ Y1620     -48.951 145.285  14.193  1.00  0.00     0.210 HD
HETATM   23  C21 VFQ Y1620     -33.842 127.959   7.537  1.00 35.06    -0.018 C 
HETATM   24  C22 VFQ Y1620     -32.659 127.306   6.820  1.00 35.06     0.045 C 
HETATM   25  C23 VFQ Y1620     -31.863 128.219   5.894  1.00 35.06     0.123 C 
HETATM   26  C24 VFQ Y1620     -32.693 129.423   5.497  1.00 35.06     0.066 C 
HETATM   27  C25 VFQ Y1620     -33.013 130.130   6.781  1.00 35.06    -0.074 C 
HETATM   28  C26 VFQ Y1620     -33.677 129.449   7.716  1.00 35.06    -0.048 C 
HETATM   29  C27 VFQ Y1620     -34.406 130.119   8.809  1.00 35.06     0.009 C 
HETATM   30  C28 VFQ Y1620     -35.077 131.221   8.474  1.00 35.06     0.007 C 
HETATM   31  C29 VFQ Y1620     -36.016 131.872   9.432  1.00 32.37    -0.062 C 
HETATM   32  C30 VFQ Y1620     -36.699 132.918   8.916  1.00 32.37     0.007 C 
HETATM   33  C31 VFQ Y1620     -37.709 133.710   9.622  1.00 32.37     0.001 C 
HETATM   34  C32 VFQ Y1620     -38.292 134.717   8.966  1.00 32.37     0.007 C 
HETATM   35  C33 VFQ Y1620     -39.329 135.577   9.583  1.00 32.37    -0.062 C 
HETATM   36  C34 VFQ Y1620     -39.782 136.612   8.846  1.00 32.37     0.007 C 
HETATM   37  C35 VFQ Y1620     -40.804 137.559   9.291  1.00 32.37     0.001 C 
HETATM   38  C36 VFQ Y1620     -34.058 127.303   8.891  1.00 35.06     0.020 C 
HETATM   39  C37 VFQ Y1620     -35.097 127.780   6.689  1.00 35.06     0.020 C 
HETATM   40  C38 VFQ Y1620     -32.433 131.506   6.999  1.00 35.06     0.044 C 
HETATM   41  C39 VFQ Y1620     -36.213 131.345  10.833  1.00 32.37     0.048 C 
HETATM   42  C40 VFQ Y1620     -39.846 135.231  10.954  1.00 32.37     0.048 C 
HETATM   43  O23 VFQ Y1620     -31.491 127.504   4.711  1.00 35.06    -0.395 OA
ATOM     44  H23 VFQ Y1620     -30.995 128.072   4.133  1.00  0.00     0.210 HD
ENDROOT
TORSDOF 12
BEGIN_RES PHE A  61
REMARK  2 active torsions:
REMARK  status: ('A' for Active; 'I' for Inactive)
REMARK    1  A    between atoms: CA   and  CB  
REMARK    2  A    between atoms: CB   and  CG  
ROOT
ATOM      1  CA  PHE A  61     -36.237 128.293  12.768  1.00 39.40     0.164 C 
ENDROOT
BRANCH   1   2
ATOM      2  CB  PHE A  61     -36.813 128.951  11.509  1.00 39.41     0.058 C 
BRANCH   2   3
ATOM      3  CG  PHE A  61     -37.058 127.998  10.363  1.00 39.01    -0.020 A 
ATOM      4  CD2 PHE A  61     -36.408 126.776  10.303  1.00 40.32    -0.004 A 
ATOM      5  CE2 PHE A  61     -36.632 125.901   9.247  1.00 40.20    -0.000 A 
ATOM      6  CZ  PHE A  61     -37.509 126.238   8.242  1.00 40.34    -0.000 A 
ATOM      7  CE1 PHE A  61     -38.165 127.448   8.288  1.00 41.51    -0.000 A 
ATOM      8  CD1 PHE A  61     -37.936 128.326   9.340  1.00 39.94    -0.004 A 
ENDBRANCH   2   3
ENDBRANCH   1   2
END_RES PHE A  61
BEGIN_RES VAL A 134
REMARK  1 active torsions:
REMARK  status: ('A' for Active; 'I' for Inactive)
REMARK    3  A    between atoms: CA   and  CB  
ROOT
ATOM      9  CA  VAL A 134     -29.766 132.051   9.815  1.00 40.75     0.159 C 
ENDROOT
BRANCH   9  10
ATOM     10  CB  VAL A 134     -30.864 132.765   9.009  1.00 40.76     0.029 C 
ATOM     11  CG1 VAL A 134     -32.118 132.946   9.851  1.00 41.76     0.002 C 
ATOM     12  CG2 VAL A 134     -30.382 134.101   8.464  1.00 40.56     0.002 C 
ENDBRANCH   9  10
END_RES VAL A 134
BEGIN_RES TYR A 338
REMARK  3 active torsions:
REMARK  status: ('A' for Active; 'I' for Inactive)
REMARK    4  A    between atoms: CA   and  CB  
REMARK    5  A    between atoms: CB   and  CG  
REMARK    6  A    between atoms: CZ   and  OH  
ROOT
ATOM     13  CA  TYR A 338     -41.631 124.950   6.058  1.00 38.23     0.164 C 
ENDROOT
BRANCH  13  14
ATOM     14  CB  TYR A 338     -41.621 126.456   6.339  1.00 39.15     0.058 C 
BRANCH  14  15
ATOM     15  CG  TYR A 338     -40.403 127.206   5.852  1.00 39.03    -0.020 A 
ATOM     16  CD2 TYR A 338     -40.234 128.545   6.161  1.00 40.65    -0.002 A 
ATOM     17  CE2 TYR A 338     -39.137 129.268   5.718  1.00 40.91     0.024 A 
ATOM     18  CZ  TYR A 338     -38.176 128.649   4.942  1.00 42.33     0.089 A 
ATOM     19  CE1 TYR A 338     -38.319 127.310   4.623  1.00 40.63     0.024 A 
ATOM     20  CD1 TYR A 338     -39.430 126.608   5.065  1.00 39.27    -0.002 A 
BRANCH  18  21
ATOM     21  OH  TYR A 338     -37.088 129.351   4.503  1.00 43.36    -0.359 OA
ATOM     22  HH  TYR A 338     -36.713 129.172   3.649  1.00  0.00     0.217 HD
ENDBRANCH  18  21
ENDBRANCH  14  15
ENDBRANCH  13  14
END_RES TYR A 338
ENDMDL
MODEL 3
REMARK VINA RESULT:    -7.157      1.775     16.277
REMARK INTER + INTRA:         -10.391
REMARK INTER:                  -8.403
REMARK INTRA:                  -1.988
REMARK UNBOUND:                -3.233
REMARK  0 active torsions:
REMARK  status: ('A' for Active; 'I' for Inactive)
REMARK       I    between atoms: C3_3  and  O3_21 
REMARK       I    between atoms: C6_6  and  C7_7 
REMARK       I    between atoms: C8_8  and  C9_9 
REMARK       I    between atoms: C10_10  and  C11_11 
REMARK       I    between atoms: C12_12  and  C13_13 
REMARK       I    between atoms: C14_14  and  C15_15 
REMARK       I    between atoms: C23_25  and  O23_43 
REMARK       I    between atoms: C26_28  and  C27_29 
REMARK       I    between atoms: C28_30  and  C29_31 
REMARK       I    between atoms: C30_32  and  C31_33 
REMARK       I    between atoms: C32_34  and  C33_35 
REMARK       I    between atoms: C34_36  and  C35_37 
ROOT
HETATM    1  C1  VFQ Y1620     -47.756 146.616   9.527  1.00 32.37    -0.022 C 
HETATM    2  C2  VFQ Y1620     -48.882 145.815  10.162  1.00 32.37     0.045 C 
HETATM    3  C3  VFQ Y1620     -48.630 145.402  11.596  1.00 32.37     0.119 C 
HETATM    4  C4  VFQ Y1620     -48.336 146.663  12.378  1.00 32.37     0.040 C 
HETATM    5  C5  VFQ Y1620     -47.103 147.325  11.818  1.00 32.37     0.013 C 
HETATM    6  C6  VFQ Y1620     -46.723 147.055  10.564  1.00 32.37    -0.068 C 
HETATM    7  C7  VFQ Y1620     -45.304 146.857  10.240  1.00 32.37     0.004 C 
HETATM    8  C8  VFQ Y1620     -45.049 145.544  10.306  1.00 32.37     0.007 C 
HETATM    9  C9  VFQ Y1620     -43.699 144.960  10.103  1.00 32.37    -0.062 C 
HETATM   10  C10 VFQ Y1620     -43.605 143.614  10.210  1.00 32.37     0.007 C 
HETATM   11  C11 VFQ Y1620     -42.369 142.866  10.005  1.00 32.37     0.001 C 
HETATM   12  C12 VFQ Y1620     -42.367 141.543  10.072  1.00 32.37     0.007 C 
HETATM   13  C13 VFQ Y1620     -41.140 140.775   9.795  1.00 32.37    -0.062 C 
HETATM   14  C14 VFQ Y1620     -41.289 139.442   9.733  1.00 32.37     0.007 C 
HETATM   15  C15 VFQ Y1620     -40.226 138.490   9.405  1.00 32.37     0.001 C 
HETATM   16  C16 VFQ Y1620     -48.450 147.732   8.747  1.00 32.37     0.019 C 
HETATM   17  C17 VFQ Y1620     -47.062 145.681   8.538  1.00 32.37     0.019 C 
HETATM   18  C18 VFQ Y1620     -46.190 147.172  13.007  1.00 32.37     0.015 C 
HETATM   19  C19 VFQ Y1620     -42.516 145.848   9.778  1.00 32.37     0.048 C 
HETATM   20  C20 VFQ Y1620     -39.851 141.499   9.509  1.00 32.37     0.048 C 
HETATM   21  O3  VFQ Y1620     -49.832 144.790  12.076  1.00 32.37    -0.396 OA
ATOM     22  H3  VFQ Y1620     -49.673 144.531  12.977  1.00  0.00     0.210 HD
HETATM   23  C21 VFQ Y1620     -34.508 127.557   5.582  1.00 35.06    -0.018 C 
HETATM   24  C22 VFQ Y1620     -33.172 126.846   5.362  1.00 35.06     0.045 C 
HETATM   25  C23 VFQ Y1620     -31.939 127.586   5.868  1.00 35.06     0.123 C 
HETATM   26  C24 VFQ Y1620     -32.238 129.064   6.025  1.00 35.06     0.066 C 
HETATM   27  C25 VFQ Y1620     -33.347 129.144   7.031  1.00 35.06    -0.074 C 
HETATM   28  C26 VFQ Y1620     -34.487 128.511   6.751  1.00 35.06    -0.048 C 
HETATM   29  C27 VFQ Y1620     -35.758 128.845   7.420  1.00 35.06     0.009 C 
HETATM   30  C28 VFQ Y1620     -35.986 130.142   7.624  1.00 35.06     0.007 C 
HETATM   31  C29 VFQ Y1620     -37.316 130.625   8.100  1.00 32.37    -0.062 C 
HETATM   32  C30 VFQ Y1620     -37.428 131.970   8.161  1.00 32.37     0.007 C 
HETATM   33  C31 VFQ Y1620     -38.631 132.708   8.556  1.00 32.37     0.001 C 
HETATM   34  C32 VFQ Y1620     -38.575 134.044   8.566  1.00 32.37     0.007 C 
HETATM   35  C33 VFQ Y1620     -39.733 134.887   8.942  1.00 32.37    -0.062 C 
HETATM   36  C34 VFQ Y1620     -39.527 136.219   8.994  1.00 32.37     0.007 C 
HETATM   37  C35 VFQ Y1620     -40.554 137.202   9.342  1.00 32.37     0.001 C 
HETATM   38  C36 VFQ Y1620     -35.617 126.535   5.777  1.00 35.06     0.020 C 
HETATM   39  C37 VFQ Y1620     -34.825 128.409   4.357  1.00 35.06     0.020 C 
HETATM   40  C38 VFQ Y1620     -33.056 129.800   8.359  1.00 35.06     0.044 C 
HETATM   41  C39 VFQ Y1620     -38.440 129.668   8.416  1.00 32.37     0.048 C 
HETATM   42  C40 VFQ Y1620     -41.064 134.231   9.199  1.00 32.37     0.048 C 
HETATM   43  O23 VFQ Y1620     -30.863 127.429   4.937  1.00 35.06    -0.395 OA
ATOM     44  H23 VFQ Y1620     -30.094 127.890   5.252  1.00  0.00     0.210 HD
ENDROOT
TORSDOF 12
BEGIN_RES PHE A  61
REMARK  2 active torsions:
REMARK  status: ('A' for Active; 'I' for Inactive)
REMARK    1  A    between atoms: CA   and  CB  
REMARK    2  A    between atoms: CB   and  CG  
ROOT
ATOM      1  CA  PHE A  61     -36.237 128.293  12.768  1.00 39.40     0.164 C 
ENDROOT
BRANCH   1   2
ATOM      2  CB  PHE A  61     -36.813 128.951  11.509  1.00 39.41     0.058 C 
BRANCH   2   3
ATOM      3  CG  PHE A  61     -36.421 130.398  11.326  1.00 39.01    -0.020 A 
ATOM      4  CD2 PHE A  61     -35.187 130.738  10.794  1.00 40.32    -0.004 A 
ATOM      5  CE2 PHE A  61     -34.826 132.070  10.629  1.00 40.20    -0.000 A 
ATOM      6  CZ  PHE A  61     -35.695 133.074  10.990  1.00 40.34    -0.000 A 
ATOM      7  CE1 PHE A  61     -36.926 132.752  11.517  1.00 41.51    -0.000 A 
ATOM      8  CD1 PHE A  61     -37.284 131.421  11.689  1.00 39.94    -0.004 A 
ENDBRANCH   2   3
ENDBRANCH   1   2
END_RES PHE A  61
BEGIN_RES VAL A 134
REMARK  1 active torsions:
REMARK  status: ('A' for Active; 'I' for Inactive)
REMARK    3  A    between atoms: CA   and  CB  
ROOT
ATOM      9  CA  VAL A 134     -29.766 132.051   9.815  1.00 40.75     0.159 C 
ENDROOT
BRANCH   9  10
ATOM     10  CB  VAL A 134     -30.864 132.765   9.009  1.00 40.76     0.029 C 
ATOM     11  CG1 VAL A 134     -31.140 132.029   7.706  1.00 41.76     0.002 C 
ATOM     12  CG2 VAL A 134     -32.141 132.926   9.820  1.00 40.56     0.002 C 
ENDBRANCH   9  10
END_RES VAL A 134
BEGIN_RES TYR A 338
REMARK  3 active torsions:
REMARK  status: ('A' for Active; 'I' for Inactive)
REMARK    4  A    between atoms: CA   and  CB  
REMARK    5  A    between atoms: CB   and  CG  
REMARK    6  A    between atoms: CZ   and  OH  
ROOT
ATOM     13  CA  TYR A 338     -41.631 124.950   6.058  1.00 38.23     0.164 C 
ENDROOT
BRANCH  13  14
ATOM     14  CB  TYR A 338     -41.621 126.456   6.339  1.00 39.15     0.058 C 
BRANCH  14  15
ATOM     15  CG  TYR A 338     -40.428 127.215   5.805  1.00 39.03    -0.020 A 
ATOM     16  CD2 TYR A 338     -40.328 128.583   5.991  1.00 40.65    -0.002 A 
ATOM     17  CE2 TYR A 338     -39.256 129.314   5.501  1.00 40.91     0.024 A 
ATOM     18  CZ  TYR A 338     -38.250 128.672   4.803  1.00 42.33     0.089 A 
ATOM     19  CE1 TYR A 338     -38.325 127.304   4.609  1.00 40.63     0.024 A 
ATOM     20  CD1 TYR A 338     -39.412 126.594   5.095  1.00 39.27    -0.002 A 
BRANCH  18  21
ATOM     21  OH  TYR A 338     -37.186 129.382   4.320  1.00 43.36    -0.359 OA
ATOM     22  HH  TYR A 338     -37.322 130.218   3.890  1.00  0.00     0.217 HD
ENDBRANCH  18  21
ENDBRANCH  14  15
ENDBRANCH  13  14
END_RES TYR A 338
ENDMDL
