MODEL 1
REMARK VINA RESULT:    -8.773      0.000      0.000
REMARK INTER + INTRA:         -11.087
REMARK INTER:                  -8.773
REMARK INTRA:                  -2.314
REMARK UNBOUND:                -2.314
REMARK  0 active torsions:
REMARK  status: ('A' for Active; 'I' for Inactive)
REMARK       I    between atoms: C3_3  and  O3_21 
REMARK       I    between atoms: C6_6  and  C7_7 
REMARK       I    between atoms: C8_8  and  C9_9 
REMARK       I    between atoms: C10_10  and  C11_11 
REMARK       I    between atoms: C12_12  and  C13_13 
REMARK       I    between atoms: C14_14  and  C15_15 
REMARK       I    between atoms: C23_25  and  O23_43 
REMARK       I    between atoms: C26_28  and  C27_29 
REMARK       I    between atoms: C28_30  and  C29_31 
REMARK       I    between atoms: C30_32  and  C31_33 
REMARK       I    between atoms: C32_34  and  C33_35 
REMARK       I    between atoms: C34_36  and  C35_37 
ROOT
HETATM    1  C1  VFQ 2 619     -34.150 127.204   6.693  1.00 46.63    -0.018 C 
HETATM    2  C2  VFQ 2 619     -34.283 127.535   5.209  1.00 46.63     0.045 C 
HETATM    3  C3  VFQ 2 619     -33.299 128.580   4.697  1.00 46.63     0.123 C 
HETATM    4  C4  VFQ 2 619     -31.973 128.435   5.423  1.00 46.63     0.066 C 
HETATM    5  C5  VFQ 2 619     -32.225 128.727   6.877  1.00 46.63    -0.074 C 
HETATM    6  C6  VFQ 2 619     -33.310 128.199   7.451  1.00 46.63    -0.048 C 
HETATM    7  C7  VFQ 2 619     -33.896 128.821   8.635  1.00 46.63     0.009 C 
HETATM    8  C8  VFQ 2 619     -34.401 129.998   8.250  1.00 46.63     0.007 C 
HETATM    9  C9  VFQ 2 619     -35.208 130.851   9.155  1.00 46.63    -0.062 C 
HETATM   10  C10 VFQ 2 619     -35.883 131.879   8.607  1.00 46.63     0.007 C 
HETATM   11  C11 VFQ 2 619     -36.773 132.766   9.360  1.00 46.63     0.001 C 
HETATM   12  C12 VFQ 2 619     -37.463 133.707   8.725  1.00 46.63     0.007 C 
HETATM   13  C13 VFQ 2 619     -38.397 134.597   9.443  1.00 46.63    -0.062 C 
HETATM   14  C14 VFQ 2 619     -39.115 135.445   8.686  1.00 46.63     0.007 C 
HETATM   15  C15 VFQ 2 619     -40.101 136.399   9.186  1.00 46.63     0.001 C 
HETATM   16  C16 VFQ 2 619     -33.471 125.850   6.851  1.00 46.63     0.020 C 
HETATM   17  C17 VFQ 2 619     -35.529 127.159   7.335  1.00 46.63     0.020 C 
HETATM   18  C18 VFQ 2 619     -31.362 129.777   7.526  1.00 46.63     0.044 C 
HETATM   19  C19 VFQ 2 619     -35.281 130.532  10.624  1.00 46.63     0.048 C 
HETATM   20  C20 VFQ 2 619     -38.508 134.517  10.939  1.00 46.63     0.048 C 
HETATM   21  O3  VFQ 2 619     -33.087 128.394   3.294  1.00 46.63    -0.395 OA
ATOM     22  H3  VFQ 2 619     -32.474 129.046   2.975  1.00  0.00     0.210 HD
HETATM   23  C21 VFQ 2 619     -49.593 144.619   9.561  1.00 19.54    -0.018 C 
HETATM   24  C22 VFQ 2 619     -50.434 145.462  10.516  1.00 19.54     0.045 C 
HETATM   25  C23 VFQ 2 619     -49.952 146.853  10.877  1.00 19.54     0.123 C 
HETATM   26  C24 VFQ 2 619     -48.477 146.814  11.184  1.00 19.54     0.066 C 
HETATM   27  C25 VFQ 2 619     -47.705 146.165  10.063  1.00 19.54    -0.074 C 
HETATM   28  C26 VFQ 2 619     -48.160 145.093   9.394  1.00 19.54    -0.048 C 
HETATM   29  C27 VFQ 2 619     -47.281 144.368   8.429  1.00 19.54     0.009 C 
HETATM   30  C28 VFQ 2 619     -46.426 143.400   8.783  1.00 19.54     0.007 C 
HETATM   31  C29 VFQ 2 619     -45.570 142.688   7.836  1.00 46.63    -0.062 C 
HETATM   32  C30 VFQ 2 619     -44.840 141.706   8.376  1.00 46.63     0.007 C 
HETATM   33  C31 VFQ 2 619     -43.929 140.832   7.655  1.00 46.63     0.001 C 
HETATM   34  C32 VFQ 2 619     -43.300 139.921   8.390  1.00 46.63     0.007 C 
HETATM   35  C33 VFQ 2 619     -42.337 138.966   7.824  1.00 46.63    -0.062 C 
HETATM   36  C34 VFQ 2 619     -41.713 138.144   8.688  1.00 46.63     0.007 C 
HETATM   37  C35 VFQ 2 619     -40.717 137.155   8.287  1.00 46.63     0.001 C 
HETATM   38  C36 VFQ 2 619     -50.227 144.659   8.178  1.00 19.54     0.020 C 
HETATM   39  C37 VFQ 2 619     -49.673 143.192  10.089  1.00 19.54     0.020 C 
HETATM   40  C38 VFQ 2 619     -46.394 146.804   9.728  1.00 19.54     0.044 C 
HETATM   41  C39 VFQ 2 619     -45.592 143.036   6.377  1.00 46.63     0.048 C 
HETATM   42  C40 VFQ 2 619     -42.115 138.975   6.340  1.00 46.63     0.048 C 
HETATM   43  O23 VFQ 2 619     -50.643 147.286  12.050  1.00 19.54    -0.395 OA
ATOM     44  H23 VFQ 2 619     -51.573 147.310  11.856  1.00  0.00     0.210 HD
ENDROOT
TORSDOF 12
BEGIN_RES PHE A  61
REMARK  2 active torsions:
REMARK  status: ('A' for Active; 'I' for Inactive)
REMARK    1  A    between atoms: CA   and  CB  
REMARK    2  A    between atoms: CB   and  CG  
ROOT
ATOM      1  CA  PHE A  61     -36.237 128.293  12.768  1.00 39.40     0.164 C 
ENDROOT
BRANCH   1   2
ATOM      2  CB  PHE A  61     -36.813 128.951  11.509  1.00 39.41     0.058 C 
BRANCH   2   3
ATOM      3  CG  PHE A  61     -37.105 127.991  10.381  1.00 39.01    -0.020 A 
ATOM      4  CD2 PHE A  61     -36.399 126.805  10.255  1.00 40.32    -0.004 A 
ATOM      5  CE2 PHE A  61     -36.667 125.924   9.215  1.00 40.20    -0.000 A 
ATOM      6  CZ  PHE A  61     -37.645 126.216   8.292  1.00 40.34    -0.000 A 
ATOM      7  CE1 PHE A  61     -38.358 127.389   8.405  1.00 41.51    -0.000 A 
ATOM      8  CD1 PHE A  61     -38.086 128.273   9.441  1.00 39.94    -0.004 A 
ENDBRANCH   2   3
ENDBRANCH   1   2
END_RES PHE A  61
BEGIN_RES VAL A 134
REMARK  1 active torsions:
REMARK  status: ('A' for Active; 'I' for Inactive)
REMARK    3  A    between atoms: CA   and  CB  
ROOT
ATOM      9  CA  VAL A 134     -29.766 132.051   9.815  1.00 40.75     0.159 C 
ENDROOT
BRANCH   9  10
ATOM     10  CB  VAL A 134     -30.864 132.765   9.009  1.00 40.76     0.029 C 
ATOM     11  CG1 VAL A 134     -30.902 132.250   7.577  1.00 41.76     0.002 C 
ATOM     12  CG2 VAL A 134     -32.227 132.624   9.670  1.00 40.56     0.002 C 
ENDBRANCH   9  10
END_RES VAL A 134
BEGIN_RES TYR A 338
REMARK  3 active torsions:
REMARK  status: ('A' for Active; 'I' for Inactive)
REMARK    4  A    between atoms: CA   and  CB  
REMARK    5  A    between atoms: CB   and  CG  
REMARK    6  A    between atoms: CZ   and  OH  
ROOT
ATOM     13  CA  TYR A 338     -41.631 124.950   6.058  1.00 38.23     0.164 C 
ENDROOT
BRANCH  13  14
ATOM     14  CB  TYR A 338     -41.621 126.456   6.339  1.00 39.15     0.058 C 
BRANCH  14  15
ATOM     15  CG  TYR A 338     -40.391 127.202   5.875  1.00 39.03    -0.020 A 
ATOM     16  CD2 TYR A 338     -40.229 128.543   6.178  1.00 40.65    -0.002 A 
ATOM     17  CE2 TYR A 338     -39.121 129.262   5.756  1.00 40.91     0.024 A 
ATOM     18  CZ  TYR A 338     -38.141 128.636   5.009  1.00 42.33     0.089 A 
ATOM     19  CE1 TYR A 338     -38.278 127.295   4.698  1.00 40.63     0.024 A 
ATOM     20  CD1 TYR A 338     -39.400 126.597   5.118  1.00 39.27    -0.002 A 
BRANCH  18  21
ATOM     21  OH  TYR A 338     -37.042 129.334   4.591  1.00 43.36    -0.359 OA
ATOM     22  HH  TYR A 338     -36.683 130.031   5.128  1.00  0.00     0.217 HD
ENDBRANCH  18  21
ENDBRANCH  14  15
ENDBRANCH  13  14
END_RES TYR A 338
ENDMDL
MODEL 2
REMARK VINA RESULT:    -8.437      1.161     16.425
REMARK INTER + INTRA:         -10.751
REMARK INTER:                 -10.650
REMARK INTRA:                  -0.101
REMARK UNBOUND:                -2.314
REMARK  0 active torsions:
REMARK  status: ('A' for Active; 'I' for Inactive)
REMARK       I    between atoms: C3_3  and  O3_21 
REMARK       I    between atoms: C6_6  and  C7_7 
REMARK       I    between atoms: C8_8  and  C9_9 
REMARK       I    between atoms: C10_10  and  C11_11 
REMARK       I    between atoms: C12_12  and  C13_13 
REMARK       I    between atoms: C14_14  and  C15_15 
REMARK       I    between atoms: C23_25  and  O23_43 
REMARK       I    between atoms: C26_28  and  C27_29 
REMARK       I    between atoms: C28_30  and  C29_31 
REMARK       I    between atoms: C30_32  and  C31_33 
REMARK       I    between atoms: C32_34  and  C33_35 
REMARK       I    between atoms: C34_36  and  C35_37 
ROOT
HETATM    1  C1  VFQ 2 619     -50.299 144.855  10.596  1.00 46.63    -0.018 C 
HETATM    2  C2  VFQ 2 619     -50.281 144.358  12.040  1.00 46.63     0.045 C 
HETATM    3  C3  VFQ 2 619     -49.275 145.058  12.944  1.00 46.63     0.123 C 
HETATM    4  C4  VFQ 2 619     -49.154 146.518  12.544  1.00 46.63     0.066 C 
HETATM    5  C5  VFQ 2 619     -48.604 146.554  11.145  1.00 46.63    -0.074 C 
HETATM    6  C6  VFQ 2 619     -49.102 145.700  10.245  1.00 46.63    -0.048 C 
HETATM    7  C7  VFQ 2 619     -48.313 145.311   9.080  1.00 46.63     0.009 C 
HETATM    8  C8  VFQ 2 619     -47.285 144.582   9.529  1.00 46.63     0.007 C 
HETATM    9  C9  VFQ 2 619     -46.345 143.886   8.617  1.00 46.63    -0.062 C 
HETATM   10  C10 VFQ 2 619     -45.511 142.978   9.155  1.00 46.63     0.007 C 
HETATM   11  C11 VFQ 2 619     -44.576 142.164   8.376  1.00 46.63     0.001 C 
HETATM   12  C12 VFQ 2 619     -43.845 141.233   8.978  1.00 46.63     0.007 C 
HETATM   13  C13 VFQ 2 619     -42.917 140.368   8.221  1.00 46.63    -0.062 C 
HETATM   14  C14 VFQ 2 619     -42.303 139.397   8.918  1.00 46.63     0.007 C 
HETATM   15  C15 VFQ 2 619     -41.361 138.426   8.368  1.00 46.63     0.001 C 
HETATM   16  C16 VFQ 2 619     -51.528 145.727  10.376  1.00 46.63     0.020 C 
HETATM   17  C17 VFQ 2 619     -50.339 143.668   9.644  1.00 46.63     0.020 C 
HETATM   18  C18 VFQ 2 619     -47.373 147.390  10.912  1.00 46.63     0.044 C 
HETATM   19  C19 VFQ 2 619     -46.372 144.179   7.142  1.00 46.63     0.048 C 
HETATM   20  C20 VFQ 2 619     -42.709 140.600   6.752  1.00 46.63     0.048 C 
HETATM   21  O3  VFQ 2 619     -49.715 144.981  14.303  1.00 46.63    -0.395 OA
ATOM     22  H3  VFQ 2 619     -49.087 145.417  14.868  1.00  0.00     0.210 HD
HETATM   23  C21 VFQ 2 619     -34.113 128.239   7.145  1.00 19.54    -0.018 C 
HETATM   24  C22 VFQ 2 619     -33.176 127.523   6.175  1.00 19.54     0.045 C 
HETATM   25  C23 VFQ 2 619     -31.704 127.883   6.185  1.00 19.54     0.123 C 
HETATM   26  C24 VFQ 2 619     -31.548 129.381   6.239  1.00 19.54     0.066 C 
HETATM   27  C25 VFQ 2 619     -32.335 129.968   7.383  1.00 19.54    -0.074 C 
HETATM   28  C26 VFQ 2 619     -33.555 129.525   7.729  1.00 19.54    -0.048 C 
HETATM   29  C27 VFQ 2 619     -34.375 130.260   8.738  1.00 19.54     0.009 C 
HETATM   30  C28 VFQ 2 619     -35.174 131.293   8.438  1.00 19.54     0.007 C 
HETATM   31  C29 VFQ 2 619     -35.980 132.007   9.427  1.00 46.63    -0.062 C 
HETATM   32  C30 VFQ 2 619     -36.765 132.962   8.916  1.00 46.63     0.007 C 
HETATM   33  C31 VFQ 2 619     -37.680 133.801   9.673  1.00 46.63     0.001 C 
HETATM   34  C32 VFQ 2 619     -38.367 134.690   8.966  1.00 46.63     0.007 C 
HETATM   35  C33 VFQ 2 619     -39.326 135.625   9.573  1.00 46.63    -0.062 C 
HETATM   36  C34 VFQ 2 619     -39.901 136.526   8.756  1.00 46.63     0.007 C 
HETATM   37  C35 VFQ 2 619     -40.857 137.533   9.208  1.00 46.63     0.001 C 
HETATM   38  C36 VFQ 2 619     -34.404 127.318   8.321  1.00 19.54     0.020 C 
HETATM   39  C37 VFQ 2 619     -35.408 128.467   6.376  1.00 19.54     0.020 C 
HETATM   40  C38 VFQ 2 619     -31.661 131.077   8.128  1.00 19.54     0.044 C 
HETATM   41  C39 VFQ 2 619     -35.930 131.621  10.874  1.00 46.63     0.048 C 
HETATM   42  C40 VFQ 2 619     -39.591 135.513  11.046  1.00 46.63     0.048 C 
HETATM   43  O23 VFQ 2 619     -31.110 127.414   4.973  1.00 19.54    -0.395 OA
ATOM     44  H23 VFQ 2 619     -31.208 126.470   4.939  1.00  0.00     0.210 HD
ENDROOT
TORSDOF 12
BEGIN_RES PHE A  61
REMARK  2 active torsions:
REMARK  status: ('A' for Active; 'I' for Inactive)
REMARK    1  A    between atoms: CA   and  CB  
REMARK    2  A    between atoms: CB   and  CG  
ROOT
ATOM      1  CA  PHE A  61     -36.237 128.293  12.768  1.00 39.40     0.164 C 
ENDROOT
BRANCH   1   2
ATOM      2  CB  PHE A  61     -36.813 128.951  11.509  1.00 39.41     0.058 C 
BRANCH   2   3
ATOM      3  CG  PHE A  61     -37.036 128.002  10.355  1.00 39.01    -0.020 A 
ATOM      4  CD2 PHE A  61     -36.345 126.804  10.276  1.00 40.32    -0.004 A 
ATOM      5  CE2 PHE A  61     -36.549 125.933   9.213  1.00 40.20    -0.000 A 
ATOM      6  CZ  PHE A  61     -37.447 126.250   8.219  1.00 40.34    -0.000 A 
ATOM      7  CE1 PHE A  61     -38.143 127.436   8.285  1.00 41.51    -0.000 A 
ATOM      8  CD1 PHE A  61     -37.935 128.310   9.344  1.00 39.94    -0.004 A 
ENDBRANCH   2   3
ENDBRANCH   1   2
END_RES PHE A  61
BEGIN_RES VAL A 134
REMARK  1 active torsions:
REMARK  status: ('A' for Active; 'I' for Inactive)
REMARK    3  A    between atoms: CA   and  CB  
ROOT
ATOM      9  CA  VAL A 134     -29.766 132.051   9.815  1.00 40.75     0.159 C 
ENDROOT
BRANCH   9  10
ATOM     10  CB  VAL A 134     -30.864 132.765   9.009  1.00 40.76     0.029 C 
ATOM     11  CG1 VAL A 134     -32.097 132.998   9.869  1.00 41.76     0.002 C 
ATOM     12  CG2 VAL A 134     -30.364 134.073   8.415  1.00 40.56     0.002 C 
ENDBRANCH   9  10
END_RES VAL A 134
BEGIN_RES TYR A 338
REMARK  3 active torsions:
REMARK  status: ('A' for Active; 'I' for Inactive)
REMARK    4  A    between atoms: CA   and  CB  
REMARK    5  A    between atoms: CB   and  CG  
REMARK    6  A    between atoms: CZ   and  OH  
ROOT
ATOM     13  CA  TYR A 338     -41.631 124.950   6.058  1.00 38.23     0.164 C 
ENDROOT
BRANCH  13  14
ATOM     14  CB  TYR A 338     -41.621 126.456   6.339  1.00 39.15     0.058 C 
BRANCH  14  15
ATOM     15  CG  TYR A 338     -40.420 127.212   5.820  1.00 39.03    -0.020 A 
ATOM     16  CD2 TYR A 338     -40.269 128.561   6.094  1.00 40.65    -0.002 A 
ATOM     17  CE2 TYR A 338     -39.188 129.289   5.621  1.00 40.91     0.024 A 
ATOM     18  CZ  TYR A 338     -38.225 128.666   4.851  1.00 42.33     0.089 A 
ATOM     19  CE1 TYR A 338     -38.351 127.317   4.567  1.00 40.63     0.024 A 
ATOM     20  CD1 TYR A 338     -39.446 126.610   5.039  1.00 39.27    -0.002 A 
BRANCH  18  21
ATOM     21  OH  TYR A 338     -37.153 129.373   4.383  1.00 43.36    -0.359 OA
ATOM     22  HH  TYR A 338     -36.322 129.348   4.844  1.00  0.00     0.217 HD
ENDBRANCH  18  21
ENDBRANCH  14  15
ENDBRANCH  13  14
END_RES TYR A 338
ENDMDL
