MODEL 1
REMARK VINA RESULT:    -9.443      0.000      0.000
REMARK INTER + INTRA:         -11.921
REMARK INTER:                  -9.443
REMARK INTRA:                  -2.478
REMARK UNBOUND:                -2.478
REMARK  0 active torsions:
REMARK  status: ('A' for Active; 'I' for Inactive)
REMARK       I    between atoms: C3_3  and  O3_21 
REMARK       I    between atoms: C6_6  and  C7_7 
REMARK       I    between atoms: C8_8  and  C9_9 
REMARK       I    between atoms: C10_10  and  C11_11 
REMARK       I    between atoms: C12_12  and  C13_13 
REMARK       I    between atoms: C14_14  and  C15_15 
REMARK       I    between atoms: C23_25  and  O23_43 
REMARK       I    between atoms: C26_28  and  C27_29 
REMARK       I    between atoms: C28_30  and  C29_31 
REMARK       I    between atoms: C30_32  and  C31_33 
REMARK       I    between atoms: C32_34  and  C33_35 
REMARK       I    between atoms: C34_36  and  C35_37 
ROOT
HETATM    1  C1  VFQ Z1621     -34.222 127.140   6.720  1.00 27.99    -0.018 C 
HETATM    2  C2  VFQ Z1621     -33.769 126.796   5.295  1.00 27.99     0.045 C 
HETATM    3  C3  VFQ Z1621     -32.728 127.732   4.697  1.00 27.99     0.123 C 
HETATM    4  C4  VFQ Z1621     -31.709 128.068   5.769  1.00 27.99     0.066 C 
HETATM    5  C5  VFQ Z1621     -32.454 128.876   6.791  1.00 27.99    -0.074 C 
HETATM    6  C6  VFQ Z1621     -33.564 128.365   7.338  1.00 27.99    -0.048 C 
HETATM    7  C7  VFQ Z1621     -34.319 129.076   8.395  1.00 27.99     0.009 C 
HETATM    8  C8  VFQ Z1621     -34.406 130.410   8.311  1.00 27.99     0.007 C 
HETATM    9  C9  VFQ Z1621     -35.355 131.124   9.199  1.00 27.99    -0.062 C 
HETATM   10  C10 VFQ Z1621     -35.847 132.301   8.756  1.00 27.99     0.007 C 
HETATM   11  C11 VFQ Z1621     -36.911 133.038   9.443  1.00 27.99     0.001 C 
HETATM   12  C12 VFQ Z1621     -37.519 134.054   8.831  1.00 27.99     0.007 C 
HETATM   13  C13 VFQ Z1621     -38.659 134.764   9.461  1.00 27.99    -0.062 C 
HETATM   14  C14 VFQ Z1621     -39.315 135.677   8.713  1.00 27.99     0.007 C 
HETATM   15  C15 VFQ Z1621     -40.474 136.446   9.176  1.00 27.99     0.001 C 
HETATM   16  C16 VFQ Z1621     -33.776 125.998   7.636  1.00 27.99     0.020 C 
HETATM   17  C17 VFQ Z1621     -35.746 127.247   6.728  1.00 27.99     0.020 C 
HETATM   18  C18 VFQ Z1621     -31.517 129.781   7.542  1.00 27.99     0.044 C 
HETATM   19  C19 VFQ Z1621     -35.803 130.474  10.487  1.00 27.99     0.048 C 
HETATM   20  C20 VFQ Z1621     -39.042 134.410  10.875  1.00 27.99     0.048 C 
HETATM   21  O3  VFQ Z1621     -32.086 127.110   3.577  1.00 27.99    -0.395 OA
ATOM     22  H3  VFQ Z1621     -32.725 126.900   2.905  1.00  0.00     0.210 HD
HETATM   23  C21 VFQ Z1621     -49.908 145.207   9.774  1.00 19.54    -0.018 C 
HETATM   24  C22 VFQ Z1621     -50.844 145.964  10.713  1.00 19.54     0.045 C 
HETATM   25  C23 VFQ Z1621     -50.264 147.052  11.596  1.00 19.54     0.123 C 
HETATM   26  C24 VFQ Z1621     -48.982 146.566  12.222  1.00 19.54     0.066 C 
HETATM   27  C25 VFQ Z1621     -48.028 146.049  11.176  1.00 19.54    -0.074 C 
HETATM   28  C26 VFQ Z1621     -48.434 145.329  10.115  1.00 19.54    -0.048 C 
HETATM   29  C27 VFQ Z1621     -47.440 144.676   9.212  1.00 19.54     0.009 C 
HETATM   30  C28 VFQ Z1621     -46.911 143.466   9.441  1.00 19.54     0.007 C 
HETATM   31  C29 VFQ Z1621     -45.940 142.825   8.549  1.00 27.99    -0.062 C 
HETATM   32  C30 VFQ Z1621     -45.454 141.628   8.934  1.00 27.99     0.007 C 
HETATM   33  C31 VFQ Z1621     -44.439 140.882   8.192  1.00 27.99     0.001 C 
HETATM   34  C32 VFQ Z1621     -43.904 139.794   8.745  1.00 27.99     0.007 C 
HETATM   35  C33 VFQ Z1621     -42.808 139.054   8.086  1.00 27.99    -0.062 C 
HETATM   36  C34 VFQ Z1621     -42.193 138.099   8.817  1.00 27.99     0.007 C 
HETATM   37  C35 VFQ Z1621     -41.048 137.314   8.350  1.00 27.99     0.001 C 
HETATM   38  C36 VFQ Z1621     -50.076 145.752   8.363  1.00 19.54     0.020 C 
HETATM   39  C37 VFQ Z1621     -50.387 143.760   9.792  1.00 19.54     0.020 C 
HETATM   40  C38 VFQ Z1621     -46.588 146.399  11.383  1.00 19.54     0.044 C 
HETATM   41  C39 VFQ Z1621     -45.564 143.531   7.273  1.00 27.99     0.048 C 
HETATM   42  C40 VFQ Z1621     -42.400 139.436   6.688  1.00 27.99     0.048 C 
HETATM   43  O23 VFQ Z1621     -51.195 147.333  12.643  1.00 19.54    -0.395 OA
ATOM     44  H23 VFQ Z1621     -50.832 148.014  13.196  1.00  0.00     0.210 HD
ENDROOT
TORSDOF 12
BEGIN_RES PHE A  61
REMARK  2 active torsions:
REMARK  status: ('A' for Active; 'I' for Inactive)
REMARK    1  A    between atoms: CA   and  CB  
REMARK    2  A    between atoms: CB   and  CG  
ROOT
ATOM      1  CA  PHE A  61     -36.237 128.293  12.768  1.00 39.40     0.164 C 
ENDROOT
BRANCH   1   2
ATOM      2  CB  PHE A  61     -36.813 128.951  11.509  1.00 39.41     0.058 C 
BRANCH   2   3
ATOM      3  CG  PHE A  61     -37.092 127.993  10.376  1.00 39.01    -0.020 A 
ATOM      4  CD2 PHE A  61     -36.375 126.813  10.249  1.00 40.32    -0.004 A 
ATOM      5  CE2 PHE A  61     -36.631 125.934   9.204  1.00 40.20    -0.000 A 
ATOM      6  CZ  PHE A  61     -37.607 126.222   8.278  1.00 40.34    -0.000 A 
ATOM      7  CE1 PHE A  61     -38.330 127.389   8.391  1.00 41.51    -0.000 A 
ATOM      8  CD1 PHE A  61     -38.070 128.271   9.432  1.00 39.94    -0.004 A 
ENDBRANCH   2   3
ENDBRANCH   1   2
END_RES PHE A  61
BEGIN_RES VAL A 134
REMARK  1 active torsions:
REMARK  status: ('A' for Active; 'I' for Inactive)
REMARK    3  A    between atoms: CA   and  CB  
ROOT
ATOM      9  CA  VAL A 134     -29.766 132.051   9.815  1.00 40.75     0.159 C 
ENDROOT
BRANCH   9  10
ATOM     10  CB  VAL A 134     -30.864 132.765   9.009  1.00 40.76     0.029 C 
ATOM     11  CG1 VAL A 134     -30.937 132.214   7.593  1.00 41.76     0.002 C 
ATOM     12  CG2 VAL A 134     -32.217 132.669   9.696  1.00 40.56     0.002 C 
ENDBRANCH   9  10
END_RES VAL A 134
BEGIN_RES TYR A 338
REMARK  3 active torsions:
REMARK  status: ('A' for Active; 'I' for Inactive)
REMARK    4  A    between atoms: CA   and  CB  
REMARK    5  A    between atoms: CB   and  CG  
REMARK    6  A    between atoms: CZ   and  OH  
ROOT
ATOM     13  CA  TYR A 338     -41.631 124.950   6.058  1.00 38.23     0.164 C 
ENDROOT
BRANCH  13  14
ATOM     14  CB  TYR A 338     -41.621 126.456   6.339  1.00 39.15     0.058 C 
BRANCH  14  15
ATOM     15  CG  TYR A 338     -40.406 127.207   5.846  1.00 39.03    -0.020 A 
ATOM     16  CD2 TYR A 338     -40.232 128.544   6.163  1.00 40.65    -0.002 A 
ATOM     17  CE2 TYR A 338     -39.137 129.268   5.715  1.00 40.91     0.024 A 
ATOM     18  CZ  TYR A 338     -38.184 128.652   4.927  1.00 42.33     0.089 A 
ATOM     19  CE1 TYR A 338     -38.333 127.316   4.600  1.00 40.63     0.024 A 
ATOM     20  CD1 TYR A 338     -39.442 126.613   5.047  1.00 39.27    -0.002 A 
BRANCH  18  21
ATOM     21  OH  TYR A 338     -37.099 129.355   4.483  1.00 43.36    -0.359 OA
ATOM     22  HH  TYR A 338     -36.220 129.082   4.718  1.00  0.00     0.217 HD
ENDBRANCH  18  21
ENDBRANCH  14  15
ENDBRANCH  13  14
END_RES TYR A 338
ENDMDL
MODEL 2
REMARK VINA RESULT:    -9.215      1.722     16.775
REMARK INTER + INTRA:         -11.693
REMARK INTER:                  -9.755
REMARK INTRA:                  -1.939
REMARK UNBOUND:                -2.478
REMARK  0 active torsions:
REMARK  status: ('A' for Active; 'I' for Inactive)
REMARK       I    between atoms: C3_3  and  O3_21 
REMARK       I    between atoms: C6_6  and  C7_7 
REMARK       I    between atoms: C8_8  and  C9_9 
REMARK       I    between atoms: C10_10  and  C11_11 
REMARK       I    between atoms: C12_12  and  C13_13 
REMARK       I    between atoms: C14_14  and  C15_15 
REMARK       I    between atoms: C23_25  and  O23_43 
REMARK       I    between atoms: C26_28  and  C27_29 
REMARK       I    between atoms: C28_30  and  C29_31 
REMARK       I    between atoms: C30_32  and  C31_33 
REMARK       I    between atoms: C32_34  and  C33_35 
REMARK       I    between atoms: C34_36  and  C35_37 
ROOT
HETATM    1  C1  VFQ Z1621     -47.745 146.157  12.754  1.00 27.99    -0.018 C 
HETATM    2  C2  VFQ Z1621     -48.161 146.321  14.222  1.00 27.99     0.045 C 
HETATM    3  C3  VFQ Z1621     -47.073 146.838  15.154  1.00 27.99     0.123 C 
HETATM    4  C4  VFQ Z1621     -46.310 147.939  14.443  1.00 27.99     0.066 C 
HETATM    5  C5  VFQ Z1621     -45.597 147.263  13.309  1.00 27.99    -0.074 C 
HETATM    6  C6  VFQ Z1621     -46.306 146.539  12.435  1.00 27.99    -0.048 C 
HETATM    7  C7  VFQ Z1621     -45.682 145.892  11.258  1.00 27.99     0.009 C 
HETATM    8  C8  VFQ Z1621     -44.453 145.380  11.405  1.00 27.99     0.007 C 
HETATM    9  C9  VFQ Z1621     -43.905 144.513  10.335  1.00 27.99    -0.062 C 
HETATM   10  C10 VFQ Z1621     -42.991 143.588  10.700  1.00 27.99     0.007 C 
HETATM   11  C11 VFQ Z1621     -42.483 142.557   9.791  1.00 27.99     0.001 C 
HETATM   12  C12 VFQ Z1621     -41.779 141.532  10.273  1.00 27.99     0.007 C 
HETATM   13  C13 VFQ Z1621     -41.327 140.426   9.395  1.00 27.99    -0.062 C 
HETATM   14  C14 VFQ Z1621     -40.755 139.355   9.987  1.00 27.99     0.007 C 
HETATM   15  C15 VFQ Z1621     -40.277 138.171   9.267  1.00 27.99     0.001 C 
HETATM   16  C16 VFQ Z1621     -48.567 147.148  11.927  1.00 27.99     0.020 C 
HETATM   17  C17 VFQ Z1621     -48.064 144.728  12.321  1.00 27.99     0.020 C 
HETATM   18  C18 VFQ Z1621     -44.365 148.033  12.920  1.00 27.99     0.044 C 
HETATM   19  C19 VFQ Z1621     -44.451 144.625   8.931  1.00 27.99     0.048 C 
HETATM   20  C20 VFQ Z1621     -41.555 140.538   7.910  1.00 27.99     0.048 C 
HETATM   21  O3  VFQ Z1621     -47.654 147.338  16.366  1.00 27.99    -0.395 OA
ATOM     22  H3  VFQ Z1621     -48.133 146.648  16.812  1.00  0.00     0.210 HD
HETATM   23  C21 VFQ Z1621     -34.487 126.966   6.613  1.00 19.54    -0.018 C 
HETATM   24  C22 VFQ Z1621     -33.887 126.110   5.500  1.00 19.54     0.045 C 
HETATM   25  C23 VFQ Z1621     -32.561 126.528   4.896  1.00 19.54     0.123 C 
HETATM   26  C24 VFQ Z1621     -32.573 128.012   4.629  1.00 19.54     0.066 C 
HETATM   27  C25 VFQ Z1621     -32.956 128.783   5.865  1.00 19.54    -0.074 C 
HETATM   28  C26 VFQ Z1621     -33.911 128.366   6.715  1.00 19.54    -0.048 C 
HETATM   29  C27 VFQ Z1621     -34.392 129.253   7.815  1.00 19.54     0.009 C 
HETATM   30  C28 VFQ Z1621     -35.359 130.168   7.664  1.00 19.54     0.007 C 
HETATM   31  C29 VFQ Z1621     -35.833 131.034   8.750  1.00 27.99    -0.062 C 
HETATM   32  C30 VFQ Z1621     -36.776 131.945   8.437  1.00 27.99     0.007 C 
HETATM   33  C31 VFQ Z1621     -37.314 132.920   9.384  1.00 27.99     0.001 C 
HETATM   34  C32 VFQ Z1621     -38.115 133.884   8.933  1.00 27.99     0.007 C 
HETATM   35  C33 VFQ Z1621     -38.612 134.953   9.824  1.00 27.99    -0.062 C 
HETATM   36  C34 VFQ Z1621     -39.238 135.994   9.235  1.00 27.99     0.007 C 
HETATM   37  C35 VFQ Z1621     -39.736 137.169   9.953  1.00 27.99     0.001 C 
HETATM   38  C36 VFQ Z1621     -34.229 126.290   7.951  1.00 19.54     0.020 C 
HETATM   39  C37 VFQ Z1621     -35.990 126.976   6.359  1.00 19.54     0.020 C 
HETATM   40  C38 VFQ Z1621     -32.193 130.049   6.101  1.00 19.54     0.044 C 
HETATM   41  C39 VFQ Z1621     -35.251 130.840  10.125  1.00 27.99     0.048 C 
HETATM   42  C40 VFQ Z1621     -38.347 134.858  11.303  1.00 27.99     0.048 C 
HETATM   43  O23 VFQ Z1621     -32.394 125.850   3.649  1.00 19.54    -0.395 OA
ATOM     44  H23 VFQ Z1621     -31.564 126.113   3.270  1.00  0.00     0.210 HD
ENDROOT
TORSDOF 12
BEGIN_RES PHE A  61
REMARK  2 active torsions:
REMARK  status: ('A' for Active; 'I' for Inactive)
REMARK    1  A    between atoms: CA   and  CB  
REMARK    2  A    between atoms: CB   and  CG  
ROOT
ATOM      1  CA  PHE A  61     -36.237 128.293  12.768  1.00 39.40     0.164 C 
ENDROOT
BRANCH   1   2
ATOM      2  CB  PHE A  61     -36.813 128.951  11.509  1.00 39.41     0.058 C 
BRANCH   2   3
ATOM      3  CG  PHE A  61     -37.104 127.991  10.380  1.00 39.01    -0.020 A 
ATOM      4  CD2 PHE A  61     -38.042 128.299   9.408  1.00 40.32    -0.004 A 
ATOM      5  CE2 PHE A  61     -38.310 127.413   8.372  1.00 40.20    -0.000 A 
ATOM      6  CZ  PHE A  61     -37.642 126.213   8.294  1.00 40.34    -0.000 A 
ATOM      7  CE1 PHE A  61     -36.705 125.892   9.252  1.00 41.51    -0.000 A 
ATOM      8  CD1 PHE A  61     -36.441 126.775  10.292  1.00 39.94    -0.004 A 
ENDBRANCH   2   3
ENDBRANCH   1   2
END_RES PHE A  61
BEGIN_RES VAL A 134
REMARK  1 active torsions:
REMARK  status: ('A' for Active; 'I' for Inactive)
REMARK    3  A    between atoms: CA   and  CB  
ROOT
ATOM      9  CA  VAL A 134     -29.766 132.051   9.815  1.00 40.75     0.159 C 
ENDROOT
BRANCH   9  10
ATOM     10  CB  VAL A 134     -30.864 132.765   9.009  1.00 40.76     0.029 C 
ATOM     11  CG1 VAL A 134     -30.886 132.267   7.571  1.00 41.76     0.002 C 
ATOM     12  CG2 VAL A 134     -32.230 132.604   9.657  1.00 40.56     0.002 C 
ENDBRANCH   9  10
END_RES VAL A 134
BEGIN_RES TYR A 338
REMARK  3 active torsions:
REMARK  status: ('A' for Active; 'I' for Inactive)
REMARK    4  A    between atoms: CA   and  CB  
REMARK    5  A    between atoms: CB   and  CG  
REMARK    6  A    between atoms: CZ   and  OH  
ROOT
ATOM     13  CA  TYR A 338     -41.631 124.950   6.058  1.00 38.23     0.164 C 
ENDROOT
BRANCH  13  14
ATOM     14  CB  TYR A 338     -41.621 126.456   6.339  1.00 39.15     0.058 C 
BRANCH  14  15
ATOM     15  CG  TYR A 338     -40.418 127.212   5.824  1.00 39.03    -0.020 A 
ATOM     16  CD2 TYR A 338     -40.241 128.548   6.140  1.00 40.65    -0.002 A 
ATOM     17  CE2 TYR A 338     -39.158 129.276   5.672  1.00 40.91     0.024 A 
ATOM     18  CZ  TYR A 338     -38.218 128.664   4.864  1.00 42.33     0.089 A 
ATOM     19  CE1 TYR A 338     -38.370 127.328   4.538  1.00 40.63     0.024 A 
ATOM     20  CD1 TYR A 338     -39.467 126.621   5.005  1.00 39.27    -0.002 A 
BRANCH  18  21
ATOM     21  OH  TYR A 338     -37.143 129.371   4.401  1.00 43.36    -0.359 OA
ATOM     22  HH  TYR A 338     -37.220 129.902   3.617  1.00  0.00     0.217 HD
ENDBRANCH  18  21
ENDBRANCH  14  15
ENDBRANCH  13  14
END_RES TYR A 338
ENDMDL
MODEL 3
REMARK VINA RESULT:    -8.718      1.302     16.832
REMARK INTER + INTRA:         -11.196
REMARK INTER:                 -10.858
REMARK INTRA:                  -0.338
REMARK UNBOUND:                -2.478
REMARK  0 active torsions:
REMARK  status: ('A' for Active; 'I' for Inactive)
REMARK       I    between atoms: C3_3  and  O3_21 
REMARK       I    between atoms: C6_6  and  C7_7 
REMARK       I    between atoms: C8_8  and  C9_9 
REMARK       I    between atoms: C10_10  and  C11_11 
REMARK       I    between atoms: C12_12  and  C13_13 
REMARK       I    between atoms: C14_14  and  C15_15 
REMARK       I    between atoms: C23_25  and  O23_43 
REMARK       I    between atoms: C26_28  and  C27_29 
REMARK       I    between atoms: C28_30  and  C29_31 
REMARK       I    between atoms: C30_32  and  C31_33 
REMARK       I    between atoms: C32_34  and  C33_35 
REMARK       I    between atoms: C34_36  and  C35_37 
ROOT
HETATM    1  C1  VFQ Z1621     -49.633 145.988  11.388  1.00 27.99    -0.018 C 
HETATM    2  C2  VFQ Z1621     -50.378 146.010  12.730  1.00 27.99     0.045 C 
HETATM    3  C3  VFQ Z1621     -49.567 146.509  13.918  1.00 27.99     0.123 C 
HETATM    4  C4  VFQ Z1621     -48.744 147.703  13.475  1.00 27.99     0.066 C 
HETATM    5  C5  VFQ Z1621     -47.748 147.161  12.492  1.00 27.99    -0.074 C 
HETATM    6  C6  VFQ Z1621     -48.190 146.472  11.433  1.00 27.99    -0.048 C 
HETATM    7  C7  VFQ Z1621     -47.273 145.957  10.391  1.00 27.99     0.009 C 
HETATM    8  C8  VFQ Z1621     -46.075 145.503  10.781  1.00 27.99     0.007 C 
HETATM    9  C9  VFQ Z1621     -45.240 144.756   9.810  1.00 27.99    -0.062 C 
HETATM   10  C10 VFQ Z1621     -44.368 143.855  10.312  1.00 27.99     0.007 C 
HETATM   11  C11 VFQ Z1621     -43.597 142.930   9.478  1.00 27.99     0.001 C 
HETATM   12  C12 VFQ Z1621     -42.948 141.910  10.040  1.00 27.99     0.007 C 
HETATM   13  C13 VFQ Z1621     -42.233 140.904   9.218  1.00 27.99    -0.062 C 
HETATM   14  C14 VFQ Z1621     -41.733 139.822   9.852  1.00 27.99     0.007 C 
HETATM   15  C15 VFQ Z1621     -41.022 138.727   9.184  1.00 27.99     0.001 C 
HETATM   16  C16 VFQ Z1621     -50.316 146.996  10.463  1.00 27.99     0.020 C 
HETATM   17  C17 VFQ Z1621     -49.743 144.583  10.800  1.00 27.99     0.020 C 
HETATM   18  C18 VFQ Z1621     -46.518 148.025  12.447  1.00 27.99     0.044 C 
HETATM   19  C19 VFQ Z1621     -45.464 144.951   8.329  1.00 27.99     0.048 C 
HETATM   20  C20 VFQ Z1621     -42.129 141.123   7.730  1.00 27.99     0.048 C 
HETATM   21  O3  VFQ Z1621     -50.439 146.877  14.995  1.00 27.99    -0.395 OA
ATOM     22  H3  VFQ Z1621     -50.955 146.128  15.272  1.00  0.00     0.210 HD
HETATM   23  C21 VFQ Z1621     -34.001 128.104   7.191  1.00 19.54    -0.018 C 
HETATM   24  C22 VFQ Z1621     -33.106 127.374   6.192  1.00 19.54     0.045 C 
HETATM   25  C23 VFQ Z1621     -31.712 127.912   5.936  1.00 19.54     0.123 C 
HETATM   26  C24 VFQ Z1621     -31.770 129.409   5.773  1.00 19.54     0.066 C 
HETATM   27  C25 VFQ Z1621     -32.474 130.057   6.936  1.00 19.54    -0.074 C 
HETATM   28  C26 VFQ Z1621     -33.564 129.521   7.515  1.00 19.54    -0.048 C 
HETATM   29  C27 VFQ Z1621     -34.342 130.289   8.533  1.00 19.54     0.009 C 
HETATM   30  C28 VFQ Z1621     -35.313 131.159   8.225  1.00 19.54     0.007 C 
HETATM   31  C29 VFQ Z1621     -36.078 131.907   9.228  1.00 27.99    -0.062 C 
HETATM   32  C30 VFQ Z1621     -36.990 132.788   8.769  1.00 27.99     0.007 C 
HETATM   33  C31 VFQ Z1621     -37.795 133.652   9.630  1.00 27.99     0.001 C 
HETATM   34  C32 VFQ Z1621     -38.541 134.605   9.072  1.00 27.99     0.007 C 
HETATM   35  C33 VFQ Z1621     -39.300 135.570   9.894  1.00 27.99    -0.062 C 
HETATM   36  C34 VFQ Z1621     -39.850 136.620   9.247  1.00 27.99     0.007 C 
HETATM   37  C35 VFQ Z1621     -40.579 137.704   9.908  1.00 27.99     0.001 C 
HETATM   38  C36 VFQ Z1621     -34.002 127.338   8.506  1.00 19.54     0.020 C 
HETATM   39  C37 VFQ Z1621     -35.406 128.053   6.602  1.00 19.54     0.020 C 
HETATM   40  C38 VFQ Z1621     -31.876 131.339   7.424  1.00 19.54     0.044 C 
HETATM   41  C39 VFQ Z1621     -35.808 131.635  10.684  1.00 27.99     0.048 C 
HETATM   42  C40 VFQ Z1621     -39.368 135.371  11.384  1.00 27.99     0.048 C 
HETATM   43  O23 VFQ Z1621     -31.222 127.347   4.719  1.00 19.54    -0.395 OA
ATOM     44  H23 VFQ Z1621     -30.349 127.684   4.558  1.00  0.00     0.210 HD
ENDROOT
TORSDOF 12
BEGIN_RES PHE A  61
REMARK  2 active torsions:
REMARK  status: ('A' for Active; 'I' for Inactive)
REMARK    1  A    between atoms: CA   and  CB  
REMARK    2  A    between atoms: CB   and  CG  
ROOT
ATOM      1  CA  PHE A  61     -36.237 128.293  12.768  1.00 39.40     0.164 C 
ENDROOT
BRANCH   1   2
ATOM      2  CB  PHE A  61     -36.813 128.951  11.509  1.00 39.41     0.058 C 
BRANCH   2   3
ATOM      3  CG  PHE A  61     -37.032 128.003  10.354  1.00 39.01    -0.020 A 
ATOM      4  CD2 PHE A  61     -36.310 126.824  10.254  1.00 40.32    -0.004 A 
ATOM      5  CE2 PHE A  61     -36.510 125.955   9.190  1.00 40.20    -0.000 A 
ATOM      6  CZ  PHE A  61     -37.436 126.252   8.215  1.00 40.34    -0.000 A 
ATOM      7  CE1 PHE A  61     -38.162 127.419   8.301  1.00 41.51    -0.000 A 
ATOM      8  CD1 PHE A  61     -37.958 128.292   9.362  1.00 39.94    -0.004 A 
ENDBRANCH   2   3
ENDBRANCH   1   2
END_RES PHE A  61
BEGIN_RES VAL A 134
REMARK  1 active torsions:
REMARK  status: ('A' for Active; 'I' for Inactive)
REMARK    3  A    between atoms: CA   and  CB  
ROOT
ATOM      9  CA  VAL A 134     -29.766 132.051   9.815  1.00 40.75     0.159 C 
ENDROOT
BRANCH   9  10
ATOM     10  CB  VAL A 134     -30.864 132.765   9.009  1.00 40.76     0.029 C 
ATOM     11  CG1 VAL A 134     -32.119 132.945   9.851  1.00 41.76     0.002 C 
ATOM     12  CG2 VAL A 134     -30.382 134.101   8.465  1.00 40.56     0.002 C 
ENDBRANCH   9  10
END_RES VAL A 134
BEGIN_RES TYR A 338
REMARK  3 active torsions:
REMARK  status: ('A' for Active; 'I' for Inactive)
REMARK    4  A    between atoms: CA   and  CB  
REMARK    5  A    between atoms: CB   and  CG  
REMARK    6  A    between atoms: CZ   and  OH  
ROOT
ATOM     13  CA  TYR A 338     -41.631 124.950   6.058  1.00 38.23     0.164 C 
ENDROOT
BRANCH  13  14
ATOM     14  CB  TYR A 338     -41.621 126.456   6.339  1.00 39.15     0.058 C 
BRANCH  14  15
ATOM     15  CG  TYR A 338     -40.414 127.210   5.830  1.00 39.03    -0.020 A 
ATOM     16  CD2 TYR A 338     -40.260 128.557   6.111  1.00 40.65    -0.002 A 
ATOM     17  CE2 TYR A 338     -39.174 129.284   5.648  1.00 40.91     0.024 A 
ATOM     18  CZ  TYR A 338     -38.208 128.660   4.881  1.00 42.33     0.089 A 
ATOM     19  CE1 TYR A 338     -38.337 127.313   4.591  1.00 40.63     0.024 A 
ATOM     20  CD1 TYR A 338     -39.438 126.607   5.053  1.00 39.27    -0.002 A 
BRANCH  18  21
ATOM     21  OH  TYR A 338     -37.131 129.366   4.422  1.00 43.36    -0.359 OA
ATOM     22  HH  TYR A 338     -36.274 129.242   4.814  1.00  0.00     0.217 HD
ENDBRANCH  18  21
ENDBRANCH  14  15
ENDBRANCH  13  14
END_RES TYR A 338
ENDMDL
