MODEL 1
REMARK VINA RESULT:   -11.131      0.000      0.000
REMARK INTER + INTRA:         -11.482
REMARK INTER:                 -11.131
REMARK INTRA:                  -0.351
REMARK UNBOUND:                -0.351
REMARK  0 active torsions:
REMARK  status: ('A' for Active; 'I' for Inactive)
REMARK       I    between atoms: C3_3  and  O3_21 
REMARK       I    between atoms: C6_6  and  C7_7 
REMARK       I    between atoms: C8_8  and  C9_9 
REMARK       I    between atoms: C10_10  and  C11_11 
REMARK       I    between atoms: C12_12  and  C13_13 
REMARK       I    between atoms: C14_14  and  C15_15 
REMARK       I    between atoms: C23_25  and  O23_43 
REMARK       I    between atoms: C26_28  and  C27_29 
REMARK       I    between atoms: C28_30  and  C29_31 
REMARK       I    between atoms: C30_32  and  C31_33 
REMARK       I    between atoms: C32_34  and  C33_35 
REMARK       I    between atoms: C34_36  and  C35_37 
ROOT
HETATM    1  C1  VFQ S1620     -34.298 128.054   6.763  1.00 51.40    -0.018 C 
HETATM    2  C2  VFQ S1620     -33.714 127.585   5.438  1.00 51.40     0.045 C 
HETATM    3  C3  VFQ S1620     -32.349 128.099   5.000  1.00 51.40     0.123 C 
HETATM    4  C4  VFQ S1620     -31.565 128.735   6.126  1.00 51.40     0.066 C 
HETATM    5  C5  VFQ S1620     -32.441 129.691   6.867  1.00 51.40    -0.074 C 
HETATM    6  C6  VFQ S1620     -33.612 129.274   7.334  1.00 51.40    -0.048 C 
HETATM    7  C7  VFQ S1620     -34.271 129.981   8.447  1.00 51.40     0.009 C 
HETATM    8  C8  VFQ S1620     -34.963 131.087   8.217  1.00 51.40     0.007 C 
HETATM    9  C9  VFQ S1620     -35.651 131.790   9.296  1.00 51.40    -0.062 C 
HETATM   10  C10 VFQ S1620     -36.284 132.906   8.945  1.00 51.40     0.007 C 
HETATM   11  C11 VFQ S1620     -37.061 133.752   9.827  1.00 51.40     0.001 C 
HETATM   12  C12 VFQ S1620     -37.834 134.584   9.150  1.00 51.40     0.007 C 
HETATM   13  C13 VFQ S1620     -38.756 135.534   9.766  1.00 51.40    -0.062 C 
HETATM   14  C14 VFQ S1620     -39.553 136.220   8.946  1.00 51.40     0.007 C 
HETATM   15  C15 VFQ S1620     -40.545 137.154   9.442  1.00 51.40     0.001 C 
HETATM   16  C16 VFQ S1620     -34.278 126.874   7.726  1.00 51.40     0.020 C 
HETATM   17  C17 VFQ S1620     -35.749 128.432   6.523  1.00 51.40     0.020 C 
HETATM   18  C18 VFQ S1620     -31.510 130.547   7.668  1.00 51.40     0.044 C 
HETATM   19  C19 VFQ S1620     -35.635 131.250  10.692  1.00 51.40     0.048 C 
HETATM   20  C20 VFQ S1620     -38.803 135.705  11.248  1.00 51.40     0.048 C 
HETATM   21  O3  VFQ S1620     -31.581 126.993   4.523  1.00 51.40    -0.395 OA
ATOM     22  H3  VFQ S1620     -32.073 126.593   3.816  1.00  0.00     0.210 HD
HETATM   23  C21 VFQ S1620     -50.806 144.084  10.875  1.00 13.75    -0.018 C 
HETATM   24  C22 VFQ S1620     -51.847 144.651  11.827  1.00 13.75     0.045 C 
HETATM   25  C23 VFQ S1620     -51.636 146.112  12.151  1.00 13.75     0.123 C 
HETATM   26  C24 VFQ S1620     -50.255 146.278  12.726  1.00 13.75     0.066 C 
HETATM   27  C25 VFQ S1620     -49.238 145.829  11.719  1.00 13.75    -0.074 C 
HETATM   28  C26 VFQ S1620     -49.453 144.780  10.908  1.00 13.75    -0.048 C 
HETATM   29  C27 VFQ S1620     -48.421 144.266   9.961  1.00 13.75     0.009 C 
HETATM   30  C28 VFQ S1620     -47.392 143.479  10.299  1.00 13.75     0.007 C 
HETATM   31  C29 VFQ S1620     -46.441 142.990   9.298  1.00 51.40    -0.062 C 
HETATM   32  C30 VFQ S1620     -45.836 141.827   9.547  1.00 51.40     0.007 C 
HETATM   33  C31 VFQ S1620     -44.887 141.196   8.643  1.00 51.40     0.001 C 
HETATM   34  C32 VFQ S1620     -44.144 140.236   9.171  1.00 51.40     0.007 C 
HETATM   35  C33 VFQ S1620     -43.153 139.461   8.413  1.00 51.40    -0.062 C 
HETATM   36  C34 VFQ S1620     -42.362 138.655   9.123  1.00 51.40     0.007 C 
HETATM   37  C35 VFQ S1620     -41.350 137.768   8.580  1.00 51.40     0.001 C 
HETATM   38  C36 VFQ S1620     -51.341 144.227   9.458  1.00 13.75     0.020 C 
HETATM   39  C37 VFQ S1620     -50.672 142.608  11.218  1.00 13.75     0.020 C 
HETATM   40  C38 VFQ S1620     -47.995 146.656  11.681  1.00 13.75     0.044 C 
HETATM   41  C39 VFQ S1620     -46.163 143.768   8.050  1.00 51.40     0.048 C 
HETATM   42  C40 VFQ S1620     -43.069 139.558   6.922  1.00 51.40     0.048 C 
HETATM   43  O23 VFQ S1620     -52.600 146.537  13.116  1.00 13.75    -0.395 OA
ATOM     44  H23 VFQ S1620     -53.471 146.432  12.754  1.00  0.00     0.210 HD
ENDROOT
TORSDOF 12
BEGIN_RES PHE A  61
REMARK  2 active torsions:
REMARK  status: ('A' for Active; 'I' for Inactive)
REMARK    1  A    between atoms: CA   and  CB  
REMARK    2  A    between atoms: CB   and  CG  
ROOT
ATOM      1  CA  PHE A  61     -36.237 128.293  12.768  1.00 39.40     0.164 C 
ENDROOT
BRANCH   1   2
ATOM      2  CB  PHE A  61     -36.813 128.951  11.509  1.00 39.41     0.058 C 
BRANCH   2   3
ATOM      3  CG  PHE A  61     -37.027 128.004  10.352  1.00 39.01    -0.020 A 
ATOM      4  CD2 PHE A  61     -36.279 126.844  10.235  1.00 40.32    -0.004 A 
ATOM      5  CE2 PHE A  61     -36.475 125.975   9.168  1.00 40.20    -0.000 A 
ATOM      6  CZ  PHE A  61     -37.423 126.255   8.211  1.00 40.34    -0.000 A 
ATOM      7  CE1 PHE A  61     -38.176 127.403   8.314  1.00 41.51    -0.000 A 
ATOM      8  CD1 PHE A  61     -37.976 128.275   9.377  1.00 39.94    -0.004 A 
ENDBRANCH   2   3
ENDBRANCH   1   2
END_RES PHE A  61
BEGIN_RES VAL A 134
REMARK  1 active torsions:
REMARK  status: ('A' for Active; 'I' for Inactive)
REMARK    3  A    between atoms: CA   and  CB  
ROOT
ATOM      9  CA  VAL A 134     -29.766 132.051   9.815  1.00 40.75     0.159 C 
ENDROOT
BRANCH   9  10
ATOM     10  CB  VAL A 134     -30.864 132.765   9.009  1.00 40.76     0.029 C 
ATOM     11  CG1 VAL A 134     -32.111 132.964   9.858  1.00 41.76     0.002 C 
ATOM     12  CG2 VAL A 134     -30.375 134.091   8.447  1.00 40.56     0.002 C 
ENDBRANCH   9  10
END_RES VAL A 134
BEGIN_RES TYR A 338
REMARK  3 active torsions:
REMARK  status: ('A' for Active; 'I' for Inactive)
REMARK    4  A    between atoms: CA   and  CB  
REMARK    5  A    between atoms: CB   and  CG  
REMARK    6  A    between atoms: CZ   and  OH  
ROOT
ATOM     13  CA  TYR A 338     -41.631 124.950   6.058  1.00 38.23     0.164 C 
ENDROOT
BRANCH  13  14
ATOM     14  CB  TYR A 338     -41.621 126.456   6.339  1.00 39.15     0.058 C 
BRANCH  14  15
ATOM     15  CG  TYR A 338     -40.420 127.212   5.820  1.00 39.03    -0.020 A 
ATOM     16  CD2 TYR A 338     -40.254 128.554   6.119  1.00 40.65    -0.002 A 
ATOM     17  CE2 TYR A 338     -39.173 129.282   5.647  1.00 40.91     0.024 A 
ATOM     18  CZ  TYR A 338     -38.224 128.666   4.853  1.00 42.33     0.089 A 
ATOM     19  CE1 TYR A 338     -38.365 127.324   4.545  1.00 40.63     0.024 A 
ATOM     20  CD1 TYR A 338     -39.461 126.617   5.015  1.00 39.27    -0.002 A 
BRANCH  18  21
ATOM     21  OH  TYR A 338     -37.152 129.373   4.385  1.00 43.36    -0.359 OA
ATOM     22  HH  TYR A 338     -36.871 129.280   3.483  1.00  0.00     0.217 HD
ENDBRANCH  18  21
ENDBRANCH  14  15
ENDBRANCH  13  14
END_RES TYR A 338
ENDMDL
MODEL 2
REMARK VINA RESULT:    -8.480      0.795     16.662
REMARK INTER + INTRA:          -8.831
REMARK INTER:                  -8.523
REMARK INTRA:                  -0.308
REMARK UNBOUND:                -0.351
REMARK  0 active torsions:
REMARK  status: ('A' for Active; 'I' for Inactive)
REMARK       I    between atoms: C3_3  and  O3_21 
REMARK       I    between atoms: C6_6  and  C7_7 
REMARK       I    between atoms: C8_8  and  C9_9 
REMARK       I    between atoms: C10_10  and  C11_11 
REMARK       I    between atoms: C12_12  and  C13_13 
REMARK       I    between atoms: C14_14  and  C15_15 
REMARK       I    between atoms: C23_25  and  O23_43 
REMARK       I    between atoms: C26_28  and  C27_29 
REMARK       I    between atoms: C28_30  and  C29_31 
REMARK       I    between atoms: C30_32  and  C31_33 
REMARK       I    between atoms: C32_34  and  C33_35 
REMARK       I    between atoms: C34_36  and  C35_37 
ROOT
HETATM    1  C1  VFQ S1620     -50.468 144.793  10.105  1.00 51.40    -0.018 C 
HETATM    2  C2  VFQ S1620     -51.370 145.045  11.305  1.00 51.40     0.045 C 
HETATM    3  C3  VFQ S1620     -51.034 146.177  12.267  1.00 51.40     0.123 C 
HETATM    4  C4  VFQ S1620     -50.037 147.162  11.699  1.00 51.40     0.066 C 
HETATM    5  C5  VFQ S1620     -48.886 146.421  11.102  1.00 51.40    -0.074 C 
HETATM    6  C6  VFQ S1620     -49.119 145.472  10.203  1.00 51.40    -0.048 C 
HETATM    7  C7  VFQ S1620     -48.070 145.065   9.251  1.00 51.40     0.009 C 
HETATM    8  C8  VFQ S1620     -47.121 144.221   9.627  1.00 51.40     0.007 C 
HETATM    9  C9  VFQ S1620     -46.087 143.778   8.696  1.00 51.40    -0.062 C 
HETATM   10  C10 VFQ S1620     -45.171 142.956   9.202  1.00 51.40     0.007 C 
HETATM   11  C11 VFQ S1620     -44.073 142.358   8.469  1.00 51.40     0.001 C 
HETATM   12  C12 VFQ S1620     -43.539 141.347   9.130  1.00 51.40     0.007 C 
HETATM   13  C13 VFQ S1620     -42.438 140.527   8.628  1.00 51.40    -0.062 C 
HETATM   14  C14 VFQ S1620     -42.091 139.469   9.361  1.00 51.40     0.007 C 
HETATM   15  C15 VFQ S1620     -41.048 138.552   8.942  1.00 51.40     0.001 C 
HETATM   16  C16 VFQ S1620     -51.232 145.201   8.852  1.00 51.40     0.020 C 
HETATM   17  C17 VFQ S1620     -50.208 143.300  10.025  1.00 51.40     0.020 C 
HETATM   18  C18 VFQ S1620     -47.797 147.435  10.943  1.00 51.40     0.044 C 
HETATM   19  C19 VFQ S1620     -46.099 144.229   7.269  1.00 51.40     0.048 C 
HETATM   20  C20 VFQ S1620     -41.756 140.864   7.345  1.00 51.40     0.048 C 
HETATM   21  O3  VFQ S1620     -52.233 146.903  12.546  1.00 51.40    -0.395 OA
ATOM     22  H3  VFQ S1620     -52.859 146.285  12.902  1.00  0.00     0.210 HD
HETATM   23  C21 VFQ S1620     -34.127 128.371   6.999  1.00 13.75    -0.018 C 
HETATM   24  C22 VFQ S1620     -33.267 127.570   6.033  1.00 13.75     0.045 C 
HETATM   25  C23 VFQ S1620     -31.785 127.700   6.295  1.00 13.75     0.123 C 
HETATM   26  C24 VFQ S1620     -31.418 129.159   6.238  1.00 13.75     0.066 C 
HETATM   27  C25 VFQ S1620     -32.185 129.909   7.285  1.00 13.75    -0.074 C 
HETATM   28  C26 VFQ S1620     -33.455 129.598   7.597  1.00 13.75    -0.048 C 
HETATM   29  C27 VFQ S1620     -34.263 130.385   8.573  1.00 13.75     0.009 C 
HETATM   30  C28 VFQ S1620     -34.873 131.547   8.306  1.00 13.75     0.007 C 
HETATM   31  C29 VFQ S1620     -35.678 132.239   9.315  1.00 51.40    -0.062 C 
HETATM   32  C30 VFQ S1620     -36.674 133.012   8.877  1.00 51.40     0.007 C 
HETATM   33  C31 VFQ S1620     -37.577 133.744   9.751  1.00 51.40     0.001 C 
HETATM   34  C32 VFQ S1620     -38.284 134.701   9.172  1.00 51.40     0.007 C 
HETATM   35  C33 VFQ S1620     -39.270 135.528   9.880  1.00 51.40    -0.062 C 
HETATM   36  C34 VFQ S1620     -39.768 136.565   9.203  1.00 51.40     0.007 C 
HETATM   37  C35 VFQ S1620     -40.783 137.483   9.687  1.00 51.40     0.001 C 
HETATM   38  C36 VFQ S1620     -34.496 127.460   8.161  1.00 13.75     0.020 C 
HETATM   39  C37 VFQ S1620     -35.386 128.752   6.235  1.00 13.75     0.020 C 
HETATM   40  C38 VFQ S1620     -31.417 130.998   7.958  1.00 13.75     0.044 C 
HETATM   41  C39 VFQ S1620     -35.389 132.083  10.774  1.00 51.40     0.048 C 
HETATM   42  C40 VFQ S1620     -39.705 135.197  11.272  1.00 51.40     0.048 C 
HETATM   43  O23 VFQ S1620     -31.053 126.993   5.292  1.00 13.75    -0.395 OA
ATOM     44  H23 VFQ S1620     -31.284 126.073   5.328  1.00  0.00     0.210 HD
ENDROOT
TORSDOF 12
BEGIN_RES PHE A  61
REMARK  2 active torsions:
REMARK  status: ('A' for Active; 'I' for Inactive)
REMARK    1  A    between atoms: CA   and  CB  
REMARK    2  A    between atoms: CB   and  CG  
ROOT
ATOM      1  CA  PHE A  61     -36.237 128.293  12.768  1.00 39.40     0.164 C 
ENDROOT
BRANCH   1   2
ATOM      2  CB  PHE A  61     -36.813 128.951  11.509  1.00 39.41     0.058 C 
BRANCH   2   3
ATOM      3  CG  PHE A  61     -37.013 128.007  10.348  1.00 39.01    -0.020 A 
ATOM      4  CD2 PHE A  61     -36.288 126.830  10.254  1.00 40.32    -0.004 A 
ATOM      5  CE2 PHE A  61     -36.471 125.964   9.183  1.00 40.20    -0.000 A 
ATOM      6  CZ  PHE A  61     -37.383 126.263   8.197  1.00 40.34    -0.000 A 
ATOM      7  CE1 PHE A  61     -38.114 127.427   8.277  1.00 41.51    -0.000 A 
ATOM      8  CD1 PHE A  61     -37.927 128.297   9.344  1.00 39.94    -0.004 A 
ENDBRANCH   2   3
ENDBRANCH   1   2
END_RES PHE A  61
BEGIN_RES VAL A 134
REMARK  1 active torsions:
REMARK  status: ('A' for Active; 'I' for Inactive)
REMARK    3  A    between atoms: CA   and  CB  
ROOT
ATOM      9  CA  VAL A 134     -29.766 132.051   9.815  1.00 40.75     0.159 C 
ENDROOT
BRANCH   9  10
ATOM     10  CB  VAL A 134     -30.864 132.765   9.009  1.00 40.76     0.029 C 
ATOM     11  CG1 VAL A 134     -32.089 133.019   9.876  1.00 41.76     0.002 C 
ATOM     12  CG2 VAL A 134     -30.357 134.062   8.397  1.00 40.56     0.002 C 
ENDBRANCH   9  10
END_RES VAL A 134
BEGIN_RES TYR A 338
REMARK  3 active torsions:
REMARK  status: ('A' for Active; 'I' for Inactive)
REMARK    4  A    between atoms: CA   and  CB  
REMARK    5  A    between atoms: CB   and  CG  
REMARK    6  A    between atoms: CZ   and  OH  
ROOT
ATOM     13  CA  TYR A 338     -41.631 124.950   6.058  1.00 38.23     0.164 C 
ENDROOT
BRANCH  13  14
ATOM     14  CB  TYR A 338     -41.621 126.456   6.339  1.00 39.15     0.058 C 
BRANCH  14  15
ATOM     15  CG  TYR A 338     -40.426 127.214   5.809  1.00 39.03    -0.020 A 
ATOM     16  CD2 TYR A 338     -40.266 128.560   6.095  1.00 40.65    -0.002 A 
ATOM     17  CE2 TYR A 338     -39.191 129.290   5.614  1.00 40.91     0.024 A 
ATOM     18  CZ  TYR A 338     -38.242 128.672   4.822  1.00 42.33     0.089 A 
ATOM     19  CE1 TYR A 338     -38.376 127.327   4.526  1.00 40.63     0.024 A 
ATOM     20  CD1 TYR A 338     -39.466 126.617   5.007  1.00 39.27    -0.002 A 
BRANCH  18  21
ATOM     21  OH  TYR A 338     -37.175 129.381   4.345  1.00 43.36    -0.359 OA
ATOM     22  HH  TYR A 338     -36.288 129.078   4.501  1.00  0.00     0.217 HD
ENDBRANCH  18  21
ENDBRANCH  14  15
ENDBRANCH  13  14
END_RES TYR A 338
ENDMDL
