MODEL 1
REMARK VINA RESULT:    -9.763      0.000      0.000
REMARK INTER + INTRA:         -12.352
REMARK INTER:                  -9.763
REMARK INTRA:                  -2.589
REMARK UNBOUND:                -2.589
REMARK  0 active torsions:
REMARK  status: ('A' for Active; 'I' for Inactive)
REMARK       I    between atoms: C3_3  and  O3_21 
REMARK       I    between atoms: C6_6  and  C7_7 
REMARK       I    between atoms: C8_8  and  C9_9 
REMARK       I    between atoms: C10_10  and  C11_11 
REMARK       I    between atoms: C12_12  and  C13_13 
REMARK       I    between atoms: C14_14  and  C15_15 
REMARK       I    between atoms: C23_25  and  O23_43 
REMARK       I    between atoms: C26_28  and  C27_29 
REMARK       I    between atoms: C28_30  and  C29_31 
REMARK       I    between atoms: C30_32  and  C31_33 
REMARK       I    between atoms: C32_34  and  C33_35 
REMARK       I    between atoms: C34_36  and  C35_37 
ROOT
HETATM    1  C1  VFQ X1621     -34.424 127.003   6.420  1.00 31.86    -0.018 C 
HETATM    2  C2  VFQ X1621     -34.211 126.702   4.932  1.00 31.86     0.045 C 
HETATM    3  C3  VFQ X1621     -33.004 127.350   4.263  1.00 31.86     0.123 C 
HETATM    4  C4  VFQ X1621     -31.973 127.813   5.283  1.00 31.86     0.066 C 
HETATM    5  C5  VFQ X1621     -32.690 128.722   6.236  1.00 31.86    -0.074 C 
HETATM    6  C6  VFQ X1621     -33.718 128.239   6.932  1.00 31.86    -0.048 C 
HETATM    7  C7  VFQ X1621     -34.320 128.965   8.070  1.00 31.86     0.009 C 
HETATM    8  C8  VFQ X1621     -34.326 130.302   8.061  1.00 31.86     0.007 C 
HETATM    9  C9  VFQ X1621     -35.135 131.010   9.079  1.00 31.86    -0.062 C 
HETATM   10  C10 VFQ X1621     -35.559 132.250   8.762  1.00 31.86     0.007 C 
HETATM   11  C11 VFQ X1621     -36.499 133.011   9.583  1.00 31.86     0.001 C 
HETATM   12  C12 VFQ X1621     -37.075 134.098   9.073  1.00 31.86     0.007 C 
HETATM   13  C13 VFQ X1621     -38.102 134.853   9.826  1.00 31.86    -0.062 C 
HETATM   14  C14 VFQ X1621     -38.734 135.852   9.176  1.00 31.86     0.007 C 
HETATM   15  C15 VFQ X1621     -39.789 136.678   9.767  1.00 31.86     0.001 C 
HETATM   16  C16 VFQ X1621     -33.857 125.851   7.247  1.00 31.86     0.020 C 
HETATM   17  C17 VFQ X1621     -35.921 127.077   6.674  1.00 31.86     0.020 C 
HETATM   18  C18 VFQ X1621     -31.590 129.516   6.884  1.00 31.86     0.044 C 
HETATM   19  C19 VFQ X1621     -35.529 130.303  10.356  1.00 31.86     0.048 C 
HETATM   20  C20 VFQ X1621     -38.405 134.452  11.248  1.00 31.86     0.048 C 
HETATM   21  O3  VFQ X1621     -32.436 126.357   3.413  1.00 31.86    -0.395 OA
ATOM     22  H3  VFQ X1621     -31.684 126.761   2.997  1.00  0.00     0.210 HD
HETATM   23  C21 VFQ X1621     -48.405 144.755  12.351  1.00 32.37    -0.018 C 
HETATM   24  C22 VFQ X1621     -49.244 145.462  13.403  1.00 32.37     0.045 C 
HETATM   25  C23 VFQ X1621     -48.747 146.840  13.782  1.00 32.37     0.123 C 
HETATM   26  C24 VFQ X1621     -47.309 146.689  14.228  1.00 32.37     0.066 C 
HETATM   27  C25 VFQ X1621     -46.484 146.150  13.088  1.00 32.37    -0.074 C 
HETATM   28  C26 VFQ X1621     -47.087 145.486  12.095  1.00 32.37    -0.048 C 
HETATM   29  C27 VFQ X1621     -46.361 145.171  10.858  1.00 32.37     0.009 C 
HETATM   30  C28 VFQ X1621     -45.839 143.945  10.991  1.00 32.37     0.007 C 
HETATM   31  C29 VFQ X1621     -44.987 143.318   9.966  1.00 31.86    -0.062 C 
HETATM   32  C30 VFQ X1621     -44.472 142.106  10.261  1.00 31.86     0.007 C 
HETATM   33  C31 VFQ X1621     -43.565 141.365   9.385  1.00 31.86     0.001 C 
HETATM   34  C32 VFQ X1621     -43.007 140.243   9.835  1.00 31.86     0.007 C 
HETATM   35  C33 VFQ X1621     -42.021 139.488   9.033  1.00 31.86    -0.062 C 
HETATM   36  C34 VFQ X1621     -41.404 138.457   9.647  1.00 31.86     0.007 C 
HETATM   37  C35 VFQ X1621     -40.362 137.629   9.036  1.00 31.86     0.001 C 
HETATM   38  C36 VFQ X1621     -49.216 144.782  11.056  1.00 32.37     0.020 C 
HETATM   39  C37 VFQ X1621     -48.296 143.309  12.833  1.00 32.37     0.020 C 
HETATM   40  C38 VFQ X1621     -44.995 146.370  13.147  1.00 32.37     0.044 C 
HETATM   41  C39 VFQ X1621     -44.750 144.054   8.671  1.00 31.86     0.048 C 
HETATM   42  C40 VFQ X1621     -41.723 139.928   7.624  1.00 31.86     0.048 C 
HETATM   43  O23 VFQ X1621     -49.558 147.296  14.870  1.00 32.37    -0.395 OA
ATOM     44  H23 VFQ X1621     -50.462 147.391  14.590  1.00  0.00     0.210 HD
ENDROOT
TORSDOF 12
BEGIN_RES PHE A  61
REMARK  2 active torsions:
REMARK  status: ('A' for Active; 'I' for Inactive)
REMARK    1  A    between atoms: CA   and  CB  
REMARK    2  A    between atoms: CB   and  CG  
ROOT
ATOM      1  CA  PHE A  61     -36.237 128.293  12.768  1.00 39.40     0.164 C 
ENDROOT
BRANCH   1   2
ATOM      2  CB  PHE A  61     -36.813 128.951  11.509  1.00 39.41     0.058 C 
BRANCH   2   3
ATOM      3  CG  PHE A  61     -37.092 127.993  10.376  1.00 39.01    -0.020 A 
ATOM      4  CD2 PHE A  61     -36.367 126.819  10.242  1.00 40.32    -0.004 A 
ATOM      5  CE2 PHE A  61     -36.622 125.940   9.197  1.00 40.20    -0.000 A 
ATOM      6  CZ  PHE A  61     -37.607 126.222   8.278  1.00 40.34    -0.000 A 
ATOM      7  CE1 PHE A  61     -38.338 127.383   8.398  1.00 41.51    -0.000 A 
ATOM      8  CD1 PHE A  61     -38.078 128.265   9.439  1.00 39.94    -0.004 A 
ENDBRANCH   2   3
ENDBRANCH   1   2
END_RES PHE A  61
BEGIN_RES VAL A 134
REMARK  1 active torsions:
REMARK  status: ('A' for Active; 'I' for Inactive)
REMARK    3  A    between atoms: CA   and  CB  
ROOT
ATOM      9  CA  VAL A 134     -29.766 132.051   9.815  1.00 40.75     0.159 C 
ENDROOT
BRANCH   9  10
ATOM     10  CB  VAL A 134     -30.864 132.765   9.009  1.00 40.76     0.029 C 
ATOM     11  CG1 VAL A 134     -31.068 132.089   7.661  1.00 41.76     0.002 C 
ATOM     12  CG2 VAL A 134     -32.172 132.835   9.782  1.00 40.56     0.002 C 
ENDBRANCH   9  10
END_RES VAL A 134
BEGIN_RES TYR A 338
REMARK  3 active torsions:
REMARK  status: ('A' for Active; 'I' for Inactive)
REMARK    4  A    between atoms: CA   and  CB  
REMARK    5  A    between atoms: CB   and  CG  
REMARK    6  A    between atoms: CZ   and  OH  
ROOT
ATOM     13  CA  TYR A 338     -41.631 124.950   6.058  1.00 38.23     0.164 C 
ENDROOT
BRANCH  13  14
ATOM     14  CB  TYR A 338     -41.621 126.456   6.339  1.00 39.15     0.058 C 
BRANCH  14  15
ATOM     15  CG  TYR A 338     -40.410 127.209   5.838  1.00 39.03    -0.020 A 
ATOM     16  CD2 TYR A 338     -40.232 128.544   6.159  1.00 40.65    -0.002 A 
ATOM     17  CE2 TYR A 338     -39.142 129.269   5.705  1.00 40.91     0.024 A 
ATOM     18  CZ  TYR A 338     -38.195 128.656   4.905  1.00 42.33     0.089 A 
ATOM     19  CE1 TYR A 338     -38.348 127.322   4.575  1.00 40.63     0.024 A 
ATOM     20  CD1 TYR A 338     -39.453 126.617   5.029  1.00 39.27    -0.002 A 
BRANCH  18  21
ATOM     21  OH  TYR A 338     -37.114 129.361   4.455  1.00 43.36    -0.359 OA
ATOM     22  HH  TYR A 338     -37.072 130.303   4.570  1.00  0.00     0.217 HD
ENDBRANCH  18  21
ENDBRANCH  14  15
ENDBRANCH  13  14
END_RES TYR A 338
ENDMDL
MODEL 2
REMARK VINA RESULT:    -9.712      1.420      1.891
REMARK INTER + INTRA:         -12.301
REMARK INTER:                 -12.073
REMARK INTRA:                  -0.228
REMARK UNBOUND:                -2.589
REMARK  0 active torsions:
REMARK  status: ('A' for Active; 'I' for Inactive)
REMARK       I    between atoms: C3_3  and  O3_21 
REMARK       I    between atoms: C6_6  and  C7_7 
REMARK       I    between atoms: C8_8  and  C9_9 
REMARK       I    between atoms: C10_10  and  C11_11 
REMARK       I    between atoms: C12_12  and  C13_13 
REMARK       I    between atoms: C14_14  and  C15_15 
REMARK       I    between atoms: C23_25  and  O23_43 
REMARK       I    between atoms: C26_28  and  C27_29 
REMARK       I    between atoms: C28_30  and  C29_31 
REMARK       I    between atoms: C30_32  and  C31_33 
REMARK       I    between atoms: C32_34  and  C33_35 
REMARK       I    between atoms: C34_36  and  C35_37 
ROOT
HETATM    1  C1  VFQ X1621     -34.187 128.039   6.937  1.00 31.86    -0.018 C 
HETATM    2  C2  VFQ X1621     -33.593 127.842   5.539  1.00 31.86     0.045 C 
HETATM    3  C3  VFQ X1621     -32.312 128.603   5.219  1.00 31.86     0.123 C 
HETATM    4  C4  VFQ X1621     -31.600 129.068   6.482  1.00 31.86     0.066 C 
HETATM    5  C5  VFQ X1621     -32.596 129.872   7.263  1.00 31.86    -0.074 C 
HETATM    6  C6  VFQ X1621     -33.724 129.286   7.660  1.00 31.86    -0.048 C 
HETATM    7  C7  VFQ X1621     -34.640 129.904   8.641  1.00 31.86     0.009 C 
HETATM    8  C8  VFQ X1621     -34.744 131.235   8.687  1.00 31.86     0.007 C 
HETATM    9  C9  VFQ X1621     -35.829 131.830   9.500  1.00 31.86    -0.062 C 
HETATM   10  C10 VFQ X1621     -36.255 133.058   9.140  1.00 31.86     0.007 C 
HETATM   11  C11 VFQ X1621     -37.423 133.708   9.731  1.00 31.86     0.001 C 
HETATM   12  C12 VFQ X1621     -37.937 134.785   9.140  1.00 31.86     0.007 C 
HETATM   13  C13 VFQ X1621     -39.171 135.428   9.645  1.00 31.86    -0.062 C 
HETATM   14  C14 VFQ X1621     -39.698 136.422   8.899  1.00 31.86     0.007 C 
HETATM   15  C15 VFQ X1621     -40.925 137.143   9.243  1.00 31.86     0.001 C 
HETATM   16  C16 VFQ X1621     -33.755 126.879   7.831  1.00 31.86     0.020 C 
HETATM   17  C17 VFQ X1621     -35.702 128.004   6.813  1.00 31.86     0.020 C 
HETATM   18  C18 VFQ X1621     -31.751 130.695   8.197  1.00 31.86     0.044 C 
HETATM   19  C19 VFQ X1621     -36.470 131.026  10.608  1.00 31.86     0.048 C 
HETATM   20  C20 VFQ X1621     -39.783 134.925  10.928  1.00 31.86     0.048 C 
HETATM   21  O3  VFQ X1621     -31.479 127.699   4.496  1.00 31.86    -0.395 OA
ATOM     22  H3  VFQ X1621     -30.680 128.174   4.297  1.00  0.00     0.210 HD
HETATM   23  C21 VFQ X1621     -50.497 144.494   9.934  1.00 32.37    -0.018 C 
HETATM   24  C22 VFQ X1621     -51.620 145.084  10.773  1.00 32.37     0.045 C 
HETATM   25  C23 VFQ X1621     -51.337 146.466  11.320  1.00 32.37     0.123 C 
HETATM   26  C24 VFQ X1621     -50.045 146.380  12.104  1.00 32.37     0.066 C 
HETATM   27  C25 VFQ X1621     -48.927 145.962  11.184  1.00 32.37    -0.074 C 
HETATM   28  C26 VFQ X1621     -49.216 145.321  10.046  1.00 32.37    -0.048 C 
HETATM   29  C27 VFQ X1621     -48.187 145.127   9.016  1.00 32.37     0.009 C 
HETATM   30  C28 VFQ X1621     -47.623 143.930   9.224  1.00 32.37     0.007 C 
HETATM   31  C29 VFQ X1621     -46.500 143.420   8.418  1.00 31.86    -0.062 C 
HETATM   32  C30 VFQ X1621     -45.982 142.227   8.781  1.00 31.86     0.007 C 
HETATM   33  C31 VFQ X1621     -44.835 141.597   8.128  1.00 31.86     0.001 C 
HETATM   34  C32 VFQ X1621     -44.321 140.488   8.656  1.00 31.86     0.007 C 
HETATM   35  C33 VFQ X1621     -43.115 139.845   8.094  1.00 31.86    -0.062 C 
HETATM   36  C34 VFQ X1621     -42.591 138.821   8.799  1.00 31.86     0.007 C 
HETATM   37  C35 VFQ X1621     -41.372 138.097   8.433  1.00 31.86     0.001 C 
HETATM   38  C36 VFQ X1621     -50.965 144.547   8.481  1.00 32.37     0.020 C 
HETATM   39  C37 VFQ X1621     -50.401 143.033  10.368  1.00 32.37     0.020 C 
HETATM   40  C38 VFQ X1621     -47.519 146.272  11.621  1.00 32.37     0.044 C 
HETATM   41  C39 VFQ X1621     -46.008 144.244   7.255  1.00 31.86     0.048 C 
HETATM   42  C40 VFQ X1621     -42.514 140.386   6.824  1.00 31.86     0.048 C 
HETATM   43  O23 VFQ X1621     -52.422 146.805  12.191  1.00 32.37    -0.395 OA
ATOM     44  H23 VFQ X1621     -53.234 146.859  11.699  1.00  0.00     0.210 HD
ENDROOT
TORSDOF 12
BEGIN_RES PHE A  61
REMARK  2 active torsions:
REMARK  status: ('A' for Active; 'I' for Inactive)
REMARK    1  A    between atoms: CA   and  CB  
REMARK    2  A    between atoms: CB   and  CG  
ROOT
ATOM      1  CA  PHE A  61     -36.237 128.293  12.768  1.00 39.40     0.164 C 
ENDROOT
BRANCH   1   2
ATOM      2  CB  PHE A  61     -36.813 128.951  11.509  1.00 39.41     0.058 C 
BRANCH   2   3
ATOM      3  CG  PHE A  61     -37.049 128.000  10.360  1.00 39.01    -0.020 A 
ATOM      4  CD2 PHE A  61     -36.260 126.872  10.196  1.00 40.32    -0.004 A 
ATOM      5  CE2 PHE A  61     -36.476 126.000   9.137  1.00 40.20    -0.000 A 
ATOM      6  CZ  PHE A  61     -37.485 126.243   8.233  1.00 40.34    -0.000 A 
ATOM      7  CE1 PHE A  61     -38.279 127.358   8.382  1.00 41.51    -0.000 A 
ATOM      8  CD1 PHE A  61     -38.059 128.234   9.438  1.00 39.94    -0.004 A 
ENDBRANCH   2   3
ENDBRANCH   1   2
END_RES PHE A  61
BEGIN_RES VAL A 134
REMARK  1 active torsions:
REMARK  status: ('A' for Active; 'I' for Inactive)
REMARK    3  A    between atoms: CA   and  CB  
ROOT
ATOM      9  CA  VAL A 134     -29.766 132.051   9.815  1.00 40.75     0.159 C 
ENDROOT
BRANCH   9  10
ATOM     10  CB  VAL A 134     -30.864 132.765   9.009  1.00 40.76     0.029 C 
ATOM     11  CG1 VAL A 134     -32.074 133.054   9.886  1.00 41.76     0.002 C 
ATOM     12  CG2 VAL A 134     -30.347 134.042   8.364  1.00 40.56     0.002 C 
ENDBRANCH   9  10
END_RES VAL A 134
BEGIN_RES TYR A 338
REMARK  3 active torsions:
REMARK  status: ('A' for Active; 'I' for Inactive)
REMARK    4  A    between atoms: CA   and  CB  
REMARK    5  A    between atoms: CB   and  CG  
REMARK    6  A    between atoms: CZ   and  OH  
ROOT
ATOM     13  CA  TYR A 338     -41.631 124.950   6.058  1.00 38.23     0.164 C 
ENDROOT
BRANCH  13  14
ATOM     14  CB  TYR A 338     -41.621 126.456   6.339  1.00 39.15     0.058 C 
BRANCH  14  15
ATOM     15  CG  TYR A 338     -40.413 127.210   5.832  1.00 39.03    -0.020 A 
ATOM     16  CD2 TYR A 338     -40.257 128.556   6.117  1.00 40.65    -0.002 A 
ATOM     17  CE2 TYR A 338     -39.170 129.282   5.655  1.00 40.91     0.024 A 
ATOM     18  CZ  TYR A 338     -38.206 128.660   4.884  1.00 42.33     0.089 A 
ATOM     19  CE1 TYR A 338     -38.338 127.314   4.589  1.00 40.63     0.024 A 
ATOM     20  CD1 TYR A 338     -39.439 126.609   5.050  1.00 39.27    -0.002 A 
BRANCH  18  21
ATOM     21  OH  TYR A 338     -37.128 129.365   4.427  1.00 43.36    -0.359 OA
ATOM     22  HH  TYR A 338     -36.576 129.007   3.741  1.00  0.00     0.217 HD
ENDBRANCH  18  21
ENDBRANCH  14  15
ENDBRANCH  13  14
END_RES TYR A 338
ENDMDL
MODEL 3
REMARK VINA RESULT:    -6.800      1.500     16.538
REMARK INTER + INTRA:          -9.390
REMARK INTER:                  -8.896
REMARK INTRA:                  -0.494
REMARK UNBOUND:                -2.589
REMARK  0 active torsions:
REMARK  status: ('A' for Active; 'I' for Inactive)
REMARK       I    between atoms: C3_3  and  O3_21 
REMARK       I    between atoms: C6_6  and  C7_7 
REMARK       I    between atoms: C8_8  and  C9_9 
REMARK       I    between atoms: C10_10  and  C11_11 
REMARK       I    between atoms: C12_12  and  C13_13 
REMARK       I    between atoms: C14_14  and  C15_15 
REMARK       I    between atoms: C23_25  and  O23_43 
REMARK       I    between atoms: C26_28  and  C27_29 
REMARK       I    between atoms: C28_30  and  C29_31 
REMARK       I    between atoms: C30_32  and  C31_33 
REMARK       I    between atoms: C32_34  and  C33_35 
REMARK       I    between atoms: C34_36  and  C35_37 
ROOT
HETATM    1  C1  VFQ X1621     -50.290 145.201   9.626  1.00 31.86    -0.018 C 
HETATM    2  C2  VFQ X1621     -51.134 145.197  10.905  1.00 31.86     0.045 C 
HETATM    3  C3  VFQ X1621     -50.635 146.052  12.064  1.00 31.86     0.123 C 
HETATM    4  C4  VFQ X1621     -49.640 147.107  11.602  1.00 31.86     0.066 C 
HETATM    5  C5  VFQ X1621     -48.546 146.378  10.881  1.00 31.86    -0.074 C 
HETATM    6  C6  VFQ X1621     -48.857 145.655   9.806  1.00 31.86    -0.048 C 
HETATM    7  C7  VFQ X1621     -47.834 145.116   8.885  1.00 31.86     0.009 C 
HETATM    8  C8  VFQ X1621     -46.637 144.772   9.371  1.00 31.86     0.007 C 
HETATM    9  C9  VFQ X1621     -45.712 144.018   8.495  1.00 31.86    -0.062 C 
HETATM   10  C10 VFQ X1621     -44.793 143.243   9.106  1.00 31.86     0.007 C 
HETATM   11  C11 VFQ X1621     -43.922 142.314   8.389  1.00 31.86     0.001 C 
HETATM   12  C12 VFQ X1621     -43.244 141.396   9.076  1.00 31.86     0.007 C 
HETATM   13  C13 VFQ X1621     -42.419 140.375   8.394  1.00 31.86    -0.062 C 
HETATM   14  C14 VFQ X1621     -41.886 139.399   9.160  1.00 31.86     0.007 C 
HETATM   15  C15 VFQ X1621     -41.069 138.302   8.640  1.00 31.86     0.001 C 
HETATM   16  C16 VFQ X1621     -50.897 146.186   8.630  1.00 31.86     0.020 C 
HETATM   17  C17 VFQ X1621     -50.354 143.809   9.017  1.00 31.86     0.020 C 
HETATM   18  C18 VFQ X1621     -47.394 147.344  10.888  1.00 31.86     0.044 C 
HETATM   19  C19 VFQ X1621     -45.887 144.064   6.994  1.00 31.86     0.048 C 
HETATM   20  C20 VFQ X1621     -42.246 140.457   6.898  1.00 31.86     0.048 C 
HETATM   21  O3  VFQ X1621     -51.787 146.681  12.622  1.00 31.86    -0.395 OA
ATOM     22  H3  VFQ X1621     -51.476 147.214  13.345  1.00  0.00     0.210 HD
HETATM   23  C21 VFQ X1621     -34.108 128.577   6.872  1.00 32.37    -0.018 C 
HETATM   24  C22 VFQ X1621     -33.174 127.801   5.957  1.00 32.37     0.045 C 
HETATM   25  C23 VFQ X1621     -31.702 127.997   6.249  1.00 32.37     0.123 C 
HETATM   26  C24 VFQ X1621     -31.429 129.483   6.190  1.00 32.37     0.066 C 
HETATM   27  C25 VFQ X1621     -32.250 130.187   7.240  1.00 32.37    -0.074 C 
HETATM   28  C26 VFQ X1621     -33.348 129.594   7.723  1.00 32.37    -0.048 C 
HETATM   29  C27 VFQ X1621     -34.023 130.128   8.913  1.00 32.37     0.009 C 
HETATM   30  C28 VFQ X1621     -34.988 130.958   8.497  1.00 32.37     0.007 C 
HETATM   31  C29 VFQ X1621     -35.837 131.731   9.421  1.00 31.86    -0.062 C 
HETATM   32  C30 VFQ X1621     -36.725 132.582   8.864  1.00 31.86     0.007 C 
HETATM   33  C31 VFQ X1621     -37.606 133.463   9.628  1.00 31.86     0.001 C 
HETATM   34  C32 VFQ X1621     -38.343 134.361   8.977  1.00 31.86     0.007 C 
HETATM   35  C33 VFQ X1621     -39.194 135.335   9.691  1.00 31.86    -0.062 C 
HETATM   36  C34 VFQ X1621     -39.772 136.298   8.943  1.00 31.86     0.007 C 
HETATM   37  C35 VFQ X1621     -40.603 137.379   9.476  1.00 31.86     0.001 C 
HETATM   38  C36 VFQ X1621     -34.741 127.555   7.816  1.00 32.37     0.020 C 
HETATM   39  C37 VFQ X1621     -35.193 129.136   5.953  1.00 32.37     0.020 C 
HETATM   40  C38 VFQ X1621     -31.794 131.555   7.673  1.00 32.37     0.044 C 
HETATM   41  C39 VFQ X1621     -35.668 131.525  10.905  1.00 31.86     0.048 C 
HETATM   42  C40 VFQ X1621     -39.328 135.241  11.189  1.00 31.86     0.048 C 
HETATM   43  O23 VFQ X1621     -30.975 127.318   5.219  1.00 32.37    -0.395 OA
ATOM     44  H23 VFQ X1621     -31.146 126.383   5.256  1.00  0.00     0.210 HD
ENDROOT
TORSDOF 12
BEGIN_RES PHE A  61
REMARK  2 active torsions:
REMARK  status: ('A' for Active; 'I' for Inactive)
REMARK    1  A    between atoms: CA   and  CB  
REMARK    2  A    between atoms: CB   and  CG  
ROOT
ATOM      1  CA  PHE A  61     -36.237 128.293  12.768  1.00 39.40     0.164 C 
ENDROOT
BRANCH   1   2
ATOM      2  CB  PHE A  61     -36.813 128.951  11.509  1.00 39.41     0.058 C 
BRANCH   2   3
ATOM      3  CG  PHE A  61     -37.008 128.008  10.346  1.00 39.01    -0.020 A 
ATOM      4  CD2 PHE A  61     -36.281 126.832  10.253  1.00 40.32    -0.004 A 
ATOM      5  CE2 PHE A  61     -36.459 125.967   9.181  1.00 40.20    -0.000 A 
ATOM      6  CZ  PHE A  61     -37.369 126.266   8.192  1.00 40.34    -0.000 A 
ATOM      7  CE1 PHE A  61     -38.101 127.430   8.270  1.00 41.51    -0.000 A 
ATOM      8  CD1 PHE A  61     -37.918 128.298   9.339  1.00 39.94    -0.004 A 
ENDBRANCH   2   3
ENDBRANCH   1   2
END_RES PHE A  61
BEGIN_RES VAL A 134
REMARK  1 active torsions:
REMARK  status: ('A' for Active; 'I' for Inactive)
REMARK    3  A    between atoms: CA   and  CB  
ROOT
ATOM      9  CA  VAL A 134     -29.766 132.051   9.815  1.00 40.75     0.159 C 
ENDROOT
BRANCH   9  10
ATOM     10  CB  VAL A 134     -30.864 132.765   9.009  1.00 40.76     0.029 C 
ATOM     11  CG1 VAL A 134     -32.105 132.979   9.863  1.00 41.76     0.002 C 
ATOM     12  CG2 VAL A 134     -30.370 134.083   8.433  1.00 40.56     0.002 C 
ENDBRANCH   9  10
END_RES VAL A 134
BEGIN_RES TYR A 338
REMARK  3 active torsions:
REMARK  status: ('A' for Active; 'I' for Inactive)
REMARK    4  A    between atoms: CA   and  CB  
REMARK    5  A    between atoms: CB   and  CG  
REMARK    6  A    between atoms: CZ   and  OH  
ROOT
ATOM     13  CA  TYR A 338     -41.631 124.950   6.058  1.00 38.23     0.164 C 
ENDROOT
BRANCH  13  14
ATOM     14  CB  TYR A 338     -41.621 126.456   6.339  1.00 39.15     0.058 C 
BRANCH  14  15
ATOM     15  CG  TYR A 338     -40.419 127.212   5.821  1.00 39.03    -0.020 A 
ATOM     16  CD2 TYR A 338     -40.266 128.560   6.099  1.00 40.65    -0.002 A 
ATOM     17  CE2 TYR A 338     -39.185 129.288   5.627  1.00 40.91     0.024 A 
ATOM     18  CZ  TYR A 338     -38.222 128.665   4.855  1.00 42.33     0.089 A 
ATOM     19  CE1 TYR A 338     -38.350 127.317   4.568  1.00 40.63     0.024 A 
ATOM     20  CD1 TYR A 338     -39.446 126.610   5.038  1.00 39.27    -0.002 A 
BRANCH  18  21
ATOM     21  OH  TYR A 338     -37.149 129.372   4.389  1.00 43.36    -0.359 OA
ATOM     22  HH  TYR A 338     -36.531 129.763   4.995  1.00  0.00     0.217 HD
ENDBRANCH  18  21
ENDBRANCH  14  15
ENDBRANCH  13  14
END_RES TYR A 338
ENDMDL
