MODEL 1
REMARK VINA RESULT:    -9.079      0.000      0.000
REMARK INTER + INTRA:         -11.709
REMARK INTER:                  -9.079
REMARK INTRA:                  -2.631
REMARK UNBOUND:                -2.631
REMARK  0 active torsions:
REMARK  status: ('A' for Active; 'I' for Inactive)
REMARK       I    between atoms: C3_3  and  O3_21 
REMARK       I    between atoms: C6_6  and  C7_7 
REMARK       I    between atoms: C8_8  and  C9_9 
REMARK       I    between atoms: C10_10  and  C11_11 
REMARK       I    between atoms: C12_12  and  C13_13 
REMARK       I    between atoms: C14_14  and  C15_15 
REMARK       I    between atoms: C23_25  and  O23_43 
REMARK       I    between atoms: C26_28  and  C27_29 
REMARK       I    between atoms: C28_30  and  C29_31 
REMARK       I    between atoms: C30_32  and  C31_33 
REMARK       I    between atoms: C32_34  and  C33_35 
REMARK       I    between atoms: C34_36  and  C35_37 
ROOT
HETATM    1  C1  VFQ F5620     -34.541 127.005   6.242  1.00 19.30    -0.018 C 
HETATM    2  C2  VFQ F5620     -34.107 126.362   4.911  1.00 17.68     0.045 C 
HETATM    3  C3  VFQ F5620     -32.922 126.959   4.159  1.00 17.79     0.123 C 
HETATM    4  C4  VFQ F5620     -31.973 127.814   5.000  1.00 18.50     0.066 C 
HETATM    5  C5  VFQ F5620     -32.528 128.587   6.152  1.00 19.40    -0.074 C 
HETATM    6  C6  VFQ F5620     -33.722 128.235   6.749  1.00 19.02    -0.048 C 
HETATM    7  C7  VFQ F5620     -34.278 129.005   7.872  1.00 18.60     0.009 C 
HETATM    8  C8  VFQ F5620     -34.921 130.190   7.800  1.00 18.09     0.007 C 
HETATM    9  C9  VFQ F5620     -35.373 131.021   8.920  1.00 18.23    -0.062 C 
HETATM   10  C10 VFQ F5620     -36.092 132.127   8.632  1.00 15.81     0.007 C 
HETATM   11  C11 VFQ F5620     -36.644 133.063   9.572  1.00 18.00     0.001 C 
HETATM   12  C12 VFQ F5620     -37.489 134.014   9.142  1.00 18.12     0.007 C 
HETATM   13  C13 VFQ F5620     -38.204 135.028   9.906  1.00 18.88    -0.062 C 
HETATM   14  C14 VFQ F5620     -39.086 135.799   9.234  1.00 21.10     0.007 C 
HETATM   15  C15 VFQ F5620     -39.970 136.801   9.768  1.00 24.06     0.001 C 
HETATM   16  C16 VFQ F5620     -34.420 125.850   7.251  1.00 17.17     0.020 C 
HETATM   17  C17 VFQ F5620     -36.039 127.363   6.104  1.00 16.95     0.020 C 
HETATM   18  C18 VFQ F5620     -31.597 129.713   6.472  1.00 19.80     0.044 C 
HETATM   19  C19 VFQ F5620     -35.046 130.554  10.321  1.00 17.09     0.048 C 
HETATM   20  C20 VFQ F5620     -37.971 135.096  11.384  1.00 16.35     0.048 C 
HETATM   21  O3  VFQ F5620     -32.197 125.937   3.501  1.00 17.38    -0.395 OA
ATOM     22  H3  VFQ F5620     -31.458 126.309   3.032  1.00  0.00     0.210 HD
HETATM   23  C21 VFQ F5620     -49.510 144.502  12.566  1.00 72.69    -0.018 C 
HETATM   24  C22 VFQ F5620     -50.261 145.412  13.536  1.00 72.50     0.045 C 
HETATM   25  C23 VFQ F5620     -49.547 146.663  14.041  1.00 72.53     0.123 C 
HETATM   26  C24 VFQ F5620     -48.040 146.492  14.076  1.00 73.67     0.066 C 
HETATM   27  C25 VFQ F5620     -47.552 146.029  12.730  1.00 74.71    -0.074 C 
HETATM   28  C26 VFQ F5620     -48.180 145.045  12.090  1.00 74.26    -0.048 C 
HETATM   29  C27 VFQ F5620     -47.573 144.426  10.890  1.00 75.37     0.009 C 
HETATM   30  C28 VFQ F5620     -46.656 143.470  11.036  1.00 77.10     0.007 C 
HETATM   31  C29 VFQ F5620     -45.998 142.776   9.887  1.00 26.61    -0.062 C 
HETATM   32  C30 VFQ F5620     -45.089 141.825  10.190  1.00 25.24     0.007 C 
HETATM   33  C31 VFQ F5620     -44.373 140.997   9.265  1.00 26.40     0.001 C 
HETATM   34  C32 VFQ F5620     -43.452 140.109   9.684  1.00 26.29     0.007 C 
HETATM   35  C33 VFQ F5620     -42.624 139.202   8.882  1.00 26.99    -0.062 C 
HETATM   36  C34 VFQ F5620     -41.734 138.426   9.537  1.00 26.65     0.007 C 
HETATM   37  C35 VFQ F5620     -40.817 137.472   8.979  1.00 25.43     0.001 C 
HETATM   38  C36 VFQ F5620     -50.377 144.284  11.331  1.00 72.40     0.020 C 
HETATM   39  C37 VFQ F5620     -49.276 143.163  13.253  1.00 73.92     0.020 C 
HETATM   40  C38 VFQ F5620     -46.349 146.695  12.131  1.00 74.98     0.044 C 
HETATM   41  C39 VFQ F5620     -46.373 143.166   8.478  1.00 26.87     0.048 C 
HETATM   42  C40 VFQ F5620     -42.807 139.219   7.393  1.00 24.17     0.048 C 
HETATM   43  O23 VFQ F5620     -50.004 146.936  15.371  1.00 71.08    -0.395 OA
ATOM     44  H23 VFQ F5620     -50.948 147.043  15.349  1.00  0.00     0.210 HD
ENDROOT
TORSDOF 12
BEGIN_RES PHE A  61
REMARK  2 active torsions:
REMARK  status: ('A' for Active; 'I' for Inactive)
REMARK    1  A    between atoms: CA   and  CB  
REMARK    2  A    between atoms: CB   and  CG  
ROOT
ATOM      1  CA  PHE A  61     -36.237 128.293  12.768  1.00 39.40     0.164 C 
ENDROOT
BRANCH   1   2
ATOM      2  CB  PHE A  61     -36.813 128.951  11.509  1.00 39.41     0.058 C 
BRANCH   2   3
ATOM      3  CG  PHE A  61     -37.059 127.998  10.364  1.00 39.01    -0.020 A 
ATOM      4  CD2 PHE A  61     -36.324 126.830  10.239  1.00 40.32    -0.004 A 
ATOM      5  CE2 PHE A  61     -36.549 125.956   9.183  1.00 40.20    -0.000 A 
ATOM      6  CZ  PHE A  61     -37.514 126.237   8.243  1.00 40.34    -0.000 A 
ATOM      7  CE1 PHE A  61     -38.255 127.393   8.354  1.00 41.51    -0.000 A 
ATOM      8  CD1 PHE A  61     -38.025 128.270   9.406  1.00 39.94    -0.004 A 
ENDBRANCH   2   3
ENDBRANCH   1   2
END_RES PHE A  61
BEGIN_RES VAL A 134
REMARK  1 active torsions:
REMARK  status: ('A' for Active; 'I' for Inactive)
REMARK    3  A    between atoms: CA   and  CB  
ROOT
ATOM      9  CA  VAL A 134     -29.766 132.051   9.815  1.00 40.75     0.159 C 
ENDROOT
BRANCH   9  10
ATOM     10  CB  VAL A 134     -30.864 132.765   9.009  1.00 40.76     0.029 C 
ATOM     11  CG1 VAL A 134     -30.929 132.221   7.589  1.00 41.76     0.002 C 
ATOM     12  CG2 VAL A 134     -32.220 132.659   9.691  1.00 40.56     0.002 C 
ENDBRANCH   9  10
END_RES VAL A 134
BEGIN_RES TYR A 338
REMARK  3 active torsions:
REMARK  status: ('A' for Active; 'I' for Inactive)
REMARK    4  A    between atoms: CA   and  CB  
REMARK    5  A    between atoms: CB   and  CG  
REMARK    6  A    between atoms: CZ   and  OH  
ROOT
ATOM     13  CA  TYR A 338     -41.631 124.950   6.058  1.00 38.23     0.164 C 
ENDROOT
BRANCH  13  14
ATOM     14  CB  TYR A 338     -41.621 126.456   6.339  1.00 39.15     0.058 C 
BRANCH  14  15
ATOM     15  CG  TYR A 338     -40.427 127.215   5.807  1.00 39.03    -0.020 A 
ATOM     16  CD2 TYR A 338     -40.245 128.549   6.127  1.00 40.65    -0.002 A 
ATOM     17  CE2 TYR A 338     -39.170 129.280   5.645  1.00 40.91     0.024 A 
ATOM     18  CZ  TYR A 338     -38.244 128.673   4.818  1.00 42.33     0.089 A 
ATOM     19  CE1 TYR A 338     -38.401 127.339   4.488  1.00 40.63     0.024 A 
ATOM     20  CD1 TYR A 338     -39.490 126.629   4.970  1.00 39.27    -0.002 A 
BRANCH  18  21
ATOM     21  OH  TYR A 338     -37.178 129.383   4.340  1.00 43.36    -0.359 OA
ATOM     22  HH  TYR A 338     -37.178 129.707   3.447  1.00  0.00     0.217 HD
ENDBRANCH  18  21
ENDBRANCH  14  15
ENDBRANCH  13  14
END_RES TYR A 338
ENDMDL
MODEL 2
REMARK VINA RESULT:    -8.629      0.467     16.872
REMARK INTER + INTRA:         -11.260
REMARK INTER:                  -9.133
REMARK INTRA:                  -2.127
REMARK UNBOUND:                -2.631
REMARK  0 active torsions:
REMARK  status: ('A' for Active; 'I' for Inactive)
REMARK       I    between atoms: C3_3  and  O3_21 
REMARK       I    between atoms: C6_6  and  C7_7 
REMARK       I    between atoms: C8_8  and  C9_9 
REMARK       I    between atoms: C10_10  and  C11_11 
REMARK       I    between atoms: C12_12  and  C13_13 
REMARK       I    between atoms: C14_14  and  C15_15 
REMARK       I    between atoms: C23_25  and  O23_43 
REMARK       I    between atoms: C26_28  and  C27_29 
REMARK       I    between atoms: C28_30  and  C29_31 
REMARK       I    between atoms: C30_32  and  C31_33 
REMARK       I    between atoms: C32_34  and  C33_35 
REMARK       I    between atoms: C34_36  and  C35_37 
ROOT
HETATM    1  C1  VFQ F5620     -49.169 144.684  12.668  1.00 19.30    -0.018 C 
HETATM    2  C2  VFQ F5620     -49.612 145.338  13.990  1.00 17.68     0.045 C 
HETATM    3  C3  VFQ F5620     -48.801 146.507  14.538  1.00 17.79     0.123 C 
HETATM    4  C4  VFQ F5620     -47.931 147.240  13.516  1.00 18.50     0.066 C 
HETATM    5  C5  VFQ F5620     -47.356 146.469  12.373  1.00 19.40    -0.074 C 
HETATM    6  C6  VFQ F5620     -47.910 145.275  11.957  1.00 19.02    -0.048 C 
HETATM    7  C7  VFQ F5620     -47.335 144.506  10.843  1.00 18.60     0.009 C 
HETATM    8  C8  VFQ F5620     -46.235 143.725  10.883  1.00 18.09     0.007 C 
HETATM    9  C9  VFQ F5620     -45.587 143.051   9.753  1.00 18.23    -0.062 C 
HETATM   10  C10 VFQ F5620     -44.551 142.227  10.024  1.00 15.81     0.007 C 
HETATM   11  C11 VFQ F5620     -43.793 141.460   9.075  1.00 18.00     0.001 C 
HETATM   12  C12 VFQ F5620     -42.910 140.548   9.514  1.00 18.12     0.007 C 
HETATM   13  C13 VFQ F5620     -42.076 139.628   8.751  1.00 18.88    -0.062 C 
HETATM   14  C14 VFQ F5620     -41.350 138.730   9.451  1.00 21.10     0.007 C 
HETATM   15  C15 VFQ F5620     -40.524 137.669   8.937  1.00 24.06     0.001 C 
HETATM   16  C16 VFQ F5620     -50.401 144.848  11.761  1.00 17.17     0.020 C 
HETATM   17  C17 VFQ F5620     -48.982 143.176  12.949  1.00 16.95     0.020 C 
HETATM   18  C18 VFQ F5620     -46.166 147.204  11.844  1.00 19.80     0.044 C 
HETATM   19  C19 VFQ F5620     -46.156 143.285   8.372  1.00 17.09     0.048 C 
HETATM   20  C20 VFQ F5620     -42.136 139.692   7.257  1.00 16.35     0.048 C 
HETATM   21  O3  VFQ F5620     -49.653 147.427  15.196  1.00 17.38    -0.395 OA
ATOM     22  H3  VFQ F5620     -49.148 148.156  15.538  1.00  0.00     0.210 HD
HETATM   23  C21 VFQ F5620     -34.365 126.956   6.606  1.00 72.69    -0.018 C 
HETATM   24  C22 VFQ F5620     -33.659 125.992   5.653  1.00 72.50     0.045 C 
HETATM   25  C23 VFQ F5620     -32.391 126.478   4.955  1.00 72.53     0.123 C 
HETATM   26  C24 VFQ F5620     -32.382 127.983   4.757  1.00 73.67     0.066 C 
HETATM   27  C25 VFQ F5620     -32.639 128.667   6.071  1.00 74.71    -0.074 C 
HETATM   28  C26 VFQ F5620     -33.619 128.246   6.869  1.00 74.26    -0.048 C 
HETATM   29  C27 VFQ F5620     -34.030 129.054   8.039  1.00 75.37     0.009 C 
HETATM   30  C28 VFQ F5620     -34.878 130.068   7.873  1.00 77.10     0.007 C 
HETATM   31  C29 VFQ F5620     -35.364 130.929   8.993  1.00 26.61    -0.062 C 
HETATM   32  C30 VFQ F5620     -36.225 131.918   8.672  1.00 25.24     0.007 C 
HETATM   33  C31 VFQ F5620     -36.859 132.831   9.577  1.00 26.40     0.001 C 
HETATM   34  C32 VFQ F5620     -37.668 133.811   9.133  1.00 26.29     0.007 C 
HETATM   35  C33 VFQ F5620     -38.380 134.832   9.910  1.00 26.99    -0.062 C 
HETATM   36  C34 VFQ F5620     -39.108 135.741   9.228  1.00 26.65     0.007 C 
HETATM   37  C35 VFQ F5620     -39.880 136.830   9.757  1.00 25.43     0.001 C 
HETATM   38  C36 VFQ F5620     -34.555 126.262   7.949  1.00 72.40     0.020 C 
HETATM   39  C37 VFQ F5620     -35.731 127.290   6.020  1.00 73.92     0.020 C 
HETATM   40  C38 VFQ F5620     -31.773 129.829   6.461  1.00 74.98     0.044 C 
HETATM   41  C39 VFQ F5620     -34.876 130.659  10.395  1.00 26.87     0.048 C 
HETATM   42  C40 VFQ F5620     -38.229 134.808  11.403  1.00 24.17     0.048 C 
HETATM   43  O23 VFQ F5620     -32.316 125.850   3.670  1.00 71.08    -0.395 OA
ATOM     44  H23 VFQ F5620     -32.322 124.908   3.794  1.00  0.00     0.210 HD
ENDROOT
TORSDOF 12
BEGIN_RES PHE A  61
REMARK  2 active torsions:
REMARK  status: ('A' for Active; 'I' for Inactive)
REMARK    1  A    between atoms: CA   and  CB  
REMARK    2  A    between atoms: CB   and  CG  
ROOT
ATOM      1  CA  PHE A  61     -36.237 128.293  12.768  1.00 39.40     0.164 C 
ENDROOT
BRANCH   1   2
ATOM      2  CB  PHE A  61     -36.813 128.951  11.509  1.00 39.41     0.058 C 
BRANCH   2   3
ATOM      3  CG  PHE A  61     -37.092 127.993  10.376  1.00 39.01    -0.020 A 
ATOM      4  CD2 PHE A  61     -36.476 126.752  10.325  1.00 40.32    -0.004 A 
ATOM      5  CE2 PHE A  61     -36.732 125.873   9.280  1.00 40.20    -0.000 A 
ATOM      6  CZ  PHE A  61     -37.608 126.221   8.278  1.00 40.34    -0.000 A 
ATOM      7  CE1 PHE A  61     -38.231 127.449   8.316  1.00 41.51    -0.000 A 
ATOM      8  CD1 PHE A  61     -37.971 128.332   9.357  1.00 39.94    -0.004 A 
ENDBRANCH   2   3
ENDBRANCH   1   2
END_RES PHE A  61
BEGIN_RES VAL A 134
REMARK  1 active torsions:
REMARK  status: ('A' for Active; 'I' for Inactive)
REMARK    3  A    between atoms: CA   and  CB  
ROOT
ATOM      9  CA  VAL A 134     -29.766 132.051   9.815  1.00 40.75     0.159 C 
ENDROOT
BRANCH   9  10
ATOM     10  CB  VAL A 134     -30.864 132.765   9.009  1.00 40.76     0.029 C 
ATOM     11  CG1 VAL A 134     -30.995 132.155   7.621  1.00 41.76     0.002 C 
ATOM     12  CG2 VAL A 134     -32.199 132.743   9.737  1.00 40.56     0.002 C 
ENDBRANCH   9  10
END_RES VAL A 134
BEGIN_RES TYR A 338
REMARK  3 active torsions:
REMARK  status: ('A' for Active; 'I' for Inactive)
REMARK    4  A    between atoms: CA   and  CB  
REMARK    5  A    between atoms: CB   and  CG  
REMARK    6  A    between atoms: CZ   and  OH  
ROOT
ATOM     13  CA  TYR A 338     -41.631 124.950   6.058  1.00 38.23     0.164 C 
ENDROOT
BRANCH  13  14
ATOM     14  CB  TYR A 338     -41.621 126.456   6.339  1.00 39.15     0.058 C 
BRANCH  14  15
ATOM     15  CG  TYR A 338     -40.419 127.212   5.821  1.00 39.03    -0.020 A 
ATOM     16  CD2 TYR A 338     -40.256 128.555   6.115  1.00 40.65    -0.002 A 
ATOM     17  CE2 TYR A 338     -39.175 129.283   5.644  1.00 40.91     0.024 A 
ATOM     18  CZ  TYR A 338     -38.223 128.665   4.855  1.00 42.33     0.089 A 
ATOM     19  CE1 TYR A 338     -38.361 127.322   4.552  1.00 40.63     0.024 A 
ATOM     20  CD1 TYR A 338     -39.457 126.615   5.022  1.00 39.27    -0.002 A 
BRANCH  18  21
ATOM     21  OH  TYR A 338     -37.150 129.372   4.389  1.00 43.36    -0.359 OA
ATOM     22  HH  TYR A 338     -36.466 129.658   4.984  1.00  0.00     0.217 HD
ENDBRANCH  18  21
ENDBRANCH  14  15
ENDBRANCH  13  14
END_RES TYR A 338
ENDMDL
