MODEL 1
REMARK VINA RESULT:   -11.620      0.000      0.000
REMARK INTER + INTRA:         -13.303
REMARK INTER:                 -11.620
REMARK INTRA:                  -1.683
REMARK UNBOUND:                -1.683
REMARK  0 active torsions:
REMARK  status: ('A' for Active; 'I' for Inactive)
REMARK       I    between atoms: C3_3  and  O3_21 
REMARK       I    between atoms: C6_6  and  C7_7 
REMARK       I    between atoms: C8_8  and  C9_9 
REMARK       I    between atoms: C10_10  and  C11_11 
REMARK       I    between atoms: C12_12  and  C13_13 
REMARK       I    between atoms: C14_14  and  C15_15 
REMARK       I    between atoms: C23_25  and  O23_43 
REMARK       I    between atoms: C26_28  and  C27_29 
REMARK       I    between atoms: C28_30  and  C29_31 
REMARK       I    between atoms: C30_32  and  C31_33 
REMARK       I    between atoms: C32_34  and  C33_35 
REMARK       I    between atoms: C34_36  and  C35_37 
ROOT
HETATM    1  C1  VFQ G1620     -49.251 144.190  12.261  1.00 59.27    -0.018 C 
HETATM    2  C2  VFQ G1620     -49.953 144.836  13.444  1.00 64.60     0.045 C 
HETATM    3  C3  VFQ G1620     -49.062 145.678  14.332  1.00 63.28     0.123 C 
HETATM    4  C4  VFQ G1620     -48.348 146.716  13.507  1.00 61.00     0.066 C 
HETATM    5  C5  VFQ G1620     -47.575 146.056  12.401  1.00 64.87    -0.074 C 
HETATM    6  C6  VFQ G1620     -47.998 144.923  11.803  1.00 63.96    -0.048 C 
HETATM    7  C7  VFQ G1620     -47.272 144.367  10.630  1.00 64.82     0.009 C 
HETATM    8  C8  VFQ G1620     -46.209 143.565  10.751  1.00 58.91     0.007 C 
HETATM    9  C9  VFQ G1620     -45.504 143.008   9.596  1.00 59.76    -0.062 C 
HETATM   10  C10 VFQ G1620     -44.515 142.156   9.880  1.00 59.44     0.007 C 
HETATM   11  C11 VFQ G1620     -43.680 141.468   8.914  1.00 53.66     0.001 C 
HETATM   12  C12 VFQ G1620     -42.908 140.545   9.464  1.00 59.47     0.007 C 
HETATM   13  C13 VFQ G1620     -41.995 139.692   8.697  1.00 64.69    -0.062 C 
HETATM   14  C14 VFQ G1620     -41.400 138.691   9.351  1.00 66.67     0.007 C 
HETATM   15  C15 VFQ G1620     -40.502 137.757   8.689  1.00 73.65     0.001 C 
HETATM   16  C16 VFQ G1620     -50.310 144.084  11.168  1.00 56.55     0.020 C 
HETATM   17  C17 VFQ G1620     -48.815 142.789  12.663  1.00 59.14     0.020 C 
HETATM   18  C18 VFQ G1620     -46.391 146.849  11.922  1.00 61.00     0.044 C 
HETATM   19  C19 VFQ G1620     -45.878 143.405   8.200  1.00 55.95     0.048 C 
HETATM   20  C20 VFQ G1620     -41.761 139.937   7.239  1.00 67.83     0.048 C 
HETATM   21  O3  VFQ G1620     -49.869 146.336  15.312  1.00 73.40    -0.395 OA
ATOM     22  H3  VFQ G1620     -49.310 146.865  15.870  1.00  0.00     0.210 HD
HETATM   23  C21 VFQ G1620     -34.175 126.957   6.912  1.00 57.46    -0.018 C 
HETATM   24  C22 VFQ G1620     -33.253 126.005   6.163  1.00 54.62     0.045 C 
HETATM   25  C23 VFQ G1620     -32.420 126.562   5.007  1.00 54.91     0.123 C 
HETATM   26  C24 VFQ G1620     -32.363 128.080   4.896  1.00 56.99     0.066 C 
HETATM   27  C25 VFQ G1620     -32.592 128.739   6.229  1.00 60.65    -0.074 C 
HETATM   28  C26 VFQ G1620     -33.577 128.339   7.035  1.00 60.28    -0.048 C 
HETATM   29  C27 VFQ G1620     -34.102 129.212   8.106  1.00 57.11     0.009 C 
HETATM   30  C28 VFQ G1620     -34.981 130.174   7.858  1.00 53.31     0.007 C 
HETATM   31  C29 VFQ G1620     -35.530 131.018   8.937  1.00 93.82    -0.062 C 
HETATM   32  C30 VFQ G1620     -36.425 131.915   8.530  1.00 83.29     0.007 C 
HETATM   33  C31 VFQ G1620     -37.128 132.834   9.402  1.00 75.18     0.001 C 
HETATM   34  C32 VFQ G1620     -37.844 133.746   8.767  1.00 71.38     0.007 C 
HETATM   35  C33 VFQ G1620     -38.656 134.735   9.479  1.00 70.67    -0.062 C 
HETATM   36  C34 VFQ G1620     -39.266 135.683   8.758  1.00 74.09     0.007 C 
HETATM   37  C35 VFQ G1620     -40.127 136.681   9.371  1.00 74.87     0.001 C 
HETATM   38  C36 VFQ G1620     -34.367 126.407   8.314  1.00 59.48     0.020 C 
HETATM   39  C37 VFQ G1620     -35.552 126.995   6.251  1.00 57.14     0.020 C 
HETATM   40  C38 VFQ G1620     -31.671 129.849   6.626  1.00 65.36     0.044 C 
HETATM   41  C39 VFQ G1620     -35.128 130.874  10.374  1.00 99.93     0.048 C 
HETATM   42  C40 VFQ G1620     -38.810 134.650  10.963  1.00 65.73     0.048 C 
HETATM   43  O23 VFQ G1620     -32.975 126.044   3.796  1.00 51.54    -0.395 OA
ATOM     44  H23 VFQ G1620     -33.010 125.097   3.865  1.00  0.00     0.210 HD
ENDROOT
TORSDOF 12
BEGIN_RES PHE A  61
REMARK  2 active torsions:
REMARK  status: ('A' for Active; 'I' for Inactive)
REMARK    1  A    between atoms: CA   and  CB  
REMARK    2  A    between atoms: CB   and  CG  
ROOT
ATOM      1  CA  PHE A  61     -36.237 128.293  12.768  1.00 39.40     0.164 C 
ENDROOT
BRANCH   1   2
ATOM      2  CB  PHE A  61     -36.813 128.951  11.509  1.00 39.41     0.058 C 
BRANCH   2   3
ATOM      3  CG  PHE A  61     -37.109 127.990  10.383  1.00 39.01    -0.020 A 
ATOM      4  CD2 PHE A  61     -37.980 128.337   9.362  1.00 40.32    -0.004 A 
ATOM      5  CE2 PHE A  61     -38.254 127.451   8.327  1.00 40.20    -0.000 A 
ATOM      6  CZ  PHE A  61     -37.658 126.210   8.300  1.00 40.34    -0.000 A 
ATOM      7  CE1 PHE A  61     -36.788 125.851   9.306  1.00 41.51    -0.000 A 
ATOM      8  CD1 PHE A  61     -36.519 126.735  10.344  1.00 39.94    -0.004 A 
ENDBRANCH   2   3
ENDBRANCH   1   2
END_RES PHE A  61
BEGIN_RES VAL A 134
REMARK  1 active torsions:
REMARK  status: ('A' for Active; 'I' for Inactive)
REMARK    3  A    between atoms: CA   and  CB  
ROOT
ATOM      9  CA  VAL A 134     -29.766 132.051   9.815  1.00 40.75     0.159 C 
ENDROOT
BRANCH   9  10
ATOM     10  CB  VAL A 134     -30.864 132.765   9.009  1.00 40.76     0.029 C 
ATOM     11  CG1 VAL A 134     -30.874 132.281   7.566  1.00 41.76     0.002 C 
ATOM     12  CG2 VAL A 134     -32.233 132.589   9.647  1.00 40.56     0.002 C 
ENDBRANCH   9  10
END_RES VAL A 134
BEGIN_RES TYR A 338
REMARK  3 active torsions:
REMARK  status: ('A' for Active; 'I' for Inactive)
REMARK    4  A    between atoms: CA   and  CB  
REMARK    5  A    between atoms: CB   and  CG  
REMARK    6  A    between atoms: CZ   and  OH  
ROOT
ATOM     13  CA  TYR A 338     -41.631 124.950   6.058  1.00 38.23     0.164 C 
ENDROOT
BRANCH  13  14
ATOM     14  CB  TYR A 338     -41.621 126.456   6.339  1.00 39.15     0.058 C 
BRANCH  14  15
ATOM     15  CG  TYR A 338     -40.411 127.209   5.836  1.00 39.03    -0.020 A 
ATOM     16  CD2 TYR A 338     -40.235 128.545   6.154  1.00 40.65    -0.002 A 
ATOM     17  CE2 TYR A 338     -39.146 129.271   5.697  1.00 40.91     0.024 A 
ATOM     18  CZ  TYR A 338     -38.199 128.658   4.899  1.00 42.33     0.089 A 
ATOM     19  CE1 TYR A 338     -38.350 127.322   4.572  1.00 40.63     0.024 A 
ATOM     20  CD1 TYR A 338     -39.453 126.617   5.028  1.00 39.27    -0.002 A 
BRANCH  18  21
ATOM     21  OH  TYR A 338     -37.118 129.362   4.447  1.00 43.36    -0.359 OA
ATOM     22  HH  TYR A 338     -37.196 130.289   4.252  1.00  0.00     0.217 HD
ENDBRANCH  18  21
ENDBRANCH  14  15
ENDBRANCH  13  14
END_RES TYR A 338
ENDMDL
MODEL 2
REMARK VINA RESULT:    -9.474      0.801     16.593
REMARK INTER + INTRA:         -11.157
REMARK INTER:                  -8.062
REMARK INTRA:                  -3.095
REMARK UNBOUND:                -1.683
REMARK  0 active torsions:
REMARK  status: ('A' for Active; 'I' for Inactive)
REMARK       I    between atoms: C3_3  and  O3_21 
REMARK       I    between atoms: C6_6  and  C7_7 
REMARK       I    between atoms: C8_8  and  C9_9 
REMARK       I    between atoms: C10_10  and  C11_11 
REMARK       I    between atoms: C12_12  and  C13_13 
REMARK       I    between atoms: C14_14  and  C15_15 
REMARK       I    between atoms: C23_25  and  O23_43 
REMARK       I    between atoms: C26_28  and  C27_29 
REMARK       I    between atoms: C28_30  and  C29_31 
REMARK       I    between atoms: C30_32  and  C31_33 
REMARK       I    between atoms: C32_34  and  C33_35 
REMARK       I    between atoms: C34_36  and  C35_37 
ROOT
HETATM    1  C1  VFQ G1620     -34.413 126.863   6.262  1.00 59.27    -0.018 C 
HETATM    2  C2  VFQ G1620     -33.856 126.060   5.098  1.00 64.60     0.045 C 
HETATM    3  C3  VFQ G1620     -32.905 126.819   4.197  1.00 63.28     0.123 C 
HETATM    4  C4  VFQ G1620     -31.789 127.414   5.014  1.00 61.00     0.066 C 
HETATM    5  C5  VFQ G1620     -32.351 128.288   6.100  1.00 64.87    -0.074 C 
HETATM    6  C6  VFQ G1620     -33.530 128.024   6.699  1.00 63.96    -0.048 C 
HETATM    7  C7  VFQ G1620     -33.995 128.839   7.852  1.00 64.82     0.009 C 
HETATM    8  C8  VFQ G1620     -34.656 129.991   7.704  1.00 58.91     0.007 C 
HETATM    9  C9  VFQ G1620     -35.124 130.786   8.840  1.00 59.76    -0.062 C 
HETATM   10  C10 VFQ G1620     -35.843 131.868   8.530  1.00 59.44     0.007 C 
HETATM   11  C11 VFQ G1620     -36.426 132.803   9.475  1.00 53.66     0.001 C 
HETATM   12  C12 VFQ G1620     -37.241 133.673   8.902  1.00 59.47     0.007 C 
HETATM   13  C13 VFQ G1620     -37.975 134.703   9.644  1.00 64.69    -0.062 C 
HETATM   14  C14 VFQ G1620     -38.890 135.405   8.971  1.00 66.67     0.007 C 
HETATM   15  C15 VFQ G1620     -39.707 136.427   9.608  1.00 73.65     0.001 C 
HETATM   16  C16 VFQ G1620     -34.657 125.850   7.375  1.00 56.55     0.020 C 
HETATM   17  C17 VFQ G1620     -35.747 127.464   5.841  1.00 59.14     0.020 C 
HETATM   18  C18 VFQ G1620     -31.417 129.372   6.559  1.00 61.00     0.044 C 
HETATM   19  C19 VFQ G1620     -34.784 130.394  10.247  1.00 55.95     0.048 C 
HETATM   20  C20 VFQ G1620     -37.709 134.935  11.099  1.00 67.83     0.048 C 
HETATM   21  O3  VFQ G1620     -32.350 125.915   3.239  1.00 73.40    -0.395 OA
ATOM     22  H3  VFQ G1620     -31.753 126.391   2.673  1.00  0.00     0.210 HD
HETATM   23  C21 VFQ G1620     -49.630 144.101  11.181  1.00 57.46    -0.018 C 
HETATM   24  C22 VFQ G1620     -50.461 145.152  11.904  1.00 54.62     0.045 C 
HETATM   25  C23 VFQ G1620     -49.808 145.933  13.047  1.00 54.91     0.123 C 
HETATM   26  C24 VFQ G1620     -48.296 145.800  13.166  1.00 56.99     0.066 C 
HETATM   27  C25 VFQ G1620     -47.665 145.461  11.843  1.00 60.65    -0.074 C 
HETATM   28  C26 VFQ G1620     -48.183 144.517  11.055  1.00 60.28    -0.048 C 
HETATM   29  C27 VFQ G1620     -47.379 143.864  10.001  1.00 57.11     0.009 C 
HETATM   30  C28 VFQ G1620     -46.537 142.876  10.273  1.00 53.31     0.007 C 
HETATM   31  C29 VFQ G1620     -45.764 142.202   9.212  1.00 93.82    -0.062 C 
HETATM   32  C30 VFQ G1620     -44.988 141.211   9.644  1.00 83.29     0.007 C 
HETATM   33  C31 VFQ G1620     -44.162 140.379   8.792  1.00 75.18     0.001 C 
HETATM   34  C32 VFQ G1620     -43.350 139.568   9.449  1.00 71.38     0.007 C 
HETATM   35  C33 VFQ G1620     -42.468 138.622   8.760  1.00 70.67    -0.062 C 
HETATM   36  C34 VFQ G1620     -41.608 137.913   9.500  1.00 74.09     0.007 C 
HETATM   37  C35 VFQ G1620     -40.724 136.920   8.911  1.00 74.87     0.001 C 
HETATM   38  C36 VFQ G1620     -50.194 143.950   9.779  1.00 59.48     0.020 C 
HETATM   39  C37 VFQ G1620     -49.768 142.744  11.871  1.00 57.14     0.020 C 
HETATM   40  C38 VFQ G1620     -46.446 146.226  11.435  1.00 65.36     0.044 C 
HETATM   41  C39 VFQ G1620     -45.850 142.589   7.766  1.00 99.93     0.048 C 
HETATM   42  C40 VFQ G1620     -42.566 138.448   7.278  1.00 65.73     0.048 C 
HETATM   43  O23 VFQ G1620     -50.397 145.473  14.265  1.00 51.54    -0.395 OA
ATOM     44  H23 VFQ G1620     -51.341 145.555  14.190  1.00  0.00     0.210 HD
ENDROOT
TORSDOF 12
BEGIN_RES PHE A  61
REMARK  2 active torsions:
REMARK  status: ('A' for Active; 'I' for Inactive)
REMARK    1  A    between atoms: CA   and  CB  
REMARK    2  A    between atoms: CB   and  CG  
ROOT
ATOM      1  CA  PHE A  61     -36.237 128.293  12.768  1.00 39.40     0.164 C 
ENDROOT
BRANCH   1   2
ATOM      2  CB  PHE A  61     -36.813 128.951  11.509  1.00 39.41     0.058 C 
BRANCH   2   3
ATOM      3  CG  PHE A  61     -37.038 128.002  10.356  1.00 39.01    -0.020 A 
ATOM      4  CD2 PHE A  61     -36.312 126.826  10.250  1.00 40.32    -0.004 A 
ATOM      5  CE2 PHE A  61     -36.517 125.956   9.187  1.00 40.20    -0.000 A 
ATOM      6  CZ  PHE A  61     -37.453 126.249   8.222  1.00 40.34    -0.000 A 
ATOM      7  CE1 PHE A  61     -38.185 127.412   8.314  1.00 41.51    -0.000 A 
ATOM      8  CD1 PHE A  61     -37.975 128.286   9.373  1.00 39.94    -0.004 A 
ENDBRANCH   2   3
ENDBRANCH   1   2
END_RES PHE A  61
BEGIN_RES VAL A 134
REMARK  1 active torsions:
REMARK  status: ('A' for Active; 'I' for Inactive)
REMARK    3  A    between atoms: CA   and  CB  
ROOT
ATOM      9  CA  VAL A 134     -29.766 132.051   9.815  1.00 40.75     0.159 C 
ENDROOT
BRANCH   9  10
ATOM     10  CB  VAL A 134     -30.864 132.765   9.009  1.00 40.76     0.029 C 
ATOM     11  CG1 VAL A 134     -31.179 131.999   7.733  1.00 41.76     0.002 C 
ATOM     12  CG2 VAL A 134     -32.122 132.975   9.838  1.00 40.56     0.002 C 
ENDBRANCH   9  10
END_RES VAL A 134
BEGIN_RES TYR A 338
REMARK  3 active torsions:
REMARK  status: ('A' for Active; 'I' for Inactive)
REMARK    4  A    between atoms: CA   and  CB  
REMARK    5  A    between atoms: CB   and  CG  
REMARK    6  A    between atoms: CZ   and  OH  
ROOT
ATOM     13  CA  TYR A 338     -41.631 124.950   6.058  1.00 38.23     0.164 C 
ENDROOT
BRANCH  13  14
ATOM     14  CB  TYR A 338     -41.621 126.456   6.339  1.00 39.15     0.058 C 
BRANCH  14  15
ATOM     15  CG  TYR A 338     -40.422 127.213   5.816  1.00 39.03    -0.020 A 
ATOM     16  CD2 TYR A 338     -40.249 128.552   6.125  1.00 40.65    -0.002 A 
ATOM     17  CE2 TYR A 338     -39.170 129.281   5.650  1.00 40.91     0.024 A 
ATOM     18  CZ  TYR A 338     -38.230 128.668   4.842  1.00 42.33     0.089 A 
ATOM     19  CE1 TYR A 338     -38.379 127.330   4.523  1.00 40.63     0.024 A 
ATOM     20  CD1 TYR A 338     -39.472 126.622   4.997  1.00 39.27    -0.002 A 
BRANCH  18  21
ATOM     21  OH  TYR A 338     -37.160 129.376   4.371  1.00 43.36    -0.359 OA
ATOM     22  HH  TYR A 338     -37.152 130.325   4.421  1.00  0.00     0.217 HD
ENDBRANCH  18  21
ENDBRANCH  14  15
ENDBRANCH  13  14
END_RES TYR A 338
ENDMDL
