MODEL 1
REMARK VINA RESULT:    -9.372      0.000      0.000
REMARK INTER + INTRA:         -11.916
REMARK INTER:                  -9.372
REMARK INTRA:                  -2.544
REMARK UNBOUND:                -2.544
REMARK  0 active torsions:
REMARK  status: ('A' for Active; 'I' for Inactive)
REMARK       I    between atoms: C3_3  and  O3_21 
REMARK       I    between atoms: C6_6  and  C7_7 
REMARK       I    between atoms: C8_8  and  C9_9 
REMARK       I    between atoms: C10_10  and  C11_11 
REMARK       I    between atoms: C12_12  and  C13_13 
REMARK       I    between atoms: C14_14  and  C15_15 
REMARK       I    between atoms: C23_25  and  O23_43 
REMARK       I    between atoms: C26_28  and  C27_29 
REMARK       I    between atoms: C28_30  and  C29_31 
REMARK       I    between atoms: C30_32  and  C31_33 
REMARK       I    between atoms: C32_34  and  C33_35 
REMARK       I    between atoms: C34_36  and  C35_37 
ROOT
HETATM    1  C1  VFQ 1 316     -34.443 126.946   6.391  1.00 73.24    -0.018 C 
HETATM    2  C2  VFQ 1 316     -34.011 126.349   5.050  1.00 72.84     0.045 C 
HETATM    3  C3  VFQ 1 316     -32.934 127.103   4.280  1.00 72.53     0.123 C 
HETATM    4  C4  VFQ 1 316     -31.853 127.583   5.229  1.00 72.61     0.066 C 
HETATM    5  C5  VFQ 1 316     -32.470 128.470   6.278  1.00 72.68    -0.074 C 
HETATM    6  C6  VFQ 1 316     -33.621 128.134   6.862  1.00 72.79    -0.048 C 
HETATM    7  C7  VFQ 1 316     -34.126 128.940   8.000  1.00 71.90     0.009 C 
HETATM    8  C8  VFQ 1 316     -34.822 130.058   7.781  1.00 71.51     0.007 C 
HETATM    9  C9  VFQ 1 316     -35.354 130.899   8.874  1.00 70.48    -0.062 C 
HETATM   10  C10 VFQ 1 316     -36.092 131.970   8.544  1.00 69.46     0.007 C 
HETATM   11  C11 VFQ 1 316     -36.694 132.895   9.503  1.00 69.85     0.001 C 
HETATM   12  C12 VFQ 1 316     -37.422 133.887   8.991  1.00 72.15     0.007 C 
HETATM   13  C13 VFQ 1 316     -38.123 134.911   9.794  1.00 73.74    -0.062 C 
HETATM   14  C14 VFQ 1 316     -39.019 135.693   9.164  1.00 74.04     0.007 C 
HETATM   15  C15 VFQ 1 316     -39.799 136.726   9.842  1.00 74.62     0.001 C 
HETATM   16  C16 VFQ 1 316     -34.355 125.850   7.445  1.00 72.68     0.020 C 
HETATM   17  C17 VFQ 1 316     -35.890 127.407   6.265  1.00 73.05     0.020 C 
HETATM   18  C18 VFQ 1 316     -31.592 129.533   6.873  1.00 72.13     0.044 C 
HETATM   19  C19 VFQ 1 316     -35.070 130.567  10.309  1.00 70.45     0.048 C 
HETATM   20  C20 VFQ 1 316     -37.841 135.074  11.261  1.00 72.89     0.048 C 
HETATM   21  O3  VFQ 1 316     -32.350 126.232   3.301  1.00 71.04    -0.395 OA
ATOM     22  H3  VFQ 1 316     -33.028 125.932   2.707  1.00  0.00     0.210 HD
HETATM   23  C21 VFQ 1 316     -49.470 144.857  12.110  1.00 20.77    -0.018 C 
HETATM   24  C22 VFQ 1 316     -50.271 145.794  13.028  1.00 19.21     0.045 C 
HETATM   25  C23 VFQ 1 316     -49.599 147.004  13.672  1.00 20.68     0.123 C 
HETATM   26  C24 VFQ 1 316     -48.124 147.216  13.312  1.00 17.77     0.066 C 
HETATM   27  C25 VFQ 1 316     -47.461 146.412  12.241  1.00 19.05    -0.074 C 
HETATM   28  C26 VFQ 1 316     -48.045 145.308  11.651  1.00 19.48    -0.048 C 
HETATM   29  C27 VFQ 1 316     -47.415 144.473  10.591  1.00 16.56     0.009 C 
HETATM   30  C28 VFQ 1 316     -46.482 143.508  10.806  1.00 15.55     0.007 C 
HETATM   31  C29 VFQ 1 316     -45.808 142.697   9.821  1.00 94.72    -0.062 C 
HETATM   32  C30 VFQ 1 316     -44.921 141.776  10.225  1.00 91.32     0.007 C 
HETATM   33  C31 VFQ 1 316     -44.198 140.888   9.318  1.00 87.88     0.001 C 
HETATM   34  C32 VFQ 1 316     -43.271 140.110   9.870  1.00 84.19     0.007 C 
HETATM   35  C33 VFQ 1 316     -42.461 139.130   9.125  1.00 80.79    -0.062 C 
HETATM   36  C34 VFQ 1 316     -41.520 138.437   9.792  1.00 78.84     0.007 C 
HETATM   37  C35 VFQ 1 316     -40.696 137.422   9.140  1.00 76.79     0.001 C 
HETATM   38  C36 VFQ 1 316     -50.374 144.587  10.888  1.00 20.67     0.020 C 
HETATM   39  C37 VFQ 1 316     -49.370 143.544  12.924  1.00 19.98     0.020 C 
HETATM   40  C38 VFQ 1 316     -46.129 147.011  11.952  1.00 17.40     0.044 C 
HETATM   41  C39 VFQ 1 316     -46.121 142.887   8.367  1.00 95.37     0.048 C 
HETATM   42  C40 VFQ 1 316     -42.706 138.901   7.664  1.00 90.13     0.048 C 
HETATM   43  O23 VFQ 1 316     -49.770 146.976  15.085  1.00 20.33    -0.395 OA
ATOM     44  H23 VFQ 1 316     -49.352 147.729  15.485  1.00  0.00     0.210 HD
ENDROOT
TORSDOF 12
BEGIN_RES PHE A  61
REMARK  2 active torsions:
REMARK  status: ('A' for Active; 'I' for Inactive)
REMARK    1  A    between atoms: CA   and  CB  
REMARK    2  A    between atoms: CB   and  CG  
ROOT
ATOM      1  CA  PHE A  61     -36.237 128.293  12.768  1.00 39.40     0.164 C 
ENDROOT
BRANCH   1   2
ATOM      2  CB  PHE A  61     -36.813 128.951  11.509  1.00 39.41     0.058 C 
BRANCH   2   3
ATOM      3  CG  PHE A  61     -37.075 127.995  10.370  1.00 39.01    -0.020 A 
ATOM      4  CD2 PHE A  61     -36.356 126.817  10.250  1.00 40.32    -0.004 A 
ATOM      5  CE2 PHE A  61     -36.595 125.940   9.199  1.00 40.20    -0.000 A 
ATOM      6  CZ  PHE A  61     -37.558 126.230   8.259  1.00 40.34    -0.000 A 
ATOM      7  CE1 PHE A  61     -38.283 127.396   8.365  1.00 41.51    -0.000 A 
ATOM      8  CD1 PHE A  61     -38.039 128.276   9.412  1.00 39.94    -0.004 A 
ENDBRANCH   2   3
ENDBRANCH   1   2
END_RES PHE A  61
BEGIN_RES VAL A 134
REMARK  1 active torsions:
REMARK  status: ('A' for Active; 'I' for Inactive)
REMARK    3  A    between atoms: CA   and  CB  
ROOT
ATOM      9  CA  VAL A 134     -29.766 132.051   9.815  1.00 40.75     0.159 C 
ENDROOT
BRANCH   9  10
ATOM     10  CB  VAL A 134     -30.864 132.765   9.009  1.00 40.76     0.029 C 
ATOM     11  CG1 VAL A 134     -30.926 132.225   7.588  1.00 41.76     0.002 C 
ATOM     12  CG2 VAL A 134     -32.220 132.655   9.688  1.00 40.56     0.002 C 
ENDBRANCH   9  10
END_RES VAL A 134
BEGIN_RES TYR A 338
REMARK  3 active torsions:
REMARK  status: ('A' for Active; 'I' for Inactive)
REMARK    4  A    between atoms: CA   and  CB  
REMARK    5  A    between atoms: CB   and  CG  
REMARK    6  A    between atoms: CZ   and  OH  
ROOT
ATOM     13  CA  TYR A 338     -41.631 124.950   6.058  1.00 38.23     0.164 C 
ENDROOT
BRANCH  13  14
ATOM     14  CB  TYR A 338     -41.621 126.456   6.339  1.00 39.15     0.058 C 
BRANCH  14  15
ATOM     15  CG  TYR A 338     -40.419 127.212   5.822  1.00 39.03    -0.020 A 
ATOM     16  CD2 TYR A 338     -40.248 128.551   6.128  1.00 40.65    -0.002 A 
ATOM     17  CE2 TYR A 338     -39.166 129.279   5.658  1.00 40.91     0.024 A 
ATOM     18  CZ  TYR A 338     -38.222 128.665   4.857  1.00 42.33     0.089 A 
ATOM     19  CE1 TYR A 338     -38.367 127.326   4.541  1.00 40.63     0.024 A 
ATOM     20  CD1 TYR A 338     -39.464 126.619   5.011  1.00 39.27    -0.002 A 
BRANCH  18  21
ATOM     21  OH  TYR A 338     -37.148 129.372   4.392  1.00 43.36    -0.359 OA
ATOM     22  HH  TYR A 338     -37.278 130.179   3.907  1.00  0.00     0.217 HD
ENDBRANCH  18  21
ENDBRANCH  14  15
ENDBRANCH  13  14
END_RES TYR A 338
ENDMDL
MODEL 2
REMARK VINA RESULT:    -8.834      0.640     16.914
REMARK INTER + INTRA:         -11.378
REMARK INTER:                  -9.825
REMARK INTRA:                  -1.553
REMARK UNBOUND:                -2.544
REMARK  0 active torsions:
REMARK  status: ('A' for Active; 'I' for Inactive)
REMARK       I    between atoms: C3_3  and  O3_21 
REMARK       I    between atoms: C6_6  and  C7_7 
REMARK       I    between atoms: C8_8  and  C9_9 
REMARK       I    between atoms: C10_10  and  C11_11 
REMARK       I    between atoms: C12_12  and  C13_13 
REMARK       I    between atoms: C14_14  and  C15_15 
REMARK       I    between atoms: C23_25  and  O23_43 
REMARK       I    between atoms: C26_28  and  C27_29 
REMARK       I    between atoms: C28_30  and  C29_31 
REMARK       I    between atoms: C30_32  and  C31_33 
REMARK       I    between atoms: C32_34  and  C33_35 
REMARK       I    between atoms: C34_36  and  C35_37 
ROOT
HETATM    1  C1  VFQ 1 316     -49.584 144.790  12.855  1.00 73.24    -0.018 C 
HETATM    2  C2  VFQ 1 316     -49.952 145.437  14.193  1.00 72.84     0.045 C 
HETATM    3  C3  VFQ 1 316     -48.996 146.495  14.728  1.00 72.53     0.123 C 
HETATM    4  C4  VFQ 1 316     -48.535 147.400  13.601  1.00 72.61     0.066 C 
HETATM    5  C5  VFQ 1 316     -47.862 146.569  12.541  1.00 72.68    -0.074 C 
HETATM    6  C6  VFQ 1 316     -48.390 145.408  12.149  1.00 72.79    -0.048 C 
HETATM    7  C7  VFQ 1 316     -47.796 144.687  10.996  1.00 71.90     0.009 C 
HETATM    8  C8  VFQ 1 316     -46.737 143.893  11.167  1.00 71.51     0.007 C 
HETATM    9  C9  VFQ 1 316     -46.106 143.146  10.058  1.00 70.48    -0.062 C 
HETATM   10  C10 VFQ 1 316     -45.084 142.328  10.350  1.00 69.46     0.007 C 
HETATM   11  C11 VFQ 1 316     -44.360 141.518   9.372  1.00 69.85     0.001 C 
HETATM   12  C12 VFQ 1 316     -43.390 140.739   9.851  1.00 72.15     0.007 C 
HETATM   13  C13 VFQ 1 316     -42.559 139.836   9.027  1.00 73.74    -0.062 C 
HETATM   14  C14 VFQ 1 316     -41.798 138.930   9.667  1.00 74.04     0.007 C 
HETATM   15  C15 VFQ 1 316     -40.949 137.961   8.975  1.00 74.62     0.001 C 
HETATM   16  C16 VFQ 1 316     -50.794 144.890  11.935  1.00 72.68     0.020 C 
HETATM   17  C17 VFQ 1 316     -49.263 143.322  13.107  1.00 73.05     0.020 C 
HETATM   18  C18 VFQ 1 316     -46.801 147.243  11.719  1.00 72.13     0.044 C 
HETATM   19  C19 VFQ 1 316     -46.592 143.307   8.648  1.00 70.45     0.048 C 
HETATM   20  C20 VFQ 1 316     -42.561 139.932   7.527  1.00 72.89     0.048 C 
HETATM   21  O3  VFQ 1 316     -49.666 147.284  15.721  1.00 71.04    -0.395 OA
ATOM     22  H3  VFQ 1 316     -49.955 146.717  16.427  1.00  0.00     0.210 HD
HETATM   23  C21 VFQ 1 316     -34.233 127.203   6.994  1.00 20.77    -0.018 C 
HETATM   24  C22 VFQ 1 316     -33.513 126.199   6.080  1.00 19.21     0.045 C 
HETATM   25  C23 VFQ 1 316     -32.334 126.648   5.219  1.00 20.68     0.123 C 
HETATM   26  C24 VFQ 1 316     -31.925 128.117   5.364  1.00 17.77     0.066 C 
HETATM   27  C25 VFQ 1 316     -32.509 128.986   6.431  1.00 19.05    -0.074 C 
HETATM   28  C26 VFQ 1 316     -33.581 128.606   7.215  1.00 19.48    -0.048 C 
HETATM   29  C27 VFQ 1 316     -34.200 129.445   8.279  1.00 16.56     0.009 C 
HETATM   30  C28 VFQ 1 316     -35.082 130.456   8.064  1.00 15.55     0.007 C 
HETATM   31  C29 VFQ 1 316     -35.684 131.327   9.046  1.00 94.72    -0.062 C 
HETATM   32  C30 VFQ 1 316     -36.552 132.266   8.645  1.00 91.32     0.007 C 
HETATM   33  C31 VFQ 1 316     -37.234 133.186   9.552  1.00 87.88     0.001 C 
HETATM   34  C32 VFQ 1 316     -37.977 134.132   8.984  1.00 84.19     0.007 C 
HETATM   35  C33 VFQ 1 316     -38.761 135.130   9.732  1.00 80.79    -0.062 C 
HETATM   36  C34 VFQ 1 316     -39.434 136.066   9.039  1.00 78.84     0.007 C 
HETATM   37  C35 VFQ 1 316     -40.264 137.072   9.698  1.00 76.79     0.001 C 
HETATM   38  C36 VFQ 1 316     -34.433 126.479   8.343  1.00 20.67     0.020 C 
HETATM   39  C37 VFQ 1 316     -35.624 127.366   6.335  1.00 19.98     0.020 C 
HETATM   40  C38 VFQ 1 316     -31.742 130.262   6.478  1.00 17.40     0.044 C 
HETATM   41  C39 VFQ 1 316     -35.338 131.157  10.494  1.00 95.37     0.048 C 
HETATM   42  C40 VFQ 1 316     -38.822 135.078  11.229  1.00 90.13     0.048 C 
HETATM   43  O23 VFQ 1 316     -32.565 126.324   3.852  1.00 20.33    -0.395 OA
ATOM     44  H23 VFQ 1 316     -31.831 126.603   3.317  1.00  0.00     0.210 HD
ENDROOT
TORSDOF 12
BEGIN_RES PHE A  61
REMARK  2 active torsions:
REMARK  status: ('A' for Active; 'I' for Inactive)
REMARK    1  A    between atoms: CA   and  CB  
REMARK    2  A    between atoms: CB   and  CG  
ROOT
ATOM      1  CA  PHE A  61     -36.237 128.293  12.768  1.00 39.40     0.164 C 
ENDROOT
BRANCH   1   2
ATOM      2  CB  PHE A  61     -36.813 128.951  11.509  1.00 39.41     0.058 C 
BRANCH   2   3
ATOM      3  CG  PHE A  61     -37.110 127.990  10.383  1.00 39.01    -0.020 A 
ATOM      4  CD2 PHE A  61     -36.525 126.734  10.346  1.00 40.32    -0.004 A 
ATOM      5  CE2 PHE A  61     -36.796 125.852   9.308  1.00 40.20    -0.000 A 
ATOM      6  CZ  PHE A  61     -37.658 126.214   8.297  1.00 40.34    -0.000 A 
ATOM      7  CE1 PHE A  61     -38.249 127.458   8.320  1.00 41.51    -0.000 A 
ATOM      8  CD1 PHE A  61     -37.972 128.342   9.354  1.00 39.94    -0.004 A 
ENDBRANCH   2   3
ENDBRANCH   1   2
END_RES PHE A  61
BEGIN_RES VAL A 134
REMARK  1 active torsions:
REMARK  status: ('A' for Active; 'I' for Inactive)
REMARK    3  A    between atoms: CA   and  CB  
ROOT
ATOM      9  CA  VAL A 134     -29.766 132.051   9.815  1.00 40.75     0.159 C 
ENDROOT
BRANCH   9  10
ATOM     10  CB  VAL A 134     -30.864 132.765   9.009  1.00 40.76     0.029 C 
ATOM     11  CG1 VAL A 134     -30.848 132.310   7.557  1.00 41.76     0.002 C 
ATOM     12  CG2 VAL A 134     -32.239 132.556   9.625  1.00 40.56     0.002 C 
ENDBRANCH   9  10
END_RES VAL A 134
BEGIN_RES TYR A 338
REMARK  3 active torsions:
REMARK  status: ('A' for Active; 'I' for Inactive)
REMARK    4  A    between atoms: CA   and  CB  
REMARK    5  A    between atoms: CB   and  CG  
REMARK    6  A    between atoms: CZ   and  OH  
ROOT
ATOM     13  CA  TYR A 338     -41.631 124.950   6.058  1.00 38.23     0.164 C 
ENDROOT
BRANCH  13  14
ATOM     14  CB  TYR A 338     -41.621 126.456   6.339  1.00 39.15     0.058 C 
BRANCH  14  15
ATOM     15  CG  TYR A 338     -40.419 127.212   5.822  1.00 39.03    -0.020 A 
ATOM     16  CD2 TYR A 338     -40.257 128.556   6.114  1.00 40.65    -0.002 A 
ATOM     17  CE2 TYR A 338     -39.175 129.284   5.643  1.00 40.91     0.024 A 
ATOM     18  CZ  TYR A 338     -38.222 128.665   4.856  1.00 42.33     0.089 A 
ATOM     19  CE1 TYR A 338     -38.359 127.322   4.555  1.00 40.63     0.024 A 
ATOM     20  CD1 TYR A 338     -39.455 126.614   5.024  1.00 39.27    -0.002 A 
BRANCH  18  21
ATOM     21  OH  TYR A 338     -37.149 129.372   4.390  1.00 43.36    -0.359 OA
ATOM     22  HH  TYR A 338     -37.246 130.284   4.140  1.00  0.00     0.217 HD
ENDBRANCH  18  21
ENDBRANCH  14  15
ENDBRANCH  13  14
END_RES TYR A 338
ENDMDL
