MODEL 1
REMARK VINA RESULT:    -8.943      0.000      0.000
REMARK INTER + INTRA:         -12.310
REMARK INTER:                  -8.943
REMARK INTRA:                  -3.367
REMARK UNBOUND:                -3.367
REMARK  0 active torsions:
REMARK  status: ('A' for Active; 'I' for Inactive)
REMARK       I    between atoms: C3_3  and  O3_21 
REMARK       I    between atoms: C6_6  and  C7_7 
REMARK       I    between atoms: C8_8  and  C9_9 
REMARK       I    between atoms: C10_10  and  C11_11 
REMARK       I    between atoms: C12_12  and  C13_13 
REMARK       I    between atoms: C14_14  and  C15_15 
REMARK       I    between atoms: C23_25  and  O23_43 
REMARK       I    between atoms: C26_28  and  C27_29 
REMARK       I    between atoms: C28_30  and  C29_31 
REMARK       I    between atoms: C30_32  and  C31_33 
REMARK       I    between atoms: C32_34  and  C33_35 
REMARK       I    between atoms: C34_36  and  C35_37 
ROOT
HETATM    1  C1  VFQ g1621     -34.438 126.987   6.160  1.00 57.17    -0.018 C 
HETATM    2  C2  VFQ g1621     -33.972 126.373   4.846  1.00 57.17     0.045 C 
HETATM    3  C3  VFQ g1621     -32.728 126.958   4.204  1.00 57.17     0.123 C 
HETATM    4  C4  VFQ g1621     -31.722 127.357   5.260  1.00 57.17     0.066 C 
HETATM    5  C5  VFQ g1621     -32.366 128.347   6.186  1.00 57.17    -0.074 C 
HETATM    6  C6  VFQ g1621     -33.573 128.102   6.710  1.00 57.17    -0.048 C 
HETATM    7  C7  VFQ g1621     -34.100 128.890   7.857  1.00 57.17     0.009 C 
HETATM    8  C8  VFQ g1621     -34.663 130.090   7.689  1.00 57.17     0.007 C 
HETATM    9  C9  VFQ g1621     -35.215 130.901   8.786  1.00 57.17    -0.062 C 
HETATM   10  C10 VFQ g1621     -36.124 131.812   8.430  1.00 57.17     0.007 C 
HETATM   11  C11 VFQ g1621     -36.844 132.718   9.313  1.00 57.17     0.001 C 
HETATM   12  C12 VFQ g1621     -37.734 133.493   8.701  1.00 57.17     0.007 C 
HETATM   13  C13 VFQ g1621     -38.608 134.453   9.387  1.00 57.17    -0.062 C 
HETATM   14  C14 VFQ g1621     -39.399 135.244   8.650  1.00 57.17     0.007 C 
HETATM   15  C15 VFQ g1621     -40.326 136.183   9.266  1.00 57.17     0.001 C 
HETATM   16  C16 VFQ g1621     -34.558 125.850   7.163  1.00 57.17     0.020 C 
HETATM   17  C17 VFQ g1621     -35.807 127.581   5.917  1.00 57.17     0.020 C 
HETATM   18  C18 VFQ g1621     -31.349 129.208   6.875  1.00 57.17     0.044 C 
HETATM   19  C19 VFQ g1621     -34.784 130.710  10.208  1.00 57.17     0.048 C 
HETATM   20  C20 VFQ g1621     -38.640 134.504  10.883  1.00 57.17     0.048 C 
HETATM   21  O3  VFQ g1621     -32.150 125.948   3.376  1.00 57.17    -0.395 OA
ATOM     22  H3  VFQ g1621     -32.782 125.698   2.713  1.00  0.00     0.210 HD
HETATM   23  C21 VFQ g1621     -49.759 145.276   9.684  1.00 30.42    -0.018 C 
HETATM   24  C22 VFQ g1621     -50.710 146.036  10.614  1.00 30.42     0.045 C 
HETATM   25  C23 VFQ g1621     -50.623 145.720  12.102  1.00 30.42     0.123 C 
HETATM   26  C24 VFQ g1621     -49.930 144.388  12.357  1.00 30.42     0.066 C 
HETATM   27  C25 VFQ g1621     -48.594 144.461  11.679  1.00 30.42    -0.074 C 
HETATM   28  C26 VFQ g1621     -48.552 144.663  10.364  1.00 30.42    -0.048 C 
HETATM   29  C27 VFQ g1621     -47.462 144.141   9.513  1.00 30.42     0.009 C 
HETATM   30  C28 VFQ g1621     -46.869 142.991   9.846  1.00 30.42     0.007 C 
HETATM   31  C29 VFQ g1621     -45.946 142.338   8.880  1.00 57.17    -0.062 C 
HETATM   32  C30 VFQ g1621     -45.548 141.109   9.215  1.00 57.17     0.007 C 
HETATM   33  C31 VFQ g1621     -44.640 140.305   8.412  1.00 57.17     0.001 C 
HETATM   34  C32 VFQ g1621     -43.803 139.525   9.083  1.00 57.17     0.007 C 
HETATM   35  C33 VFQ g1621     -42.838 138.658   8.406  1.00 57.17    -0.062 C 
HETATM   36  C34 VFQ g1621     -42.116 137.786   9.114  1.00 57.17     0.007 C 
HETATM   37  C35 VFQ g1621     -41.155 136.879   8.498  1.00 57.17     0.001 C 
HETATM   38  C36 VFQ g1621     -49.342 146.215   8.564  1.00 30.42     0.020 C 
HETATM   39  C37 VFQ g1621     -50.505 144.096   9.063  1.00 30.42     0.020 C 
HETATM   40  C38 VFQ g1621     -47.351 144.435  12.525  1.00 30.42     0.044 C 
HETATM   41  C39 VFQ g1621     -45.474 143.008   7.627  1.00 57.17     0.048 C 
HETATM   42  C40 VFQ g1621     -42.682 138.798   6.937  1.00 57.17     0.048 C 
HETATM   43  O23 VFQ g1621     -51.965 145.669  12.580  1.00 30.42    -0.395 OA
ATOM     44  H23 VFQ g1621     -52.398 146.500  12.420  1.00  0.00     0.210 HD
ENDROOT
TORSDOF 12
BEGIN_RES PHE A  61
REMARK  2 active torsions:
REMARK  status: ('A' for Active; 'I' for Inactive)
REMARK    1  A    between atoms: CA   and  CB  
REMARK    2  A    between atoms: CB   and  CG  
ROOT
ATOM      1  CA  PHE A  61     -36.237 128.293  12.768  1.00 39.40     0.164 C 
ENDROOT
BRANCH   1   2
ATOM      2  CB  PHE A  61     -36.813 128.951  11.509  1.00 39.41     0.058 C 
BRANCH   2   3
ATOM      3  CG  PHE A  61     -37.019 128.006  10.349  1.00 39.01    -0.020 A 
ATOM      4  CD2 PHE A  61     -36.254 126.857  10.224  1.00 40.32    -0.004 A 
ATOM      5  CE2 PHE A  61     -36.442 125.990   9.154  1.00 40.20    -0.000 A 
ATOM      6  CZ  PHE A  61     -37.398 126.260   8.202  1.00 40.34    -0.000 A 
ATOM      7  CE1 PHE A  61     -38.168 127.397   8.314  1.00 41.51    -0.000 A 
ATOM      8  CD1 PHE A  61     -37.976 128.267   9.379  1.00 39.94    -0.004 A 
ENDBRANCH   2   3
ENDBRANCH   1   2
END_RES PHE A  61
BEGIN_RES VAL A 134
REMARK  1 active torsions:
REMARK  status: ('A' for Active; 'I' for Inactive)
REMARK    3  A    between atoms: CA   and  CB  
ROOT
ATOM      9  CA  VAL A 134     -29.766 132.051   9.815  1.00 40.75     0.159 C 
ENDROOT
BRANCH   9  10
ATOM     10  CB  VAL A 134     -30.864 132.765   9.009  1.00 40.76     0.029 C 
ATOM     11  CG1 VAL A 134     -31.179 131.999   7.733  1.00 41.76     0.002 C 
ATOM     12  CG2 VAL A 134     -32.122 132.975   9.838  1.00 40.56     0.002 C 
ENDBRANCH   9  10
END_RES VAL A 134
BEGIN_RES TYR A 338
REMARK  3 active torsions:
REMARK  status: ('A' for Active; 'I' for Inactive)
REMARK    4  A    between atoms: CA   and  CB  
REMARK    5  A    between atoms: CB   and  CG  
REMARK    6  A    between atoms: CZ   and  OH  
ROOT
ATOM     13  CA  TYR A 338     -41.631 124.950   6.058  1.00 38.23     0.164 C 
ENDROOT
BRANCH  13  14
ATOM     14  CB  TYR A 338     -41.621 126.456   6.339  1.00 39.15     0.058 C 
BRANCH  14  15
ATOM     15  CG  TYR A 338     -40.423 127.213   5.815  1.00 39.03    -0.020 A 
ATOM     16  CD2 TYR A 338     -40.249 128.551   6.125  1.00 40.65    -0.002 A 
ATOM     17  CE2 TYR A 338     -39.170 129.281   5.649  1.00 40.91     0.024 A 
ATOM     18  CZ  TYR A 338     -38.233 128.669   4.838  1.00 42.33     0.089 A 
ATOM     19  CE1 TYR A 338     -38.382 127.331   4.518  1.00 40.63     0.024 A 
ATOM     20  CD1 TYR A 338     -39.475 126.623   4.993  1.00 39.27    -0.002 A 
BRANCH  18  21
ATOM     21  OH  TYR A 338     -37.163 129.377   4.366  1.00 43.36    -0.359 OA
ATOM     22  HH  TYR A 338     -36.875 130.166   4.811  1.00  0.00     0.217 HD
ENDBRANCH  18  21
ENDBRANCH  14  15
ENDBRANCH  13  14
END_RES TYR A 338
ENDMDL
MODEL 2
REMARK VINA RESULT:    -8.032      0.919      1.424
REMARK INTER + INTRA:         -11.398
REMARK INTER:                 -11.277
REMARK INTRA:                  -0.121
REMARK UNBOUND:                -3.367
REMARK  0 active torsions:
REMARK  status: ('A' for Active; 'I' for Inactive)
REMARK       I    between atoms: C3_3  and  O3_21 
REMARK       I    between atoms: C6_6  and  C7_7 
REMARK       I    between atoms: C8_8  and  C9_9 
REMARK       I    between atoms: C10_10  and  C11_11 
REMARK       I    between atoms: C12_12  and  C13_13 
REMARK       I    between atoms: C14_14  and  C15_15 
REMARK       I    between atoms: C23_25  and  O23_43 
REMARK       I    between atoms: C26_28  and  C27_29 
REMARK       I    between atoms: C28_30  and  C29_31 
REMARK       I    between atoms: C30_32  and  C31_33 
REMARK       I    between atoms: C32_34  and  C33_35 
REMARK       I    between atoms: C34_36  and  C35_37 
ROOT
HETATM    1  C1  VFQ g1621     -34.293 128.048   6.741  1.00 57.17    -0.018 C 
HETATM    2  C2  VFQ g1621     -33.662 127.483   5.475  1.00 57.17     0.045 C 
HETATM    3  C3  VFQ g1621     -32.350 128.093   5.016  1.00 57.17     0.123 C 
HETATM    4  C4  VFQ g1621     -31.487 128.454   6.205  1.00 57.17     0.066 C 
HETATM    5  C5  VFQ g1621     -32.249 129.408   7.077  1.00 57.17    -0.074 C 
HETATM    6  C6  VFQ g1621     -33.510 129.142   7.436  1.00 57.17    -0.048 C 
HETATM    7  C7  VFQ g1621     -34.182 129.887   8.535  1.00 57.17     0.009 C 
HETATM    8  C8  VFQ g1621     -34.727 131.091   8.342  1.00 57.17     0.007 C 
HETATM    9  C9  VFQ g1621     -35.418 131.860   9.390  1.00 57.17    -0.062 C 
HETATM   10  C10 VFQ g1621     -36.279 132.783   8.955  1.00 57.17     0.007 C 
HETATM   11  C11 VFQ g1621     -37.111 133.655   9.773  1.00 57.17     0.001 C 
HETATM   12  C12 VFQ g1621     -37.921 134.450   9.082  1.00 57.17     0.007 C 
HETATM   13  C13 VFQ g1621     -38.880 135.384   9.688  1.00 57.17    -0.062 C 
HETATM   14  C14 VFQ g1621     -39.577 136.200   8.886  1.00 57.17     0.007 C 
HETATM   15  C15 VFQ g1621     -40.580 137.115   9.414  1.00 57.17     0.001 C 
HETATM   16  C16 VFQ g1621     -34.531 126.874   7.679  1.00 57.17     0.020 C 
HETATM   17  C17 VFQ g1621     -35.624 128.648   6.350  1.00 57.17     0.020 C 
HETATM   18  C18 VFQ g1621     -31.332 130.244   7.920  1.00 57.17     0.044 C 
HETATM   19  C19 VFQ g1621     -35.168 131.618  10.846  1.00 57.17     0.048 C 
HETATM   20  C20 VFQ g1621     -39.101 135.379  11.169  1.00 57.17     0.048 C 
HETATM   21  O3  VFQ g1621     -31.667 127.115   4.232  1.00 57.17    -0.395 OA
ATOM     22  H3  VFQ g1621     -32.209 126.888   3.485  1.00  0.00     0.210 HD
HETATM   23  C21 VFQ g1621     -50.045 146.173   8.972  1.00 30.42    -0.018 C 
HETATM   24  C22 VFQ g1621     -51.109 146.897   9.802  1.00 30.42     0.045 C 
HETATM   25  C23 VFQ g1621     -51.208 146.526  11.276  1.00 30.42     0.123 C 
HETATM   26  C24 VFQ g1621     -50.545 145.187  11.568  1.00 30.42     0.066 C 
HETATM   27  C25 VFQ g1621     -49.135 145.287  11.067  1.00 30.42    -0.074 C 
HETATM   28  C26 VFQ g1621     -48.929 145.537   9.776  1.00 30.42    -0.048 C 
HETATM   29  C27 VFQ g1621     -47.738 145.048   9.050  1.00 30.42     0.009 C 
HETATM   30  C28 VFQ g1621     -47.185 143.887   9.413  1.00 30.42     0.007 C 
HETATM   31  C29 VFQ g1621     -46.143 143.271   8.548  1.00 57.17    -0.062 C 
HETATM   32  C30 VFQ g1621     -45.784 142.032   8.885  1.00 57.17     0.007 C 
HETATM   33  C31 VFQ g1621     -44.777 141.259   8.174  1.00 57.17     0.001 C 
HETATM   34  C32 VFQ g1621     -44.026 140.456   8.917  1.00 57.17     0.007 C 
HETATM   35  C33 VFQ g1621     -42.979 139.616   8.335  1.00 57.17    -0.062 C 
HETATM   36  C34 VFQ g1621     -42.346 138.719   9.096  1.00 57.17     0.007 C 
HETATM   37  C35 VFQ g1621     -41.310 137.837   8.573  1.00 57.17     0.001 C 
HETATM   38  C36 VFQ g1621     -49.496 147.153   7.948  1.00 30.42     0.020 C 
HETATM   39  C37 VFQ g1621     -50.700 145.015   8.220  1.00 30.42     0.020 C 
HETATM   40  C38 VFQ g1621     -48.008 145.231  12.060  1.00 30.42     0.044 C 
HETATM   41  C39 VFQ g1621     -45.522 143.988   7.390  1.00 57.17     0.048 C 
HETATM   42  C40 VFQ g1621     -42.640 139.810   6.904  1.00 57.17     0.048 C 
HETATM   43  O23 VFQ g1621     -52.600 146.456  11.579  1.00 30.42    -0.395 OA
ATOM     44  H23 VFQ g1621     -53.014 147.291  11.397  1.00  0.00     0.210 HD
ENDROOT
TORSDOF 12
BEGIN_RES PHE A  61
REMARK  2 active torsions:
REMARK  status: ('A' for Active; 'I' for Inactive)
REMARK    1  A    between atoms: CA   and  CB  
REMARK    2  A    between atoms: CB   and  CG  
ROOT
ATOM      1  CA  PHE A  61     -36.237 128.293  12.768  1.00 39.40     0.164 C 
ENDROOT
BRANCH   1   2
ATOM      2  CB  PHE A  61     -36.813 128.951  11.509  1.00 39.41     0.058 C 
BRANCH   2   3
ATOM      3  CG  PHE A  61     -37.024 128.005  10.351  1.00 39.01    -0.020 A 
ATOM      4  CD2 PHE A  61     -37.952 128.287   9.362  1.00 40.32    -0.004 A 
ATOM      5  CE2 PHE A  61     -38.148 127.414   8.299  1.00 40.20    -0.000 A 
ATOM      6  CZ  PHE A  61     -37.415 126.252   8.211  1.00 40.34    -0.000 A 
ATOM      7  CE1 PHE A  61     -36.487 125.958   9.186  1.00 41.51    -0.000 A 
ATOM      8  CD1 PHE A  61     -36.296 126.827  10.252  1.00 39.94    -0.004 A 
ENDBRANCH   2   3
ENDBRANCH   1   2
END_RES PHE A  61
BEGIN_RES VAL A 134
REMARK  1 active torsions:
REMARK  status: ('A' for Active; 'I' for Inactive)
REMARK    3  A    between atoms: CA   and  CB  
ROOT
ATOM      9  CA  VAL A 134     -29.766 132.051   9.815  1.00 40.75     0.159 C 
ENDROOT
BRANCH   9  10
ATOM     10  CB  VAL A 134     -30.864 132.765   9.009  1.00 40.76     0.029 C 
ATOM     11  CG1 VAL A 134     -32.086 133.024   9.877  1.00 41.76     0.002 C 
ATOM     12  CG2 VAL A 134     -30.356 134.059   8.392  1.00 40.56     0.002 C 
ENDBRANCH   9  10
END_RES VAL A 134
BEGIN_RES TYR A 338
REMARK  3 active torsions:
REMARK  status: ('A' for Active; 'I' for Inactive)
REMARK    4  A    between atoms: CA   and  CB  
REMARK    5  A    between atoms: CB   and  CG  
REMARK    6  A    between atoms: CZ   and  OH  
ROOT
ATOM     13  CA  TYR A 338     -41.631 124.950   6.058  1.00 38.23     0.164 C 
ENDROOT
BRANCH  13  14
ATOM     14  CB  TYR A 338     -41.621 126.456   6.339  1.00 39.15     0.058 C 
BRANCH  14  15
ATOM     15  CG  TYR A 338     -40.430 127.216   5.802  1.00 39.03    -0.020 A 
ATOM     16  CD2 TYR A 338     -39.467 126.567   5.048  1.00 40.65    -0.002 A 
ATOM     17  CE2 TYR A 338     -38.354 127.229   4.553  1.00 40.91     0.024 A 
ATOM     18  CZ  TYR A 338     -38.184 128.576   4.813  1.00 42.33     0.089 A 
ATOM     19  CE1 TYR A 338     -39.135 129.247   5.561  1.00 40.63     0.024 A 
ATOM     20  CD1 TYR A 338     -40.235 128.564   6.058  1.00 39.27    -0.002 A 
BRANCH  18  21
ATOM     21  OH  TYR A 338     -37.093 129.239   4.327  1.00 43.36    -0.359 OA
ATOM     22  HH  TYR A 338     -36.482 129.661   4.921  1.00  0.00     0.217 HD
ENDBRANCH  18  21
ENDBRANCH  14  15
ENDBRANCH  13  14
END_RES TYR A 338
ENDMDL
MODEL 3
REMARK VINA RESULT:    -7.948      1.897     16.809
REMARK INTER + INTRA:         -11.315
REMARK INTER:                  -8.983
REMARK INTRA:                  -2.332
REMARK UNBOUND:                -3.367
REMARK  0 active torsions:
REMARK  status: ('A' for Active; 'I' for Inactive)
REMARK       I    between atoms: C3_3  and  O3_21 
REMARK       I    between atoms: C6_6  and  C7_7 
REMARK       I    between atoms: C8_8  and  C9_9 
REMARK       I    between atoms: C10_10  and  C11_11 
REMARK       I    between atoms: C12_12  and  C13_13 
REMARK       I    between atoms: C14_14  and  C15_15 
REMARK       I    between atoms: C23_25  and  O23_43 
REMARK       I    between atoms: C26_28  and  C27_29 
REMARK       I    between atoms: C28_30  and  C29_31 
REMARK       I    between atoms: C30_32  and  C31_33 
REMARK       I    between atoms: C32_34  and  C33_35 
REMARK       I    between atoms: C34_36  and  C35_37 
ROOT
HETATM    1  C1  VFQ g1621     -48.138 146.994   9.514  1.00 57.17    -0.018 C 
HETATM    2  C2  VFQ g1621     -49.654 147.126   9.438  1.00 57.17     0.045 C 
HETATM    3  C3  VFQ g1621     -50.438 146.918  10.721  1.00 57.17     0.123 C 
HETATM    4  C4  VFQ g1621     -49.680 147.477  11.904  1.00 57.17     0.066 C 
HETATM    5  C5  VFQ g1621     -48.340 146.804  11.977  1.00 57.17    -0.074 C 
HETATM    6  C6  VFQ g1621     -47.569 146.707  10.887  1.00 57.17    -0.048 C 
HETATM    7  C7  VFQ g1621     -46.130 146.339  10.981  1.00 57.17     0.009 C 
HETATM    8  C8  VFQ g1621     -45.733 145.070  11.103  1.00 57.17     0.007 C 
HETATM    9  C9  VFQ g1621     -44.324 144.652  11.181  1.00 57.17    -0.062 C 
HETATM   10  C10 VFQ g1621     -44.077 143.385  10.839  1.00 57.17     0.007 C 
HETATM   11  C11 VFQ g1621     -42.778 142.728  10.799  1.00 57.17     0.001 C 
HETATM   12  C12 VFQ g1621     -42.810 141.470  10.373  1.00 57.17     0.007 C 
HETATM   13  C13 VFQ g1621     -41.622 140.621  10.207  1.00 57.17    -0.062 C 
HETATM   14  C14 VFQ g1621     -41.793 139.339   9.857  1.00 57.17     0.007 C 
HETATM   15  C15 VFQ g1621     -40.658 138.455   9.628  1.00 57.17     0.001 C 
HETATM   16  C16 VFQ g1621     -47.552 148.276   8.942  1.00 57.17     0.020 C 
HETATM   17  C17 VFQ g1621     -47.744 145.832   8.631  1.00 57.17     0.020 C 
HETATM   18  C18 VFQ g1621     -47.773 146.844  13.364  1.00 57.17     0.044 C 
HETATM   19  C19 VFQ g1621     -43.241 145.591  11.615  1.00 57.17     0.048 C 
HETATM   20  C20 VFQ g1621     -40.253 141.202  10.381  1.00 57.17     0.048 C 
HETATM   21  O3  VFQ g1621     -51.675 147.620  10.593  1.00 57.17    -0.395 OA
ATOM     22  H3  VFQ g1621     -52.151 147.269   9.850  1.00  0.00     0.210 HD
HETATM   23  C21 VFQ g1621     -34.517 127.342   6.367  1.00 30.42    -0.018 C 
HETATM   24  C22 VFQ g1621     -33.149 126.724   6.062  1.00 30.42     0.045 C 
HETATM   25  C23 VFQ g1621     -31.938 127.645   6.146  1.00 30.42     0.123 C 
HETATM   26  C24 VFQ g1621     -32.338 129.113   6.077  1.00 30.42     0.066 C 
HETATM   27  C25 VFQ g1621     -33.342 129.337   7.169  1.00 30.42    -0.074 C 
HETATM   28  C26 VFQ g1621     -34.474 128.636   7.154  1.00 30.42    -0.048 C 
HETATM   29  C27 VFQ g1621     -35.740 129.157   7.710  1.00 30.42     0.009 C 
HETATM   30  C28 VFQ g1621     -35.983 130.470   7.658  1.00 30.42     0.007 C 
HETATM   31  C29 VFQ g1621     -37.341 130.976   7.991  1.00 57.17    -0.062 C 
HETATM   32  C30 VFQ g1621     -37.545 132.269   7.734  1.00 57.17     0.007 C 
HETATM   33  C31 VFQ g1621     -38.799 132.958   7.995  1.00 57.17     0.001 C 
HETATM   34  C32 VFQ g1621     -38.700 134.223   8.381  1.00 57.17     0.007 C 
HETATM   35  C33 VFQ g1621     -39.878 135.040   8.673  1.00 57.17    -0.062 C 
HETATM   36  C34 VFQ g1621     -39.739 136.346   8.919  1.00 57.17     0.007 C 
HETATM   37  C35 VFQ g1621     -40.874 137.219   9.193  1.00 57.17     0.001 C 
HETATM   38  C36 VFQ g1621     -35.361 126.295   7.074  1.00 30.42     0.020 C 
HETATM   39  C37 VFQ g1621     -35.207 127.702   5.052  1.00 30.42     0.020 C 
HETATM   40  C38 VFQ g1621     -32.979 130.248   8.308  1.00 30.42     0.044 C 
HETATM   41  C39 VFQ g1621     -38.405 130.111   8.591  1.00 57.17     0.048 C 
HETATM   42  C40 VFQ g1621     -41.203 134.372   8.706  1.00 57.17     0.048 C 
HETATM   43  O23 VFQ g1621     -31.106 127.315   5.037  1.00 30.42    -0.395 OA
ATOM     44  H23 VFQ g1621     -30.856 126.399   5.080  1.00  0.00     0.210 HD
ENDROOT
TORSDOF 12
BEGIN_RES PHE A  61
REMARK  2 active torsions:
REMARK  status: ('A' for Active; 'I' for Inactive)
REMARK    1  A    between atoms: CA   and  CB  
REMARK    2  A    between atoms: CB   and  CG  
ROOT
ATOM      1  CA  PHE A  61     -36.237 128.293  12.768  1.00 39.40     0.164 C 
ENDROOT
BRANCH   1   2
ATOM      2  CB  PHE A  61     -36.813 128.951  11.509  1.00 39.41     0.058 C 
BRANCH   2   3
ATOM      3  CG  PHE A  61     -36.415 130.396  11.322  1.00 39.01    -0.020 A 
ATOM      4  CD2 PHE A  61     -35.121 130.737  10.962  1.00 40.32    -0.004 A 
ATOM      5  CE2 PHE A  61     -34.756 132.066  10.794  1.00 40.20    -0.000 A 
ATOM      6  CZ  PHE A  61     -35.680 133.069  10.980  1.00 40.34    -0.000 A 
ATOM      7  CE1 PHE A  61     -36.971 132.747  11.336  1.00 41.51    -0.000 A 
ATOM      8  CD1 PHE A  61     -37.335 131.418  11.511  1.00 39.94    -0.004 A 
ENDBRANCH   2   3
ENDBRANCH   1   2
END_RES PHE A  61
BEGIN_RES VAL A 134
REMARK  1 active torsions:
REMARK  status: ('A' for Active; 'I' for Inactive)
REMARK    3  A    between atoms: CA   and  CB  
ROOT
ATOM      9  CA  VAL A 134     -29.766 132.051   9.815  1.00 40.75     0.159 C 
ENDROOT
BRANCH   9  10
ATOM     10  CB  VAL A 134     -30.864 132.765   9.009  1.00 40.76     0.029 C 
ATOM     11  CG1 VAL A 134     -31.004 132.147   7.625  1.00 41.76     0.002 C 
ATOM     12  CG2 VAL A 134     -32.196 132.754   9.743  1.00 40.56     0.002 C 
ENDBRANCH   9  10
END_RES VAL A 134
BEGIN_RES TYR A 338
REMARK  3 active torsions:
REMARK  status: ('A' for Active; 'I' for Inactive)
REMARK    4  A    between atoms: CA   and  CB  
REMARK    5  A    between atoms: CB   and  CG  
REMARK    6  A    between atoms: CZ   and  OH  
ROOT
ATOM     13  CA  TYR A 338     -41.631 124.950   6.058  1.00 38.23     0.164 C 
ENDROOT
BRANCH  13  14
ATOM     14  CB  TYR A 338     -41.621 126.456   6.339  1.00 39.15     0.058 C 
BRANCH  14  15
ATOM     15  CG  TYR A 338     -40.410 127.209   5.837  1.00 39.03    -0.020 A 
ATOM     16  CD2 TYR A 338     -40.260 128.557   6.114  1.00 40.65    -0.002 A 
ATOM     17  CE2 TYR A 338     -39.170 129.282   5.656  1.00 40.91     0.024 A 
ATOM     18  CZ  TYR A 338     -38.197 128.656   4.900  1.00 42.33     0.089 A 
ATOM     19  CE1 TYR A 338     -38.323 127.308   4.615  1.00 40.63     0.024 A 
ATOM     20  CD1 TYR A 338     -39.427 126.604   5.070  1.00 39.27    -0.002 A 
BRANCH  18  21
ATOM     21  OH  TYR A 338     -37.117 129.360   4.448  1.00 43.36    -0.359 OA
ATOM     22  HH  TYR A 338     -36.726 130.039   4.986  1.00  0.00     0.217 HD
ENDBRANCH  18  21
ENDBRANCH  14  15
ENDBRANCH  13  14
END_RES TYR A 338
ENDMDL
MODEL 4
REMARK VINA RESULT:    -6.370      1.995     16.762
REMARK INTER + INTRA:          -9.737
REMARK INTER:                  -7.761
REMARK INTRA:                  -1.975
REMARK UNBOUND:                -3.367
REMARK  0 active torsions:
REMARK  status: ('A' for Active; 'I' for Inactive)
REMARK       I    between atoms: C3_3  and  O3_21 
REMARK       I    between atoms: C6_6  and  C7_7 
REMARK       I    between atoms: C8_8  and  C9_9 
REMARK       I    between atoms: C10_10  and  C11_11 
REMARK       I    between atoms: C12_12  and  C13_13 
REMARK       I    between atoms: C14_14  and  C15_15 
REMARK       I    between atoms: C23_25  and  O23_43 
REMARK       I    between atoms: C26_28  and  C27_29 
REMARK       I    between atoms: C28_30  and  C29_31 
REMARK       I    between atoms: C30_32  and  C31_33 
REMARK       I    between atoms: C32_34  and  C33_35 
REMARK       I    between atoms: C34_36  and  C35_37 
ROOT
HETATM    1  C1  VFQ g1621     -47.924 145.821  12.406  1.00 57.17    -0.018 C 
HETATM    2  C2  VFQ g1621     -48.960 145.960  13.514  1.00 57.17     0.045 C 
HETATM    3  C3  VFQ g1621     -48.481 146.485  14.854  1.00 57.17     0.123 C 
HETATM    4  C4  VFQ g1621     -47.421 147.546  14.662  1.00 57.17     0.066 C 
HETATM    5  C5  VFQ g1621     -46.285 146.952  13.881  1.00 57.17    -0.074 C 
HETATM    6  C6  VFQ g1621     -46.520 146.268  12.755  1.00 57.17    -0.048 C 
HETATM    7  C7  VFQ g1621     -45.427 145.941  11.800  1.00 57.17     0.009 C 
HETATM    8  C8  VFQ g1621     -44.606 144.905  11.994  1.00 57.17     0.007 C 
HETATM    9  C9  VFQ g1621     -43.523 144.528  11.072  1.00 57.17    -0.062 C 
HETATM   10  C10 VFQ g1621     -43.114 143.260  11.149  1.00 57.17     0.007 C 
HETATM   11  C11 VFQ g1621     -42.087 142.622  10.337  1.00 57.17     0.001 C 
HETATM   12  C12 VFQ g1621     -41.910 141.329  10.587  1.00 57.17     0.007 C 
HETATM   13  C13 VFQ g1621     -40.963 140.468   9.866  1.00 57.17    -0.062 C 
HETATM   14  C14 VFQ g1621     -40.810 139.200  10.272  1.00 57.17     0.007 C 
HETATM   15  C15 VFQ g1621     -39.926 138.278   9.573  1.00 57.17     0.001 C 
HETATM   16  C16 VFQ g1621     -48.453 146.589  11.205  1.00 57.17     0.020 C 
HETATM   17  C17 VFQ g1621     -47.836 144.352  12.055  1.00 57.17     0.020 C 
HETATM   18  C18 VFQ g1621     -45.000 147.685  14.125  1.00 57.17     0.044 C 
HETATM   19  C19 VFQ g1621     -42.924 145.508  10.110  1.00 57.17     0.048 C 
HETATM   20  C20 VFQ g1621     -40.227 140.993   8.673  1.00 57.17     0.048 C 
HETATM   21  O3  VFQ g1621     -49.603 147.071  15.517  1.00 57.17    -0.395 OA
ATOM     22  H3  VFQ g1621     -50.269 146.405  15.638  1.00  0.00     0.210 HD
HETATM   23  C21 VFQ g1621     -34.068 126.840   6.985  1.00 30.42    -0.018 C 
HETATM   24  C22 VFQ g1621     -33.195 126.094   5.970  1.00 30.42     0.045 C 
HETATM   25  C23 VFQ g1621     -32.750 126.871   4.737  1.00 30.42     0.123 C 
HETATM   26  C24 VFQ g1621     -33.614 128.102   4.502  1.00 30.42     0.066 C 
HETATM   27  C25 VFQ g1621     -33.569 128.907   5.767  1.00 30.42    -0.074 C 
HETATM   28  C26 VFQ g1621     -34.003 128.351   6.896  1.00 30.42    -0.048 C 
HETATM   29  C27 VFQ g1621     -34.604 129.141   7.992  1.00 30.42     0.009 C 
HETATM   30  C28 VFQ g1621     -35.299 130.243   7.696  1.00 30.42     0.007 C 
HETATM   31  C29 VFQ g1621     -36.103 130.907   8.757  1.00 57.17    -0.062 C 
HETATM   32  C30 VFQ g1621     -36.907 131.883   8.333  1.00 57.17     0.007 C 
HETATM   33  C31 VFQ g1621     -37.767 132.661   9.210  1.00 57.17     0.001 C 
HETATM   34  C32 VFQ g1621     -37.933 133.936   8.884  1.00 57.17     0.007 C 
HETATM   35  C33 VFQ g1621     -38.775 134.836   9.673  1.00 57.17    -0.062 C 
HETATM   36  C34 VFQ g1621     -39.028 136.071   9.230  1.00 57.17     0.007 C 
HETATM   37  C35 VFQ g1621     -39.876 137.007   9.956  1.00 57.17     0.001 C 
HETATM   38  C36 VFQ g1621     -33.695 126.354   8.376  1.00 30.42     0.020 C 
HETATM   39  C37 VFQ g1621     -35.534 126.491   6.734  1.00 30.42     0.020 C 
HETATM   40  C38 VFQ g1621     -32.919 130.261   5.740  1.00 30.42     0.044 C 
HETATM   41  C39 VFQ g1621     -36.010 130.529  10.202  1.00 57.17     0.048 C 
HETATM   42  C40 VFQ g1621     -39.308 134.342  10.967  1.00 57.17     0.048 C 
HETATM   43  O23 VFQ g1621     -32.870 125.974   3.635  1.00 30.42    -0.395 OA
ATOM     44  H23 VFQ g1621     -32.331 125.206   3.781  1.00  0.00     0.210 HD
ENDROOT
TORSDOF 12
BEGIN_RES PHE A  61
REMARK  2 active torsions:
REMARK  status: ('A' for Active; 'I' for Inactive)
REMARK    1  A    between atoms: CA   and  CB  
REMARK    2  A    between atoms: CB   and  CG  
ROOT
ATOM      1  CA  PHE A  61     -36.237 128.293  12.768  1.00 39.40     0.164 C 
ENDROOT
BRANCH   1   2
ATOM      2  CB  PHE A  61     -36.813 128.951  11.509  1.00 39.41     0.058 C 
BRANCH   2   3
ATOM      3  CG  PHE A  61     -37.122 127.988  10.388  1.00 39.01    -0.020 A 
ATOM      4  CD2 PHE A  61     -38.096 128.282   9.446  1.00 40.32    -0.004 A 
ATOM      5  CE2 PHE A  61     -38.381 127.394   8.416  1.00 40.20    -0.000 A 
ATOM      6  CZ  PHE A  61     -37.695 126.205   8.315  1.00 40.34    -0.000 A 
ATOM      7  CE1 PHE A  61     -36.723 125.900   9.241  1.00 41.51    -0.000 A 
ATOM      8  CD1 PHE A  61     -36.442 126.784  10.275  1.00 39.94    -0.004 A 
ENDBRANCH   2   3
ENDBRANCH   1   2
END_RES PHE A  61
BEGIN_RES VAL A 134
REMARK  1 active torsions:
REMARK  status: ('A' for Active; 'I' for Inactive)
REMARK    3  A    between atoms: CA   and  CB  
ROOT
ATOM      9  CA  VAL A 134     -29.766 132.051   9.815  1.00 40.75     0.159 C 
ENDROOT
BRANCH   9  10
ATOM     10  CB  VAL A 134     -30.864 132.765   9.009  1.00 40.76     0.029 C 
ATOM     11  CG1 VAL A 134     -30.896 132.256   7.575  1.00 41.76     0.002 C 
ATOM     12  CG2 VAL A 134     -32.228 132.618   9.666  1.00 40.56     0.002 C 
ENDBRANCH   9  10
END_RES VAL A 134
BEGIN_RES TYR A 338
REMARK  3 active torsions:
REMARK  status: ('A' for Active; 'I' for Inactive)
REMARK    4  A    between atoms: CA   and  CB  
REMARK    5  A    between atoms: CB   and  CG  
REMARK    6  A    between atoms: CZ   and  OH  
ROOT
ATOM     13  CA  TYR A 338     -41.631 124.950   6.058  1.00 38.23     0.164 C 
ENDROOT
BRANCH  13  14
ATOM     14  CB  TYR A 338     -41.621 126.456   6.339  1.00 39.15     0.058 C 
BRANCH  14  15
ATOM     15  CG  TYR A 338     -40.390 127.201   5.878  1.00 39.03    -0.020 A 
ATOM     16  CD2 TYR A 338     -40.223 128.540   6.190  1.00 40.65    -0.002 A 
ATOM     17  CE2 TYR A 338     -39.114 129.258   5.770  1.00 40.91     0.024 A 
ATOM     18  CZ  TYR A 338     -38.138 128.635   5.015  1.00 42.33     0.089 A 
ATOM     19  CE1 TYR A 338     -38.280 127.297   4.694  1.00 40.63     0.024 A 
ATOM     20  CD1 TYR A 338     -39.403 126.599   5.113  1.00 39.27    -0.002 A 
BRANCH  18  21
ATOM     21  OH  TYR A 338     -37.038 129.333   4.600  1.00 43.36    -0.359 OA
ATOM     22  HH  TYR A 338     -36.954 130.258   4.796  1.00  0.00     0.217 HD
ENDBRANCH  18  21
ENDBRANCH  14  15
ENDBRANCH  13  14
END_RES TYR A 338
ENDMDL
