MODEL 1
REMARK VINA RESULT:   -11.545      0.000      0.000
REMARK INTER + INTRA:         -13.577
REMARK INTER:                 -11.545
REMARK INTRA:                  -2.032
REMARK UNBOUND:                -2.032
REMARK  0 active torsions:
REMARK  status: ('A' for Active; 'I' for Inactive)
REMARK       I    between atoms: C3_3  and  O3_21 
REMARK       I    between atoms: C6_6  and  C7_7 
REMARK       I    between atoms: C8_8  and  C9_9 
REMARK       I    between atoms: C10_10  and  C11_11 
REMARK       I    between atoms: C12_12  and  C13_13 
REMARK       I    between atoms: C14_14  and  C15_15 
REMARK       I    between atoms: C23_25  and  O23_43 
REMARK       I    between atoms: C26_28  and  C27_29 
REMARK       I    between atoms: C28_30  and  C29_31 
REMARK       I    between atoms: C30_32  and  C31_33 
REMARK       I    between atoms: C32_34  and  C33_35 
REMARK       I    between atoms: C34_36  and  C35_37 
ROOT
HETATM    1  C1  VFQ 8 618     -48.229 145.456  12.559  1.00 13.13    -0.018 C 
HETATM    2  C2  VFQ 8 618     -49.220 146.049  13.550  1.00 13.13     0.045 C 
HETATM    3  C3  VFQ 8 618     -48.599 146.687  14.771  1.00 13.13     0.123 C 
HETATM    4  C4  VFQ 8 618     -47.553 147.684  14.343  1.00 13.13     0.066 C 
HETATM    5  C5  VFQ 8 618     -46.523 147.040  13.457  1.00 13.13    -0.074 C 
HETATM    6  C6  VFQ 8 618     -46.839 146.072  12.581  1.00 13.13    -0.048 C 
HETATM    7  C7  VFQ 8 618     -45.870 145.596  11.552  1.00 13.13     0.009 C 
HETATM    8  C8  VFQ 8 618     -44.893 144.707  11.775  1.00 13.13     0.007 C 
HETATM    9  C9  VFQ 8 618     -43.974 144.258  10.713  1.00 13.13    -0.062 C 
HETATM   10  C10 VFQ 8 618     -43.339 143.100  10.904  1.00 13.13     0.007 C 
HETATM   11  C11 VFQ 8 618     -42.417 142.486   9.956  1.00 13.13     0.001 C 
HETATM   12  C12 VFQ 8 618     -42.145 141.222  10.241  1.00 13.13     0.007 C 
HETATM   13  C13 VFQ 8 618     -41.285 140.292   9.494  1.00 13.13    -0.062 C 
HETATM   14  C14 VFQ 8 618     -40.939 139.143  10.094  1.00 13.13     0.007 C 
HETATM   15  C15 VFQ 8 618     -40.126 138.146   9.418  1.00 13.13     0.001 C 
HETATM   16  C16 VFQ 8 618     -48.879 145.620  11.196  1.00 13.13     0.020 C 
HETATM   17  C17 VFQ 8 618     -48.059 143.980  12.881  1.00 13.13     0.020 C 
HETATM   18  C18 VFQ 8 618     -45.235 147.801  13.399  1.00 13.13     0.044 C 
HETATM   19  C19 VFQ 8 618     -43.760 145.065   9.470  1.00 13.13     0.048 C 
HETATM   20  C20 VFQ 8 618     -40.839 140.590   8.100  1.00 13.13     0.048 C 
HETATM   21  O3  VFQ 8 618     -49.621 147.386  15.482  1.00 13.13    -0.395 OA
ATOM     22  H3  VFQ 8 618     -50.280 146.758  15.752  1.00  0.00     0.210 HD
HETATM   23  C21 VFQ 8 618     -34.022 127.115   6.975  1.00 57.46    -0.018 C 
HETATM   24  C22 VFQ 8 618     -33.015 126.303   6.174  1.00 54.62     0.045 C 
HETATM   25  C23 VFQ 8 618     -32.390 126.942   4.933  1.00 54.91     0.123 C 
HETATM   26  C24 VFQ 8 618     -32.605 128.440   4.775  1.00 56.99     0.066 C 
HETATM   27  C25 VFQ 8 618     -32.832 129.108   6.102  1.00 60.65    -0.074 C 
HETATM   28  C26 VFQ 8 618     -33.664 128.582   7.004  1.00 60.28    -0.048 C 
HETATM   29  C27 VFQ 8 618     -34.240 129.401   8.093  1.00 57.11     0.009 C 
HETATM   30  C28 VFQ 8 618     -35.290 130.187   7.897  1.00 53.31     0.007 C 
HETATM   31  C29 VFQ 8 618     -35.881 130.970   8.998  1.00 13.13    -0.062 C 
HETATM   32  C30 VFQ 8 618     -36.740 131.923   8.635  1.00 13.13     0.007 C 
HETATM   33  C31 VFQ 8 618     -37.450 132.796   9.555  1.00 13.13     0.001 C 
HETATM   34  C32 VFQ 8 618     -37.771 133.998   9.097  1.00 13.13     0.007 C 
HETATM   35  C33 VFQ 8 618     -38.511 134.960   9.922  1.00 13.13    -0.062 C 
HETATM   36  C34 VFQ 8 618     -39.077 136.001   9.309  1.00 13.13     0.007 C 
HETATM   37  C35 VFQ 8 618     -39.861 136.997  10.022  1.00 13.13     0.001 C 
HETATM   38  C36 VFQ 8 618     -33.999 126.602   8.403  1.00 59.48     0.020 C 
HETATM   39  C37 VFQ 8 618     -35.435 126.891   6.438  1.00 57.14     0.020 C 
HETATM   40  C38 VFQ 8 618     -32.087 130.375   6.384  1.00 65.36     0.044 C 
HETATM   41  C39 VFQ 8 618     -35.551 130.693  10.431  1.00 13.13     0.048 C 
HETATM   42  C40 VFQ 8 618     -38.627 134.771  11.397  1.00 13.13     0.048 C 
HETATM   43  O23 VFQ 8 618     -32.944 126.284   3.792  1.00 51.54    -0.395 OA
ATOM     44  H23 VFQ 8 618     -32.556 126.681   3.022  1.00  0.00     0.210 HD
ENDROOT
TORSDOF 12
BEGIN_RES PHE A  61
REMARK  2 active torsions:
REMARK  status: ('A' for Active; 'I' for Inactive)
REMARK    1  A    between atoms: CA   and  CB  
REMARK    2  A    between atoms: CB   and  CG  
ROOT
ATOM      1  CA  PHE A  61     -36.237 128.293  12.768  1.00 39.40     0.164 C 
ENDROOT
BRANCH   1   2
ATOM      2  CB  PHE A  61     -36.813 128.951  11.509  1.00 39.41     0.058 C 
BRANCH   2   3
ATOM      3  CG  PHE A  61     -37.098 127.992  10.378  1.00 39.01    -0.020 A 
ATOM      4  CD2 PHE A  61     -36.425 126.784  10.283  1.00 40.32    -0.004 A 
ATOM      5  CE2 PHE A  61     -36.687 125.904   9.240  1.00 40.20    -0.000 A 
ATOM      6  CZ  PHE A  61     -37.626 126.219   8.285  1.00 40.34    -0.000 A 
ATOM      7  CE1 PHE A  61     -38.305 127.414   8.367  1.00 41.51    -0.000 A 
ATOM      8  CD1 PHE A  61     -38.039 128.298   9.405  1.00 39.94    -0.004 A 
ENDBRANCH   2   3
ENDBRANCH   1   2
END_RES PHE A  61
BEGIN_RES VAL A 134
REMARK  1 active torsions:
REMARK  status: ('A' for Active; 'I' for Inactive)
REMARK    3  A    between atoms: CA   and  CB  
ROOT
ATOM      9  CA  VAL A 134     -29.766 132.051   9.815  1.00 40.75     0.159 C 
ENDROOT
BRANCH   9  10
ATOM     10  CB  VAL A 134     -30.864 132.765   9.009  1.00 40.76     0.029 C 
ATOM     11  CG1 VAL A 134     -30.797 132.370   7.541  1.00 41.76     0.002 C 
ATOM     12  CG2 VAL A 134     -32.247 132.491   9.580  1.00 40.56     0.002 C 
ENDBRANCH   9  10
END_RES VAL A 134
BEGIN_RES TYR A 338
REMARK  3 active torsions:
REMARK  status: ('A' for Active; 'I' for Inactive)
REMARK    4  A    between atoms: CA   and  CB  
REMARK    5  A    between atoms: CB   and  CG  
REMARK    6  A    between atoms: CZ   and  OH  
ROOT
ATOM     13  CA  TYR A 338     -41.631 124.950   6.058  1.00 38.23     0.164 C 
ENDROOT
BRANCH  13  14
ATOM     14  CB  TYR A 338     -41.621 126.456   6.339  1.00 39.15     0.058 C 
BRANCH  14  15
ATOM     15  CG  TYR A 338     -40.401 127.205   5.856  1.00 39.03    -0.020 A 
ATOM     16  CD2 TYR A 338     -40.225 128.541   6.178  1.00 40.65    -0.002 A 
ATOM     17  CE2 TYR A 338     -39.126 129.263   5.739  1.00 40.91     0.024 A 
ATOM     18  CZ  TYR A 338     -38.169 128.647   4.955  1.00 42.33     0.089 A 
ATOM     19  CE1 TYR A 338     -38.319 127.312   4.624  1.00 40.63     0.024 A 
ATOM     20  CD1 TYR A 338     -39.432 126.611   5.062  1.00 39.27    -0.002 A 
BRANCH  18  21
ATOM     21  OH  TYR A 338     -37.079 129.348   4.521  1.00 43.36    -0.359 OA
ATOM     22  HH  TYR A 338     -36.445 128.941   3.941  1.00  0.00     0.217 HD
ENDBRANCH  18  21
ENDBRANCH  14  15
ENDBRANCH  13  14
END_RES TYR A 338
ENDMDL
MODEL 2
REMARK VINA RESULT:   -10.153      1.642      2.535
REMARK INTER + INTRA:         -12.185
REMARK INTER:                  -9.800
REMARK INTRA:                  -2.385
REMARK UNBOUND:                -2.032
REMARK  0 active torsions:
REMARK  status: ('A' for Active; 'I' for Inactive)
REMARK       I    between atoms: C3_3  and  O3_21 
REMARK       I    between atoms: C6_6  and  C7_7 
REMARK       I    between atoms: C8_8  and  C9_9 
REMARK       I    between atoms: C10_10  and  C11_11 
REMARK       I    between atoms: C12_12  and  C13_13 
REMARK       I    between atoms: C14_14  and  C15_15 
REMARK       I    between atoms: C23_25  and  O23_43 
REMARK       I    between atoms: C26_28  and  C27_29 
REMARK       I    between atoms: C28_30  and  C29_31 
REMARK       I    between atoms: C30_32  and  C31_33 
REMARK       I    between atoms: C32_34  and  C33_35 
REMARK       I    between atoms: C34_36  and  C35_37 
ROOT
HETATM    1  C1  VFQ 8 618     -47.890 147.003  10.014  1.00 13.13    -0.018 C 
HETATM    2  C2  VFQ 8 618     -49.285 147.572  10.228  1.00 13.13     0.045 C 
HETATM    3  C3  VFQ 8 618     -49.840 147.400  11.623  1.00 13.13     0.123 C 
HETATM    4  C4  VFQ 8 618     -48.848 147.924  12.629  1.00 13.13     0.066 C 
HETATM    5  C5  VFQ 8 618     -47.510 147.258  12.468  1.00 13.13    -0.074 C 
HETATM    6  C6  VFQ 8 618     -47.029 146.903  11.264  1.00 13.13    -0.048 C 
HETATM    7  C7  VFQ 8 618     -45.619 146.454  11.083  1.00 13.13     0.009 C 
HETATM    8  C8  VFQ 8 618     -45.174 145.214  11.329  1.00 13.13     0.007 C 
HETATM    9  C9  VFQ 8 618     -43.769 144.820  11.113  1.00 13.13    -0.062 C 
HETATM   10  C10 VFQ 8 618     -43.515 143.517  10.973  1.00 13.13     0.007 C 
HETATM   11  C11 VFQ 8 618     -42.197 142.945  10.726  1.00 13.13     0.001 C 
HETATM   12  C12 VFQ 8 618     -42.245 141.679  10.342  1.00 13.13     0.007 C 
HETATM   13  C13 VFQ 8 618     -41.122 140.800   9.984  1.00 13.13    -0.062 C 
HETATM   14  C14 VFQ 8 618     -41.366 139.486   9.877  1.00 13.13     0.007 C 
HETATM   15  C15 VFQ 8 618     -40.328 138.547   9.488  1.00 13.13     0.001 C 
HETATM   16  C16 VFQ 8 618     -47.244 147.904   8.976  1.00 13.13     0.020 C 
HETATM   17  C17 VFQ 8 618     -48.030 145.592   9.466  1.00 13.13     0.020 C 
HETATM   18  C18 VFQ 8 618     -46.652 147.350  13.691  1.00 13.13     0.044 C 
HETATM   19  C19 VFQ 8 618     -42.671 145.836  11.053  1.00 13.13     0.048 C 
HETATM   20  C20 VFQ 8 618     -39.760 141.348   9.709  1.00 13.13     0.048 C 
HETATM   21  O3  VFQ 8 618     -51.038 148.169  11.729  1.00 13.13    -0.395 OA
ATOM     22  H3  VFQ 8 618     -51.663 147.839  11.095  1.00  0.00     0.210 HD
HETATM   23  C21 VFQ 8 618     -34.566 127.627   5.957  1.00 57.46    -0.018 C 
HETATM   24  C22 VFQ 8 618     -33.307 126.801   5.731  1.00 54.62     0.045 C 
HETATM   25  C23 VFQ 8 618     -31.951 127.500   5.842  1.00 54.91     0.123 C 
HETATM   26  C24 VFQ 8 618     -31.967 128.890   6.460  1.00 56.99     0.066 C 
HETATM   27  C25 VFQ 8 618     -33.140 129.072   7.382  1.00 60.65    -0.074 C 
HETATM   28  C26 VFQ 8 618     -34.364 128.677   7.025  1.00 60.28    -0.048 C 
HETATM   29  C27 VFQ 8 618     -35.574 129.219   7.682  1.00 57.11     0.009 C 
HETATM   30  C28 VFQ 8 618     -36.086 130.395   7.345  1.00 53.31     0.007 C 
HETATM   31  C29 VFQ 8 618     -37.313 130.910   7.979  1.00 13.13    -0.062 C 
HETATM   32  C30 VFQ 8 618     -37.575 132.201   7.770  1.00 13.13     0.007 C 
HETATM   33  C31 VFQ 8 618     -38.737 132.906   8.284  1.00 13.13     0.001 C 
HETATM   34  C32 VFQ 8 618     -38.587 134.203   8.511  1.00 13.13     0.007 C 
HETATM   35  C33 VFQ 8 618     -39.695 135.028   9.005  1.00 13.13    -0.062 C 
HETATM   36  C34 VFQ 8 618     -39.579 136.354   8.904  1.00 13.13     0.007 C 
HETATM   37  C35 VFQ 8 618     -40.627 137.265   9.330  1.00 13.13     0.001 C 
HETATM   38  C36 VFQ 8 618     -35.658 126.686   6.432  1.00 59.48     0.020 C 
HETATM   39  C37 VFQ 8 618     -35.042 128.244   4.643  1.00 57.14     0.020 C 
HETATM   40  C38 VFQ 8 618     -32.889 129.699   8.717  1.00 65.36     0.044 C 
HETATM   41  C39 VFQ 8 618     -38.215 130.029   8.785  1.00 13.13     0.048 C 
HETATM   42  C40 VFQ 8 618     -40.912 134.399   9.596  1.00 13.13     0.048 C 
HETATM   43  O23 VFQ 8 618     -31.417 127.599   4.521  1.00 51.54    -0.395 OA
ATOM     44  H23 VFQ 8 618     -30.575 128.033   4.590  1.00  0.00     0.210 HD
ENDROOT
TORSDOF 12
BEGIN_RES PHE A  61
REMARK  2 active torsions:
REMARK  status: ('A' for Active; 'I' for Inactive)
REMARK    1  A    between atoms: CA   and  CB  
REMARK    2  A    between atoms: CB   and  CG  
ROOT
ATOM      1  CA  PHE A  61     -36.237 128.293  12.768  1.00 39.40     0.164 C 
ENDROOT
BRANCH   1   2
ATOM      2  CB  PHE A  61     -36.813 128.951  11.509  1.00 39.41     0.058 C 
BRANCH   2   3
ATOM      3  CG  PHE A  61     -36.405 130.392  11.316  1.00 39.01    -0.020 A 
ATOM      4  CD2 PHE A  61     -37.284 131.425  11.602  1.00 40.32    -0.004 A 
ATOM      5  CE2 PHE A  61     -36.909 132.750  11.421  1.00 40.20    -0.000 A 
ATOM      6  CZ  PHE A  61     -35.651 133.057  10.956  1.00 40.34    -0.000 A 
ATOM      7  CE1 PHE A  61     -34.765 132.043  10.669  1.00 41.51    -0.000 A 
ATOM      8  CD1 PHE A  61     -35.142 130.717  10.843  1.00 39.94    -0.004 A 
ENDBRANCH   2   3
ENDBRANCH   1   2
END_RES PHE A  61
BEGIN_RES VAL A 134
REMARK  1 active torsions:
REMARK  status: ('A' for Active; 'I' for Inactive)
REMARK    3  A    between atoms: CA   and  CB  
ROOT
ATOM      9  CA  VAL A 134     -29.766 132.051   9.815  1.00 40.75     0.159 C 
ENDROOT
BRANCH   9  10
ATOM     10  CB  VAL A 134     -30.864 132.765   9.009  1.00 40.76     0.029 C 
ATOM     11  CG1 VAL A 134     -31.166 132.009   7.723  1.00 41.76     0.002 C 
ATOM     12  CG2 VAL A 134     -32.129 132.958   9.832  1.00 40.56     0.002 C 
ENDBRANCH   9  10
END_RES VAL A 134
BEGIN_RES TYR A 338
REMARK  3 active torsions:
REMARK  status: ('A' for Active; 'I' for Inactive)
REMARK    4  A    between atoms: CA   and  CB  
REMARK    5  A    between atoms: CB   and  CG  
REMARK    6  A    between atoms: CZ   and  OH  
ROOT
ATOM     13  CA  TYR A 338     -41.631 124.950   6.058  1.00 38.23     0.164 C 
ENDROOT
BRANCH  13  14
ATOM     14  CB  TYR A 338     -41.621 126.456   6.339  1.00 39.15     0.058 C 
BRANCH  14  15
ATOM     15  CG  TYR A 338     -40.424 127.214   5.812  1.00 39.03    -0.020 A 
ATOM     16  CD2 TYR A 338     -40.254 128.554   6.116  1.00 40.65    -0.002 A 
ATOM     17  CE2 TYR A 338     -39.177 129.284   5.637  1.00 40.91     0.024 A 
ATOM     18  CZ  TYR A 338     -38.237 128.670   4.830  1.00 42.33     0.089 A 
ATOM     19  CE1 TYR A 338     -38.383 127.331   4.516  1.00 40.63     0.024 A 
ATOM     20  CD1 TYR A 338     -39.474 126.622   4.994  1.00 39.27    -0.002 A 
BRANCH  18  21
ATOM     21  OH  TYR A 338     -37.169 129.379   4.355  1.00 43.36    -0.359 OA
ATOM     22  HH  TYR A 338     -36.772 129.151   3.523  1.00  0.00     0.217 HD
ENDBRANCH  18  21
ENDBRANCH  14  15
ENDBRANCH  13  14
END_RES TYR A 338
ENDMDL
