MODEL 1
REMARK VINA RESULT:   -10.355      0.000      0.000
REMARK INTER + INTRA:         -13.562
REMARK INTER:                 -10.355
REMARK INTRA:                  -3.207
REMARK UNBOUND:                -3.207
REMARK  0 active torsions:
REMARK  status: ('A' for Active; 'I' for Inactive)
REMARK       I    between atoms: C3_3  and  O3_21 
REMARK       I    between atoms: C6_6  and  C7_7 
REMARK       I    between atoms: C8_8  and  C9_9 
REMARK       I    between atoms: C10_10  and  C11_11 
REMARK       I    between atoms: C12_12  and  C13_13 
REMARK       I    between atoms: C14_14  and  C15_15 
REMARK       I    between atoms: C23_25  and  O23_43 
REMARK       I    between atoms: C26_28  and  C27_29 
REMARK       I    between atoms: C28_30  and  C29_31 
REMARK       I    between atoms: C30_32  and  C31_33 
REMARK       I    between atoms: C32_34  and  C33_35 
REMARK       I    between atoms: C34_36  and  C35_37 
ROOT
HETATM    1  C1  VFQ B1621     -47.964 145.873  12.637  1.00 16.49    -0.018 C 
HETATM    2  C2  VFQ B1621     -48.727 146.532  13.802  1.00 14.93     0.045 C 
HETATM    3  C3  VFQ B1621     -47.981 147.419  14.793  1.00 15.86     0.123 C 
HETATM    4  C4  VFQ B1621     -46.649 147.995  14.273  1.00 14.41     0.066 C 
HETATM    5  C5  VFQ B1621     -45.923 147.328  13.137  1.00 15.44    -0.074 C 
HETATM    6  C6  VFQ B1621     -46.504 146.353  12.350  1.00 14.73    -0.048 C 
HETATM    7  C7  VFQ B1621     -45.836 145.705  11.194  1.00 14.04     0.009 C 
HETATM    8  C8  VFQ B1621     -44.957 144.679  11.278  1.00 12.72     0.007 C 
HETATM    9  C9  VFQ B1621     -44.208 144.015  10.207  1.00 12.70    -0.062 C 
HETATM   10  C10 VFQ B1621     -43.490 142.918  10.540  1.00 13.26     0.007 C 
HETATM   11  C11 VFQ B1621     -42.759 142.047   9.648  1.00 13.12     0.001 C 
HETATM   12  C12 VFQ B1621     -42.132 140.936  10.103  1.00 12.34     0.007 C 
HETATM   13  C13 VFQ B1621     -41.464 139.900   9.292  1.00 12.89    -0.062 C 
HETATM   14  C14 VFQ B1621     -40.911 138.845   9.934  1.00 12.03     0.007 C 
HETATM   15  C15 VFQ B1621     -40.256 137.701   9.333  1.00 13.59     0.001 C 
HETATM   16  C16 VFQ B1621     -48.893 146.189  11.437  1.00 14.27     0.020 C 
HETATM   17  C17 VFQ B1621     -47.973 144.344  12.892  1.00 12.26     0.020 C 
HETATM   18  C18 VFQ B1621     -44.565 147.919  12.943  1.00 13.78     0.044 C 
HETATM   19  C19 VFQ B1621     -44.349 144.552   8.813  1.00  8.79     0.048 C 
HETATM   20  C20 VFQ B1621     -41.474 140.076   7.792  1.00  8.63     0.048 C 
HETATM   21  O3  VFQ B1621     -48.829 148.461  15.254  1.00 14.46    -0.395 OA
ATOM     22  H3  VFQ B1621     -48.364 149.014  15.871  1.00  0.00     0.210 HD
HETATM   23  C21 VFQ B1621     -34.205 126.699   6.440  1.00 90.34    -0.018 C 
HETATM   24  C22 VFQ B1621     -33.561 125.850   5.349  1.00 90.34     0.045 C 
HETATM   25  C23 VFQ B1621     -32.479 126.494   4.496  1.00 90.34     0.123 C 
HETATM   26  C24 VFQ B1621     -32.729 127.976   4.304  1.00 90.34     0.066 C 
HETATM   27  C25 VFQ B1621     -32.828 128.600   5.666  1.00 90.34    -0.074 C 
HETATM   28  C26 VFQ B1621     -33.653 128.101   6.584  1.00 90.34    -0.048 C 
HETATM   29  C27 VFQ B1621     -34.049 128.883   7.781  1.00 90.34     0.009 C 
HETATM   30  C28 VFQ B1621     -35.006 129.812   7.711  1.00 90.34     0.007 C 
HETATM   31  C29 VFQ B1621     -35.491 130.626   8.856  1.00 21.33    -0.062 C 
HETATM   32  C30 VFQ B1621     -36.431 131.570   8.623  1.00 19.38     0.007 C 
HETATM   33  C31 VFQ B1621     -37.004 132.461   9.605  1.00 19.44     0.001 C 
HETATM   34  C32 VFQ B1621     -37.785 133.508   9.227  1.00 17.56     0.007 C 
HETATM   35  C33 VFQ B1621     -38.400 134.554  10.059  1.00 14.52    -0.062 C 
HETATM   36  C34 VFQ B1621     -39.050 135.560   9.433  1.00 13.82     0.007 C 
HETATM   37  C35 VFQ B1621     -39.691 136.711  10.049  1.00 15.60     0.001 C 
HETATM   38  C36 VFQ B1621     -33.969 126.010   7.771  1.00 90.34     0.020 C 
HETATM   39  C37 VFQ B1621     -35.700 126.721   6.150  1.00 90.34     0.020 C 
HETATM   40  C38 VFQ B1621     -31.947 129.775   5.948  1.00 90.34     0.044 C 
HETATM   41  C39 VFQ B1621     -34.850 130.407  10.189  1.00 21.43     0.048 C 
HETATM   42  C40 VFQ B1621     -38.203 134.469  11.538  1.00 13.28     0.048 C 
HETATM   43  O23 VFQ B1621     -32.495 125.867   3.214  1.00 90.34    -0.395 OA
ATOM     44  H23 VFQ B1621     -32.339 124.938   3.334  1.00  0.00     0.210 HD
ENDROOT
TORSDOF 12
BEGIN_RES PHE A  61
REMARK  2 active torsions:
REMARK  status: ('A' for Active; 'I' for Inactive)
REMARK    1  A    between atoms: CA   and  CB  
REMARK    2  A    between atoms: CB   and  CG  
ROOT
ATOM      1  CA  PHE A  61     -36.237 128.293  12.768  1.00 39.40     0.164 C 
ENDROOT
BRANCH   1   2
ATOM      2  CB  PHE A  61     -36.813 128.951  11.509  1.00 39.41     0.058 C 
BRANCH   2   3
ATOM      3  CG  PHE A  61     -37.046 128.000  10.359  1.00 39.01    -0.020 A 
ATOM      4  CD2 PHE A  61     -38.000 128.274   9.392  1.00 40.32    -0.004 A 
ATOM      5  CE2 PHE A  61     -38.216 127.397   8.336  1.00 40.20    -0.000 A 
ATOM      6  CZ  PHE A  61     -37.478 126.240   8.234  1.00 40.34    -0.000 A 
ATOM      7  CE1 PHE A  61     -36.525 125.954   9.186  1.00 41.51    -0.000 A 
ATOM      8  CD1 PHE A  61     -36.313 126.828  10.245  1.00 39.94    -0.004 A 
ENDBRANCH   2   3
ENDBRANCH   1   2
END_RES PHE A  61
BEGIN_RES VAL A 134
REMARK  1 active torsions:
REMARK  status: ('A' for Active; 'I' for Inactive)
REMARK    3  A    between atoms: CA   and  CB  
ROOT
ATOM      9  CA  VAL A 134     -29.766 132.051   9.815  1.00 40.75     0.159 C 
ENDROOT
BRANCH   9  10
ATOM     10  CB  VAL A 134     -30.864 132.765   9.009  1.00 40.76     0.029 C 
ATOM     11  CG1 VAL A 134     -31.179 131.999   7.733  1.00 41.76     0.002 C 
ATOM     12  CG2 VAL A 134     -32.122 132.975   9.838  1.00 40.56     0.002 C 
ENDBRANCH   9  10
END_RES VAL A 134
BEGIN_RES TYR A 338
REMARK  3 active torsions:
REMARK  status: ('A' for Active; 'I' for Inactive)
REMARK    4  A    between atoms: CA   and  CB  
REMARK    5  A    between atoms: CB   and  CG  
REMARK    6  A    between atoms: CZ   and  OH  
ROOT
ATOM     13  CA  TYR A 338     -41.631 124.950   6.058  1.00 38.23     0.164 C 
ENDROOT
BRANCH  13  14
ATOM     14  CB  TYR A 338     -41.621 126.456   6.339  1.00 39.15     0.058 C 
BRANCH  14  15
ATOM     15  CG  TYR A 338     -40.401 127.206   5.856  1.00 39.03    -0.020 A 
ATOM     16  CD2 TYR A 338     -40.221 128.539   6.184  1.00 40.65    -0.002 A 
ATOM     17  CE2 TYR A 338     -39.123 129.261   5.745  1.00 40.91     0.024 A 
ATOM     18  CZ  TYR A 338     -38.169 128.647   4.954  1.00 42.33     0.089 A 
ATOM     19  CE1 TYR A 338     -38.324 127.314   4.617  1.00 40.63     0.024 A 
ATOM     20  CD1 TYR A 338     -39.437 126.613   5.055  1.00 39.27    -0.002 A 
BRANCH  18  21
ATOM     21  OH  TYR A 338     -37.080 129.349   4.519  1.00 43.36    -0.359 OA
ATOM     22  HH  TYR A 338     -36.500 128.978   3.864  1.00  0.00     0.217 HD
ENDBRANCH  18  21
ENDBRANCH  14  15
ENDBRANCH  13  14
END_RES TYR A 338
ENDMDL
MODEL 2
REMARK VINA RESULT:    -8.920      1.987      2.563
REMARK INTER + INTRA:         -12.127
REMARK INTER:                 -11.590
REMARK INTRA:                  -0.536
REMARK UNBOUND:                -3.207
REMARK  0 active torsions:
REMARK  status: ('A' for Active; 'I' for Inactive)
REMARK       I    between atoms: C3_3  and  O3_21 
REMARK       I    between atoms: C6_6  and  C7_7 
REMARK       I    between atoms: C8_8  and  C9_9 
REMARK       I    between atoms: C10_10  and  C11_11 
REMARK       I    between atoms: C12_12  and  C13_13 
REMARK       I    between atoms: C14_14  and  C15_15 
REMARK       I    between atoms: C23_25  and  O23_43 
REMARK       I    between atoms: C26_28  and  C27_29 
REMARK       I    between atoms: C28_30  and  C29_31 
REMARK       I    between atoms: C30_32  and  C31_33 
REMARK       I    between atoms: C32_34  and  C33_35 
REMARK       I    between atoms: C34_36  and  C35_37 
ROOT
HETATM    1  C1  VFQ B1621     -50.805 145.368   9.421  1.00 16.49    -0.018 C 
HETATM    2  C2  VFQ B1621     -51.900 145.933  10.346  1.00 14.93     0.045 C 
HETATM    3  C3  VFQ B1621     -51.524 146.901  11.464  1.00 15.86     0.123 C 
HETATM    4  C4  VFQ B1621     -50.180 147.630  11.266  1.00 14.41     0.066 C 
HETATM    5  C5  VFQ B1621     -49.128 147.053  10.359  1.00 15.44    -0.074 C 
HETATM    6  C6  VFQ B1621     -49.384 146.016   9.482  1.00 14.73    -0.048 C 
HETATM    7  C7  VFQ B1621     -48.385 145.452   8.541  1.00 14.04     0.009 C 
HETATM    8  C8  VFQ B1621     -47.442 144.537   8.864  1.00 12.72     0.007 C 
HETATM    9  C9  VFQ B1621     -46.384 143.966   8.026  1.00 12.70    -0.062 C 
HETATM   10  C10 VFQ B1621     -45.649 142.960   8.553  1.00 13.26     0.007 C 
HETATM   11  C11 VFQ B1621     -44.628 142.181   7.890  1.00 13.12     0.001 C 
HETATM   12  C12 VFQ B1621     -44.008 141.152   8.514  1.00 12.34     0.007 C 
HETATM   13  C13 VFQ B1621     -43.049 140.202   7.919  1.00 12.89    -0.062 C 
HETATM   14  C14 VFQ B1621     -42.553 139.218   8.705  1.00 12.03     0.007 C 
HETATM   15  C15 VFQ B1621     -41.645 138.160   8.313  1.00 13.59     0.001 C 
HETATM   16  C16 VFQ B1621     -51.444 145.574   8.023  1.00 14.27     0.020 C 
HETATM   17  C17 VFQ B1621     -50.702 143.849   9.709  1.00 12.26     0.020 C 
HETATM   18  C18 VFQ B1621     -47.840 147.799  10.482  1.00 13.78     0.044 C 
HETATM   19  C19 VFQ B1621     -46.241 144.483   6.625  1.00  8.79     0.048 C 
HETATM   20  C20 VFQ B1621     -42.713 140.376   6.457  1.00  8.63     0.048 C 
HETATM   21  O3  VFQ B1621     -52.572 147.835  11.676  1.00 14.46    -0.395 OA
ATOM     22  H3  VFQ B1621     -52.338 148.439  12.371  1.00  0.00     0.210 HD
HETATM   23  C21 VFQ B1621     -33.857 127.945   7.283  1.00 90.34    -0.018 C 
HETATM   24  C22 VFQ B1621     -32.874 127.179   6.405  1.00 90.34     0.045 C 
HETATM   25  C23 VFQ B1621     -31.698 127.945   5.821  1.00 90.34     0.123 C 
HETATM   26  C24 VFQ B1621     -32.060 129.388   5.533  1.00 90.34     0.066 C 
HETATM   27  C25 VFQ B1621     -32.559 129.996   6.812  1.00 90.34    -0.074 C 
HETATM   28  C26 VFQ B1621     -33.521 129.403   7.516  1.00 90.34    -0.048 C 
HETATM   29  C27 VFQ B1621     -34.283 130.132   8.559  1.00 90.34     0.009 C 
HETATM   30  C28 VFQ B1621     -35.293 130.943   8.234  1.00 90.34     0.007 C 
HETATM   31  C29 VFQ B1621     -36.133 131.693   9.204  1.00 21.33    -0.062 C 
HETATM   32  C30 VFQ B1621     -37.088 132.520   8.724  1.00 19.38     0.007 C 
HETATM   33  C31 VFQ B1621     -37.981 133.337   9.512  1.00 19.44     0.001 C 
HETATM   34  C32 VFQ B1621     -38.761 134.286   8.927  1.00 17.56     0.007 C 
HETATM   35  C33 VFQ B1621     -39.675 135.252   9.556  1.00 14.52    -0.062 C 
HETATM   36  C34 VFQ B1621     -40.264 136.175   8.763  1.00 13.82     0.007 C 
HETATM   37  C35 VFQ B1621     -41.162 137.243   9.172  1.00 15.60     0.001 C 
HETATM   38  C36 VFQ B1621     -33.876 127.289   8.650  1.00 90.34     0.020 C 
HETATM   39  C37 VFQ B1621     -35.229 127.792   6.639  1.00 90.34     0.020 C 
HETATM   40  C38 VFQ B1621     -31.914 131.266   7.266  1.00 90.34     0.044 C 
HETATM   41  C39 VFQ B1621     -35.815 131.551  10.658  1.00 21.43     0.048 C 
HETATM   42  C40 VFQ B1621     -39.837 135.190  11.040  1.00 13.28     0.048 C 
HETATM   43  O23 VFQ B1621     -31.329 127.322   4.592  1.00 90.34    -0.395 OA
ATOM     44  H23 VFQ B1621     -31.102 126.417   4.773  1.00  0.00     0.210 HD
ENDROOT
TORSDOF 12
BEGIN_RES PHE A  61
REMARK  2 active torsions:
REMARK  status: ('A' for Active; 'I' for Inactive)
REMARK    1  A    between atoms: CA   and  CB  
REMARK    2  A    between atoms: CB   and  CG  
ROOT
ATOM      1  CA  PHE A  61     -36.237 128.293  12.768  1.00 39.40     0.164 C 
ENDROOT
BRANCH   1   2
ATOM      2  CB  PHE A  61     -36.813 128.951  11.509  1.00 39.41     0.058 C 
BRANCH   2   3
ATOM      3  CG  PHE A  61     -37.022 128.005  10.351  1.00 39.01    -0.020 A 
ATOM      4  CD2 PHE A  61     -36.298 126.827  10.254  1.00 40.32    -0.004 A 
ATOM      5  CE2 PHE A  61     -36.489 125.960   9.186  1.00 40.20    -0.000 A 
ATOM      6  CZ  PHE A  61     -37.408 126.258   8.206  1.00 40.34    -0.000 A 
ATOM      7  CE1 PHE A  61     -38.137 127.423   8.288  1.00 41.51    -0.000 A 
ATOM      8  CD1 PHE A  61     -37.942 128.294   9.352  1.00 39.94    -0.004 A 
ENDBRANCH   2   3
ENDBRANCH   1   2
END_RES PHE A  61
BEGIN_RES VAL A 134
REMARK  1 active torsions:
REMARK  status: ('A' for Active; 'I' for Inactive)
REMARK    3  A    between atoms: CA   and  CB  
ROOT
ATOM      9  CA  VAL A 134     -29.766 132.051   9.815  1.00 40.75     0.159 C 
ENDROOT
BRANCH   9  10
ATOM     10  CB  VAL A 134     -30.864 132.765   9.009  1.00 40.76     0.029 C 
ATOM     11  CG1 VAL A 134     -32.119 132.944   9.850  1.00 41.76     0.002 C 
ATOM     12  CG2 VAL A 134     -30.382 134.102   8.466  1.00 40.56     0.002 C 
ENDBRANCH   9  10
END_RES VAL A 134
BEGIN_RES TYR A 338
REMARK  3 active torsions:
REMARK  status: ('A' for Active; 'I' for Inactive)
REMARK    4  A    between atoms: CA   and  CB  
REMARK    5  A    between atoms: CB   and  CG  
REMARK    6  A    between atoms: CZ   and  OH  
ROOT
ATOM     13  CA  TYR A 338     -41.631 124.950   6.058  1.00 38.23     0.164 C 
ENDROOT
BRANCH  13  14
ATOM     14  CB  TYR A 338     -41.621 126.456   6.339  1.00 39.15     0.058 C 
BRANCH  14  15
ATOM     15  CG  TYR A 338     -40.404 127.207   5.850  1.00 39.03    -0.020 A 
ATOM     16  CD2 TYR A 338     -40.233 128.545   6.162  1.00 40.65    -0.002 A 
ATOM     17  CE2 TYR A 338     -39.137 129.268   5.717  1.00 40.91     0.024 A 
ATOM     18  CZ  TYR A 338     -38.178 128.650   4.938  1.00 42.33     0.089 A 
ATOM     19  CE1 TYR A 338     -38.323 127.312   4.617  1.00 40.63     0.024 A 
ATOM     20  CD1 TYR A 338     -39.433 126.610   5.060  1.00 39.27    -0.002 A 
BRANCH  18  21
ATOM     21  OH  TYR A 338     -37.091 129.352   4.498  1.00 43.36    -0.359 OA
ATOM     22  HH  TYR A 338     -36.748 129.209   3.623  1.00  0.00     0.217 HD
ENDBRANCH  18  21
ENDBRANCH  14  15
ENDBRANCH  13  14
END_RES TYR A 338
ENDMDL
