MODEL 1
REMARK VINA RESULT:    -9.054      0.000      0.000
REMARK INTER + INTRA:         -11.614
REMARK INTER:                  -9.054
REMARK INTRA:                  -2.559
REMARK UNBOUND:                -2.559
REMARK  0 active torsions:
REMARK  status: ('A' for Active; 'I' for Inactive)
REMARK       I    between atoms: C3_3  and  O3_21 
REMARK       I    between atoms: C6_6  and  C7_7 
REMARK       I    between atoms: C8_8  and  C9_9 
REMARK       I    between atoms: C10_10  and  C11_11 
REMARK       I    between atoms: C12_12  and  C13_13 
REMARK       I    between atoms: C14_14  and  C15_15 
REMARK       I    between atoms: C23_25  and  O23_43 
REMARK       I    between atoms: C26_28  and  C27_29 
REMARK       I    between atoms: C28_30  and  C29_31 
REMARK       I    between atoms: C30_32  and  C31_33 
REMARK       I    between atoms: C32_34  and  C33_35 
REMARK       I    between atoms: C34_36  and  C35_37 
ROOT
HETATM    1  C1  VFQ S1620     -34.533 127.051   6.241  1.00 51.40    -0.018 C 
HETATM    2  C2  VFQ S1620     -34.179 126.498   4.869  1.00 51.40     0.045 C 
HETATM    3  C3  VFQ S1620     -32.915 126.984   4.172  1.00 51.40     0.123 C 
HETATM    4  C4  VFQ S1620     -31.958 127.693   5.105  1.00 51.40     0.066 C 
HETATM    5  C5  VFQ S1620     -32.706 128.695   5.921  1.00 51.40    -0.074 C 
HETATM    6  C6  VFQ S1620     -33.775 128.307   6.608  1.00 51.40    -0.048 C 
HETATM    7  C7  VFQ S1620     -34.243 129.084   7.770  1.00 51.40     0.009 C 
HETATM    8  C8  VFQ S1620     -34.977 130.172   7.591  1.00 51.40     0.007 C 
HETATM    9  C9  VFQ S1620     -35.480 130.942   8.725  1.00 51.40    -0.062 C 
HETATM   10  C10 VFQ S1620     -36.177 132.033   8.417  1.00 51.40     0.007 C 
HETATM   11  C11 VFQ S1620     -36.803 132.934   9.363  1.00 51.40     0.001 C 
HETATM   12  C12 VFQ S1620     -37.690 133.718   8.777  1.00 51.40     0.007 C 
HETATM   13  C13 VFQ S1620     -38.505 134.706   9.480  1.00 51.40    -0.062 C 
HETATM   14  C14 VFQ S1620     -39.439 135.336   8.766  1.00 51.40     0.007 C 
HETATM   15  C15 VFQ S1620     -40.343 136.299   9.364  1.00 51.40     0.001 C 
HETATM   16  C16 VFQ S1620     -34.335 125.937   7.261  1.00 51.40     0.020 C 
HETATM   17  C17 VFQ S1620     -36.008 127.412   6.230  1.00 51.40     0.020 C 
HETATM   18  C18 VFQ S1620     -31.662 129.602   6.495  1.00 51.40     0.044 C 
HETATM   19  C19 VFQ S1620     -35.219 130.495  10.130  1.00 51.40     0.048 C 
HETATM   20  C20 VFQ S1620     -38.301 134.973  10.934  1.00 51.40     0.048 C 
HETATM   21  O3  VFQ S1620     -32.226 125.850   3.642  1.00 51.40    -0.395 OA
ATOM     22  H3  VFQ S1620     -31.437 126.154   3.208  1.00  0.00     0.210 HD
HETATM   23  C21 VFQ S1620     -49.954 143.101  12.551  1.00 32.28    -0.018 C 
HETATM   24  C22 VFQ S1620     -50.884 143.850  13.490  1.00 32.10     0.045 C 
HETATM   25  C23 VFQ S1620     -50.765 145.357  13.511  1.00 30.03     0.123 C 
HETATM   26  C24 VFQ S1620     -49.335 145.818  13.515  1.00 27.01     0.066 C 
HETATM   27  C25 VFQ S1620     -48.551 145.182  12.410  1.00 26.85    -0.074 C 
HETATM   28  C26 VFQ S1620     -48.852 143.960  11.939  1.00 32.38    -0.048 C 
HETATM   29  C27 VFQ S1620     -48.102 143.421  10.778  1.00 31.45     0.009 C 
HETATM   30  C28 VFQ S1620     -47.023 142.660  10.955  1.00 30.07     0.007 C 
HETATM   31  C29 VFQ S1620     -46.248 142.106   9.858  1.00 51.40    -0.062 C 
HETATM   32  C30 VFQ S1620     -45.595 140.962  10.074  1.00 51.40     0.007 C 
HETATM   33  C31 VFQ S1620     -44.807 140.275   9.064  1.00 51.40     0.001 C 
HETATM   34  C32 VFQ S1620     -43.973 139.352   9.517  1.00 51.40     0.007 C 
HETATM   35  C33 VFQ S1620     -43.117 138.531   8.651  1.00 51.40    -0.062 C 
HETATM   36  C34 VFQ S1620     -42.206 137.774   9.266  1.00 51.40     0.007 C 
HETATM   37  C35 VFQ S1620     -41.290 136.855   8.615  1.00 51.40     0.001 C 
HETATM   38  C36 VFQ S1620     -50.785 142.538  11.407  1.00 30.09     0.020 C 
HETATM   39  C37 VFQ S1620     -49.415 141.944  13.388  1.00 35.00     0.020 C 
HETATM   40  C38 VFQ S1620     -47.410 146.008  11.900  1.00 25.72     0.044 C 
HETATM   41  C39 VFQ S1620     -46.197 142.801   8.535  1.00 51.40     0.048 C 
HETATM   42  C40 VFQ S1620     -43.289 138.531   7.165  1.00 51.40     0.048 C 
HETATM   43  O23 VFQ S1620     -51.363 145.836  14.717  1.00 33.60    -0.395 OA
ATOM     44  H23 VFQ S1620     -52.266 145.545  14.715  1.00  0.00     0.210 HD
ENDROOT
TORSDOF 12
BEGIN_RES PHE A  61
REMARK  2 active torsions:
REMARK  status: ('A' for Active; 'I' for Inactive)
REMARK    1  A    between atoms: CA   and  CB  
REMARK    2  A    between atoms: CB   and  CG  
ROOT
ATOM      1  CA  PHE A  61     -36.237 128.293  12.768  1.00 39.40     0.164 C 
ENDROOT
BRANCH   1   2
ATOM      2  CB  PHE A  61     -36.813 128.951  11.509  1.00 39.41     0.058 C 
BRANCH   2   3
ATOM      3  CG  PHE A  61     -37.067 127.997  10.367  1.00 39.01    -0.020 A 
ATOM      4  CD2 PHE A  61     -36.316 126.841  10.224  1.00 40.32    -0.004 A 
ATOM      5  CE2 PHE A  61     -36.549 125.965   9.171  1.00 40.20    -0.000 A 
ATOM      6  CZ  PHE A  61     -37.537 126.233   8.252  1.00 40.34    -0.000 A 
ATOM      7  CE1 PHE A  61     -38.294 127.377   8.380  1.00 41.51    -0.000 A 
ATOM      8  CD1 PHE A  61     -38.057 128.255   9.429  1.00 39.94    -0.004 A 
ENDBRANCH   2   3
ENDBRANCH   1   2
END_RES PHE A  61
BEGIN_RES VAL A 134
REMARK  1 active torsions:
REMARK  status: ('A' for Active; 'I' for Inactive)
REMARK    3  A    between atoms: CA   and  CB  
ROOT
ATOM      9  CA  VAL A 134     -29.766 132.051   9.815  1.00 40.75     0.159 C 
ENDROOT
BRANCH   9  10
ATOM     10  CB  VAL A 134     -30.864 132.765   9.009  1.00 40.76     0.029 C 
ATOM     11  CG1 VAL A 134     -30.902 132.250   7.578  1.00 41.76     0.002 C 
ATOM     12  CG2 VAL A 134     -32.227 132.625   9.670  1.00 40.56     0.002 C 
ENDBRANCH   9  10
END_RES VAL A 134
BEGIN_RES TYR A 338
REMARK  3 active torsions:
REMARK  status: ('A' for Active; 'I' for Inactive)
REMARK    4  A    between atoms: CA   and  CB  
REMARK    5  A    between atoms: CB   and  CG  
REMARK    6  A    between atoms: CZ   and  OH  
ROOT
ATOM     13  CA  TYR A 338     -41.631 124.950   6.058  1.00 38.23     0.164 C 
ENDROOT
BRANCH  13  14
ATOM     14  CB  TYR A 338     -41.621 126.456   6.339  1.00 39.15     0.058 C 
BRANCH  14  15
ATOM     15  CG  TYR A 338     -40.424 127.214   5.813  1.00 39.03    -0.020 A 
ATOM     16  CD2 TYR A 338     -40.243 128.549   6.132  1.00 40.65    -0.002 A 
ATOM     17  CE2 TYR A 338     -39.166 129.278   5.655  1.00 40.91     0.024 A 
ATOM     18  CZ  TYR A 338     -38.235 128.670   4.833  1.00 42.33     0.089 A 
ATOM     19  CE1 TYR A 338     -38.391 127.335   4.504  1.00 40.63     0.024 A 
ATOM     20  CD1 TYR A 338     -39.483 126.627   4.981  1.00 39.27    -0.002 A 
BRANCH  18  21
ATOM     21  OH  TYR A 338     -37.166 129.379   4.360  1.00 43.36    -0.359 OA
ATOM     22  HH  TYR A 338     -37.128 129.639   3.447  1.00  0.00     0.217 HD
ENDBRANCH  18  21
ENDBRANCH  14  15
ENDBRANCH  13  14
END_RES TYR A 338
ENDMDL
MODEL 2
REMARK VINA RESULT:    -7.059      1.428     16.589
REMARK INTER + INTRA:          -9.618
REMARK INTER:                  -5.077
REMARK INTRA:                  -4.541
REMARK UNBOUND:                -2.559
REMARK  0 active torsions:
REMARK  status: ('A' for Active; 'I' for Inactive)
REMARK       I    between atoms: C3_3  and  O3_21 
REMARK       I    between atoms: C6_6  and  C7_7 
REMARK       I    between atoms: C8_8  and  C9_9 
REMARK       I    between atoms: C10_10  and  C11_11 
REMARK       I    between atoms: C12_12  and  C13_13 
REMARK       I    between atoms: C14_14  and  C15_15 
REMARK       I    between atoms: C23_25  and  O23_43 
REMARK       I    between atoms: C26_28  and  C27_29 
REMARK       I    between atoms: C28_30  and  C29_31 
REMARK       I    between atoms: C30_32  and  C31_33 
REMARK       I    between atoms: C32_34  and  C33_35 
REMARK       I    between atoms: C34_36  and  C35_37 
ROOT
HETATM    1  C1  VFQ S1620     -48.133 145.020  12.258  1.00 51.40    -0.018 C 
HETATM    2  C2  VFQ S1620     -48.811 145.271  13.597  1.00 51.40     0.045 C 
HETATM    3  C3  VFQ S1620     -48.190 146.262  14.574  1.00 51.40     0.123 C 
HETATM    4  C4  VFQ S1620     -47.160 147.163  13.931  1.00 51.40     0.066 C 
HETATM    5  C5  VFQ S1620     -46.219 146.342  13.112  1.00 51.40    -0.074 C 
HETATM    6  C6  VFQ S1620     -46.705 145.514  12.194  1.00 51.40    -0.048 C 
HETATM    7  C7  VFQ S1620     -45.868 145.069  11.066  1.00 51.40     0.009 C 
HETATM    8  C8  VFQ S1620     -44.998 144.083  11.231  1.00 51.40     0.007 C 
HETATM    9  C9  VFQ S1620     -44.179 143.601  10.122  1.00 51.40    -0.062 C 
HETATM   10  C10 VFQ S1620     -43.320 142.631  10.421  1.00 51.40     0.007 C 
HETATM   11  C11 VFQ S1620     -42.430 141.970   9.488  1.00 51.40     0.001 C 
HETATM   12  C12 VFQ S1620     -41.949 140.845   9.985  1.00 51.40     0.007 C 
HETATM   13  C13 VFQ S1620     -41.053 139.944   9.263  1.00 51.40    -0.062 C 
HETATM   14  C14 VFQ S1620     -40.751 138.789   9.857  1.00 51.40     0.007 C 
HETATM   15  C15 VFQ S1620     -39.914 137.792   9.218  1.00 51.40     0.001 C 
HETATM   16  C16 VFQ S1620     -49.006 145.630  11.169  1.00 51.40     0.020 C 
HETATM   17  C17 VFQ S1620     -48.092 143.519  12.033  1.00 51.40     0.020 C 
HETATM   18  C18 VFQ S1620     -45.036 147.224  12.859  1.00 51.40     0.044 C 
HETATM   19  C19 VFQ S1620     -44.334 144.178   8.750  1.00 51.40     0.048 C 
HETATM   20  C20 VFQ S1620     -40.523 140.308   7.916  1.00 51.40     0.048 C 
HETATM   21  O3  VFQ S1620     -49.226 147.102  15.085  1.00 51.40    -0.395 OA
ATOM     22  H3  VFQ S1620     -48.838 147.720  15.694  1.00  0.00     0.210 HD
HETATM   23  C21 VFQ S1620     -34.834 127.494   5.103  1.00 32.28    -0.018 C 
HETATM   24  C22 VFQ S1620     -34.154 126.576   4.102  1.00 32.10     0.045 C 
HETATM   25  C23 VFQ S1620     -32.672 126.344   4.284  1.00 30.03     0.123 C 
HETATM   26  C24 VFQ S1620     -31.930 127.610   4.605  1.00 27.01     0.066 C 
HETATM   27  C25 VFQ S1620     -32.556 128.336   5.754  1.00 26.85    -0.074 C 
HETATM   28  C26 VFQ S1620     -33.873 128.255   6.011  1.00 32.38    -0.048 C 
HETATM   29  C27 VFQ S1620     -34.422 128.917   7.220  1.00 31.45     0.009 C 
HETATM   30  C28 VFQ S1620     -34.905 130.157   7.161  1.00 30.07     0.007 C 
HETATM   31  C29 VFQ S1620     -35.453 130.856   8.311  1.00 51.40    -0.062 C 
HETATM   32  C30 VFQ S1620     -36.388 131.782   8.088  1.00 51.40     0.007 C 
HETATM   33  C31 VFQ S1620     -37.048 132.539   9.140  1.00 51.40     0.001 C 
HETATM   34  C32 VFQ S1620     -37.694 133.624   8.746  1.00 51.40     0.007 C 
HETATM   35  C33 VFQ S1620     -38.447 134.500   9.654  1.00 51.40    -0.062 C 
HETATM   36  C34 VFQ S1620     -38.891 135.646   9.137  1.00 51.40     0.007 C 
HETATM   37  C35 VFQ S1620     -39.692 136.636   9.835  1.00 51.40     0.001 C 
HETATM   38  C36 VFQ S1620     -35.730 126.646   5.994  1.00 30.09     0.020 C 
HETATM   39  C37 VFQ S1620     -35.706 128.412   4.251  1.00 35.00     0.020 C 
HETATM   40  C38 VFQ S1620     -31.604 129.158   6.566  1.00 25.72     0.044 C 
HETATM   41  C39 VFQ S1620     -34.981 130.534   9.693  1.00 51.40     0.048 C 
HETATM   42  C40 VFQ S1620     -38.718 134.100  11.070  1.00 51.40     0.048 C 
HETATM   43  O23 VFQ S1620     -32.142 125.850   3.052  1.00 33.60    -0.395 OA
ATOM     44  H23 VFQ S1620     -32.611 125.050   2.848  1.00  0.00     0.210 HD
ENDROOT
TORSDOF 12
BEGIN_RES PHE A  61
REMARK  2 active torsions:
REMARK  status: ('A' for Active; 'I' for Inactive)
REMARK    1  A    between atoms: CA   and  CB  
REMARK    2  A    between atoms: CB   and  CG  
ROOT
ATOM      1  CA  PHE A  61     -36.237 128.293  12.768  1.00 39.40     0.164 C 
ENDROOT
BRANCH   1   2
ATOM      2  CB  PHE A  61     -36.813 128.951  11.509  1.00 39.41     0.058 C 
BRANCH   2   3
ATOM      3  CG  PHE A  61     -36.867 128.046  10.301  1.00 39.01    -0.020 A 
ATOM      4  CD2 PHE A  61     -35.909 127.064  10.104  1.00 40.32    -0.004 A 
ATOM      5  CE2 PHE A  61     -35.958 126.235   8.991  1.00 40.20    -0.000 A 
ATOM      6  CZ  PHE A  61     -36.967 126.375   8.065  1.00 40.34    -0.000 A 
ATOM      7  CE1 PHE A  61     -37.928 127.344   8.248  1.00 41.51    -0.000 A 
ATOM      8  CD1 PHE A  61     -37.876 128.178   9.357  1.00 39.94    -0.004 A 
ENDBRANCH   2   3
ENDBRANCH   1   2
END_RES PHE A  61
BEGIN_RES VAL A 134
REMARK  1 active torsions:
REMARK  status: ('A' for Active; 'I' for Inactive)
REMARK    3  A    between atoms: CA   and  CB  
ROOT
ATOM      9  CA  VAL A 134     -29.766 132.051   9.815  1.00 40.75     0.159 C 
ENDROOT
BRANCH   9  10
ATOM     10  CB  VAL A 134     -30.864 132.765   9.009  1.00 40.76     0.029 C 
ATOM     11  CG1 VAL A 134     -31.159 132.014   7.719  1.00 41.76     0.002 C 
ATOM     12  CG2 VAL A 134     -32.132 132.950   9.829  1.00 40.56     0.002 C 
ENDBRANCH   9  10
END_RES VAL A 134
BEGIN_RES TYR A 338
REMARK  3 active torsions:
REMARK  status: ('A' for Active; 'I' for Inactive)
REMARK    4  A    between atoms: CA   and  CB  
REMARK    5  A    between atoms: CB   and  CG  
REMARK    6  A    between atoms: CZ   and  OH  
ROOT
ATOM     13  CA  TYR A 338     -41.631 124.950   6.058  1.00 38.23     0.164 C 
ENDROOT
BRANCH  13  14
ATOM     14  CB  TYR A 338     -41.621 126.456   6.339  1.00 39.15     0.058 C 
BRANCH  14  15
ATOM     15  CG  TYR A 338     -40.442 127.220   5.781  1.00 39.03    -0.020 A 
ATOM     16  CD2 TYR A 338     -40.229 128.540   6.139  1.00 40.65    -0.002 A 
ATOM     17  CE2 TYR A 338     -39.168 129.275   5.634  1.00 40.91     0.024 A 
ATOM     18  CZ  TYR A 338     -38.288 128.688   4.745  1.00 42.33     0.089 A 
ATOM     19  CE1 TYR A 338     -38.477 127.368   4.375  1.00 40.63     0.024 A 
ATOM     20  CD1 TYR A 338     -39.552 126.654   4.881  1.00 39.27    -0.002 A 
BRANCH  18  21
ATOM     21  OH  TYR A 338     -37.235 129.402   4.244  1.00 43.36    -0.359 OA
ATOM     22  HH  TYR A 338     -36.391 128.987   4.115  1.00  0.00     0.217 HD
ENDBRANCH  18  21
ENDBRANCH  14  15
ENDBRANCH  13  14
END_RES TYR A 338
ENDMDL
