MODEL 1
REMARK VINA RESULT:    -9.289      0.000      0.000
REMARK INTER + INTRA:         -12.131
REMARK INTER:                  -9.289
REMARK INTRA:                  -2.842
REMARK UNBOUND:                -2.842
REMARK  0 active torsions:
REMARK  status: ('A' for Active; 'I' for Inactive)
REMARK       I    between atoms: C3_3  and  O3_21 
REMARK       I    between atoms: C6_6  and  C7_7 
REMARK       I    between atoms: C8_8  and  C9_9 
REMARK       I    between atoms: C10_10  and  C11_11 
REMARK       I    between atoms: C12_12  and  C13_13 
REMARK       I    between atoms: C14_14  and  C15_15 
REMARK       I    between atoms: C23_25  and  O23_43 
REMARK       I    between atoms: C26_28  and  C27_29 
REMARK       I    between atoms: C28_30  and  C29_31 
REMARK       I    between atoms: C30_32  and  C31_33 
REMARK       I    between atoms: C32_34  and  C33_35 
REMARK       I    between atoms: C34_36  and  C35_37 
ROOT
HETATM    1  C1  VFQ 51620     -34.424 127.758   6.530  1.00 94.67    -0.018 C 
HETATM    2  C2  VFQ 51620     -33.757 127.389   5.212  1.00 94.67     0.045 C 
HETATM    3  C3  VFQ 51620     -32.451 128.088   4.895  1.00 94.67     0.123 C 
HETATM    4  C4  VFQ 51620     -31.592 128.103   6.131  1.00 94.67     0.066 C 
HETATM    5  C5  VFQ 51620     -32.297 128.839   7.227  1.00 94.67    -0.074 C 
HETATM    6  C6  VFQ 51620     -33.606 128.674   7.421  1.00 94.67    -0.048 C 
HETATM    7  C7  VFQ 51620     -34.305 129.373   8.526  1.00 94.67     0.009 C 
HETATM    8  C8  VFQ 51620     -34.816 130.590   8.358  1.00 94.67     0.007 C 
HETATM    9  C9  VFQ 51620     -35.530 131.310   9.412  1.00 94.67    -0.062 C 
HETATM   10  C10 VFQ 51620     -36.038 132.488   9.063  1.00 94.67     0.007 C 
HETATM   11  C11 VFQ 51620     -36.802 133.345   9.950  1.00 94.67     0.001 C 
HETATM   12  C12 VFQ 51620     -37.492 134.263   9.294  1.00 94.67     0.007 C 
HETATM   13  C13 VFQ 51620     -38.371 135.241   9.931  1.00 94.67    -0.062 C 
HETATM   14  C14 VFQ 51620     -39.068 136.026   9.114  1.00 94.67     0.007 C 
HETATM   15  C15 VFQ 51620     -40.015 137.030   9.572  1.00 94.67     0.001 C 
HETATM   16  C16 VFQ 51620     -34.732 126.437   7.228  1.00 94.67     0.020 C 
HETATM   17  C17 VFQ 51620     -35.717 128.490   6.201  1.00 94.67     0.020 C 
HETATM   18  C18 VFQ 51620     -31.442 129.707   8.102  1.00 94.67     0.044 C 
HETATM   19  C19 VFQ 51620     -35.677 130.745  10.791  1.00 94.67     0.048 C 
HETATM   20  C20 VFQ 51620     -38.488 135.327  11.419  1.00 94.67     0.048 C 
HETATM   21  O3  VFQ 51620     -31.767 127.343   3.888  1.00 94.67    -0.395 OA
ATOM     22  H3  VFQ 51620     -30.947 127.782   3.689  1.00  0.00     0.210 HD
HETATM   23  C21 VFQ 51620     -49.708 144.726   9.670  1.00 73.56    -0.018 C 
HETATM   24  C22 VFQ 51620     -50.637 145.709  10.386  1.00 73.56     0.045 C 
HETATM   25  C23 VFQ 51620     -50.080 147.070  10.791  1.00 73.56     0.123 C 
HETATM   26  C24 VFQ 51620     -48.594 146.992  11.107  1.00 73.56     0.066 C 
HETATM   27  C25 VFQ 51620     -47.904 146.429   9.893  1.00 73.56    -0.074 C 
HETATM   28  C26 VFQ 51620     -48.325 145.278   9.357  1.00 73.56    -0.048 C 
HETATM   29  C27 VFQ 51620     -47.453 144.535   8.414  1.00 73.56     0.009 C 
HETATM   30  C28 VFQ 51620     -46.507 143.686   8.821  1.00 73.56     0.007 C 
HETATM   31  C29 VFQ 51620     -45.658 142.961   7.863  1.00 94.67    -0.062 C 
HETATM   32  C30 VFQ 51620     -44.930 141.977   8.386  1.00 94.67     0.007 C 
HETATM   33  C31 VFQ 51620     -44.014 141.119   7.657  1.00 94.67     0.001 C 
HETATM   34  C32 VFQ 51620     -43.290 140.376   8.474  1.00 94.67     0.007 C 
HETATM   35  C33 VFQ 51620     -42.277 139.413   8.048  1.00 94.67    -0.062 C 
HETATM   36  C34 VFQ 51620     -41.754 138.613   8.981  1.00 94.67     0.007 C 
HETATM   37  C35 VFQ 51620     -40.755 137.614   8.639  1.00 94.67     0.001 C 
HETATM   38  C36 VFQ 51620     -50.346 144.349   8.338  1.00 73.56     0.020 C 
HETATM   39  C37 VFQ 51620     -49.609 143.471  10.537  1.00 73.56     0.020 C 
HETATM   40  C38 VFQ 51620     -46.771 147.210   9.289  1.00 73.56     0.044 C 
HETATM   41  C39 VFQ 51620     -45.621 143.303   6.408  1.00 94.67     0.048 C 
HETATM   42  C40 VFQ 51620     -41.838 139.354   6.621  1.00 94.67     0.048 C 
HETATM   43  O23 VFQ 51620     -50.783 147.535  11.950  1.00 73.56    -0.395 OA
ATOM     44  H23 VFQ 51620     -50.436 148.383  12.202  1.00  0.00     0.210 HD
ENDROOT
TORSDOF 12
BEGIN_RES PHE A  61
REMARK  2 active torsions:
REMARK  status: ('A' for Active; 'I' for Inactive)
REMARK    1  A    between atoms: CA   and  CB  
REMARK    2  A    between atoms: CB   and  CG  
ROOT
ATOM      1  CA  PHE A  61     -36.237 128.293  12.768  1.00 39.40     0.164 C 
ENDROOT
BRANCH   1   2
ATOM      2  CB  PHE A  61     -36.813 128.951  11.509  1.00 39.41     0.058 C 
BRANCH   2   3
ATOM      3  CG  PHE A  61     -37.038 128.002  10.356  1.00 39.01    -0.020 A 
ATOM      4  CD2 PHE A  61     -36.303 126.833  10.243  1.00 40.32    -0.004 A 
ATOM      5  CE2 PHE A  61     -36.509 125.962   9.180  1.00 40.20    -0.000 A 
ATOM      6  CZ  PHE A  61     -37.455 126.248   8.222  1.00 40.34    -0.000 A 
ATOM      7  CE1 PHE A  61     -38.196 127.405   8.322  1.00 41.51    -0.000 A 
ATOM      8  CD1 PHE A  61     -37.985 128.279   9.380  1.00 39.94    -0.004 A 
ENDBRANCH   2   3
ENDBRANCH   1   2
END_RES PHE A  61
BEGIN_RES VAL A 134
REMARK  1 active torsions:
REMARK  status: ('A' for Active; 'I' for Inactive)
REMARK    3  A    between atoms: CA   and  CB  
ROOT
ATOM      9  CA  VAL A 134     -29.766 132.051   9.815  1.00 40.75     0.159 C 
ENDROOT
BRANCH   9  10
ATOM     10  CB  VAL A 134     -30.864 132.765   9.009  1.00 40.76     0.029 C 
ATOM     11  CG1 VAL A 134     -30.921 132.229   7.586  1.00 41.76     0.002 C 
ATOM     12  CG2 VAL A 134     -32.222 132.649   9.685  1.00 40.56     0.002 C 
ENDBRANCH   9  10
END_RES VAL A 134
BEGIN_RES TYR A 338
REMARK  3 active torsions:
REMARK  status: ('A' for Active; 'I' for Inactive)
REMARK    4  A    between atoms: CA   and  CB  
REMARK    5  A    between atoms: CB   and  CG  
REMARK    6  A    between atoms: CZ   and  OH  
ROOT
ATOM     13  CA  TYR A 338     -41.631 124.950   6.058  1.00 38.23     0.164 C 
ENDROOT
BRANCH  13  14
ATOM     14  CB  TYR A 338     -41.621 126.456   6.339  1.00 39.15     0.058 C 
BRANCH  14  15
ATOM     15  CG  TYR A 338     -40.428 127.215   5.806  1.00 39.03    -0.020 A 
ATOM     16  CD2 TYR A 338     -40.272 128.562   6.085  1.00 40.65    -0.002 A 
ATOM     17  CE2 TYR A 338     -39.198 129.293   5.600  1.00 40.91     0.024 A 
ATOM     18  CZ  TYR A 338     -38.248 128.674   4.811  1.00 42.33     0.089 A 
ATOM     19  CE1 TYR A 338     -38.379 127.327   4.521  1.00 40.63     0.024 A 
ATOM     20  CD1 TYR A 338     -39.467 126.617   5.005  1.00 39.27    -0.002 A 
BRANCH  18  21
ATOM     21  OH  TYR A 338     -37.183 129.383   4.330  1.00 43.36    -0.359 OA
ATOM     22  HH  TYR A 338     -36.977 129.372   3.402  1.00  0.00     0.217 HD
ENDBRANCH  18  21
ENDBRANCH  14  15
ENDBRANCH  13  14
END_RES TYR A 338
ENDMDL
MODEL 2
REMARK VINA RESULT:    -6.544      1.264     16.442
REMARK INTER + INTRA:          -9.386
REMARK INTER:                  -9.032
REMARK INTRA:                  -0.354
REMARK UNBOUND:                -2.842
REMARK  0 active torsions:
REMARK  status: ('A' for Active; 'I' for Inactive)
REMARK       I    between atoms: C3_3  and  O3_21 
REMARK       I    between atoms: C6_6  and  C7_7 
REMARK       I    between atoms: C8_8  and  C9_9 
REMARK       I    between atoms: C10_10  and  C11_11 
REMARK       I    between atoms: C12_12  and  C13_13 
REMARK       I    between atoms: C14_14  and  C15_15 
REMARK       I    between atoms: C23_25  and  O23_43 
REMARK       I    between atoms: C26_28  and  C27_29 
REMARK       I    between atoms: C28_30  and  C29_31 
REMARK       I    between atoms: C30_32  and  C31_33 
REMARK       I    between atoms: C32_34  and  C33_35 
REMARK       I    between atoms: C34_36  and  C35_37 
ROOT
HETATM    1  C1  VFQ 51620     -50.196 144.172  11.778  1.00 94.67    -0.018 C 
HETATM    2  C2  VFQ 51620     -50.789 144.444  13.154  1.00 94.67     0.045 C 
HETATM    3  C3  VFQ 51620     -50.082 145.480  14.003  1.00 94.67     0.123 C 
HETATM    4  C4  VFQ 51620     -49.741 146.667  13.144  1.00 94.67     0.066 C 
HETATM    5  C5  VFQ 51620     -48.840 146.240  12.027  1.00 94.67    -0.074 C 
HETATM    6  C6  VFQ 51620     -49.054 145.090  11.386  1.00 94.67    -0.048 C 
HETATM    7  C7  VFQ 51620     -48.187 144.678  10.256  1.00 94.67     0.009 C 
HETATM    8  C8  VFQ 51620     -47.074 143.977  10.462  1.00 94.67     0.007 C 
HETATM    9  C9  VFQ 51620     -46.199 143.531   9.378  1.00 94.67    -0.062 C 
HETATM   10  C10 VFQ 51620     -45.163 142.783   9.745  1.00 94.67     0.007 C 
HETATM   11  C11 VFQ 51620     -44.193 142.220   8.824  1.00 94.67     0.001 C 
HETATM   12  C12 VFQ 51620     -43.489 141.242   9.369  1.00 94.67     0.007 C 
HETATM   13  C13 VFQ 51620     -42.464 140.477   8.664  1.00 94.67    -0.062 C 
HETATM   14  C14 VFQ 51620     -41.924 139.460   9.332  1.00 94.67     0.007 C 
HETATM   15  C15 VFQ 51620     -40.917 138.572   8.775  1.00 94.67     0.001 C 
HETATM   16  C16 VFQ 51620     -51.355 144.279  10.793  1.00 94.67     0.020 C 
HETATM   17  C17 VFQ 51620     -49.646 142.753  11.788  1.00 94.67     0.020 C 
HETATM   18  C18 VFQ 51620     -47.745 147.195  11.653  1.00 94.67     0.044 C 
HETATM   19  C19 VFQ 51620     -46.465 143.895   7.950  1.00 94.67     0.048 C 
HETATM   20  C20 VFQ 51620     -42.070 140.813   7.261  1.00 94.67     0.048 C 
HETATM   21  O3  VFQ 51620     -50.973 145.916  15.029  1.00 94.67    -0.395 OA
ATOM     22  H3  VFQ 51620     -50.529 146.565  15.562  1.00  0.00     0.210 HD
HETATM   23  C21 VFQ 51620     -34.099 128.420   6.866  1.00 73.56    -0.018 C 
HETATM   24  C22 VFQ 51620     -33.055 127.631   6.072  1.00 73.56     0.045 C 
HETATM   25  C23 VFQ 51620     -31.602 128.094   6.124  1.00 73.56     0.123 C 
HETATM   26  C24 VFQ 51620     -31.503 129.600   6.307  1.00 73.56     0.066 C 
HETATM   27  C25 VFQ 51620     -32.261 129.952   7.559  1.00 73.56    -0.074 C 
HETATM   28  C26 VFQ 51620     -33.527 129.549   7.711  1.00 73.56    -0.048 C 
HETATM   29  C27 VFQ 51620     -34.390 130.182   8.740  1.00 73.56     0.009 C 
HETATM   30  C28 VFQ 51620     -35.062 131.315   8.522  1.00 73.56     0.007 C 
HETATM   31  C29 VFQ 51620     -35.911 131.918   9.560  1.00 94.67    -0.062 C 
HETATM   32  C30 VFQ 51620     -36.706 132.900   9.139  1.00 94.67     0.007 C 
HETATM   33  C31 VFQ 51620     -37.631 133.655   9.964  1.00 94.67     0.001 C 
HETATM   34  C32 VFQ 51620     -38.128 134.691   9.312  1.00 94.67     0.007 C 
HETATM   35  C33 VFQ 51620     -39.084 135.645   9.868  1.00 94.67    -0.062 C 
HETATM   36  C34 VFQ 51620     -39.626 136.535   9.032  1.00 94.67     0.007 C 
HETATM   37  C35 VFQ 51620     -40.601 137.507   9.500  1.00 94.67     0.001 C 
HETATM   38  C36 VFQ 51620     -34.797 127.461   7.823  1.00 73.56     0.020 C 
HETATM   39  C37 VFQ 51620     -35.128 128.953   5.871  1.00 73.56     0.020 C 
HETATM   40  C38 VFQ 51620     -31.548 130.725   8.632  1.00 73.56     0.044 C 
HETATM   41  C39 VFQ 51620     -35.887 131.457  10.983  1.00 94.67     0.048 C 
HETATM   42  C40 VFQ 51620     -39.415 135.627  11.325  1.00 94.67     0.048 C 
HETATM   43  O23 VFQ 51620     -30.952 127.725   4.901  1.00 73.56    -0.395 OA
ATOM     44  H23 VFQ 51620     -30.047 128.012   4.933  1.00  0.00     0.210 HD
ENDROOT
TORSDOF 12
BEGIN_RES PHE A  61
REMARK  2 active torsions:
REMARK  status: ('A' for Active; 'I' for Inactive)
REMARK    1  A    between atoms: CA   and  CB  
REMARK    2  A    between atoms: CB   and  CG  
ROOT
ATOM      1  CA  PHE A  61     -36.237 128.293  12.768  1.00 39.40     0.164 C 
ENDROOT
BRANCH   1   2
ATOM      2  CB  PHE A  61     -36.813 128.951  11.509  1.00 39.41     0.058 C 
BRANCH   2   3
ATOM      3  CG  PHE A  61     -37.032 128.003  10.354  1.00 39.01    -0.020 A 
ATOM      4  CD2 PHE A  61     -36.304 126.828  10.250  1.00 40.32    -0.004 A 
ATOM      5  CE2 PHE A  61     -36.505 125.959   9.185  1.00 40.20    -0.000 A 
ATOM      6  CZ  PHE A  61     -37.437 126.252   8.216  1.00 40.34    -0.000 A 
ATOM      7  CE1 PHE A  61     -38.170 127.414   8.306  1.00 41.51    -0.000 A 
ATOM      8  CD1 PHE A  61     -37.965 128.287   9.367  1.00 39.94    -0.004 A 
ENDBRANCH   2   3
ENDBRANCH   1   2
END_RES PHE A  61
BEGIN_RES VAL A 134
REMARK  1 active torsions:
REMARK  status: ('A' for Active; 'I' for Inactive)
REMARK    3  A    between atoms: CA   and  CB  
ROOT
ATOM      9  CA  VAL A 134     -29.766 132.051   9.815  1.00 40.75     0.159 C 
ENDROOT
BRANCH   9  10
ATOM     10  CB  VAL A 134     -30.864 132.765   9.009  1.00 40.76     0.029 C 
ATOM     11  CG1 VAL A 134     -32.087 133.023   9.877  1.00 41.76     0.002 C 
ATOM     12  CG2 VAL A 134     -30.356 134.060   8.393  1.00 40.56     0.002 C 
ENDBRANCH   9  10
END_RES VAL A 134
BEGIN_RES TYR A 338
REMARK  3 active torsions:
REMARK  status: ('A' for Active; 'I' for Inactive)
REMARK    4  A    between atoms: CA   and  CB  
REMARK    5  A    between atoms: CB   and  CG  
REMARK    6  A    between atoms: CZ   and  OH  
ROOT
ATOM     13  CA  TYR A 338     -41.631 124.950   6.058  1.00 38.23     0.164 C 
ENDROOT
BRANCH  13  14
ATOM     14  CB  TYR A 338     -41.621 126.456   6.339  1.00 39.15     0.058 C 
BRANCH  14  15
ATOM     15  CG  TYR A 338     -40.407 127.208   5.843  1.00 39.03    -0.020 A 
ATOM     16  CD2 TYR A 338     -40.254 128.555   6.125  1.00 40.65    -0.002 A 
ATOM     17  CE2 TYR A 338     -39.161 129.279   5.673  1.00 40.91     0.024 A 
ATOM     18  CZ  TYR A 338     -38.189 128.653   4.916  1.00 42.33     0.089 A 
ATOM     19  CE1 TYR A 338     -38.318 127.307   4.625  1.00 40.63     0.024 A 
ATOM     20  CD1 TYR A 338     -39.424 126.603   5.075  1.00 39.27    -0.002 A 
BRANCH  18  21
ATOM     21  OH  TYR A 338     -37.105 129.357   4.469  1.00 43.36    -0.359 OA
ATOM     22  HH  TYR A 338     -37.205 130.251   4.165  1.00  0.00     0.217 HD
ENDBRANCH  18  21
ENDBRANCH  14  15
ENDBRANCH  13  14
END_RES TYR A 338
ENDMDL
