MODEL 1
REMARK VINA RESULT:    -8.700      0.000      0.000
REMARK INTER + INTRA:         -10.959
REMARK INTER:                  -8.700
REMARK INTRA:                  -2.259
REMARK UNBOUND:                -2.259
REMARK  0 active torsions:
REMARK  status: ('A' for Active; 'I' for Inactive)
REMARK       I    between atoms: C3_3  and  O3_21 
REMARK       I    between atoms: C6_6  and  C7_7 
REMARK       I    between atoms: C8_8  and  C9_9 
REMARK       I    between atoms: C10_10  and  C11_11 
REMARK       I    between atoms: C12_12  and  C13_13 
REMARK       I    between atoms: C14_14  and  C15_15 
REMARK       I    between atoms: C23_25  and  O23_43 
REMARK       I    between atoms: C26_28  and  C27_29 
REMARK       I    between atoms: C28_30  and  C29_31 
REMARK       I    between atoms: C30_32  and  C31_33 
REMARK       I    between atoms: C32_34  and  C33_35 
REMARK       I    between atoms: C34_36  and  C35_37 
ROOT
HETATM    1  C1  VFQ 2 619     -34.154 127.206   6.682  1.00 46.63    -0.018 C 
HETATM    2  C2  VFQ 2 619     -34.290 127.540   5.199  1.00 46.63     0.045 C 
HETATM    3  C3  VFQ 2 619     -33.305 128.583   4.686  1.00 46.63     0.123 C 
HETATM    4  C4  VFQ 2 619     -31.977 128.433   5.407  1.00 46.63     0.066 C 
HETATM    5  C5  VFQ 2 619     -32.224 128.723   6.863  1.00 46.63    -0.074 C 
HETATM    6  C6  VFQ 2 619     -33.309 128.197   7.439  1.00 46.63    -0.048 C 
HETATM    7  C7  VFQ 2 619     -33.889 128.819   8.626  1.00 46.63     0.009 C 
HETATM    8  C8  VFQ 2 619     -34.392 129.998   8.245  1.00 46.63     0.007 C 
HETATM    9  C9  VFQ 2 619     -35.194 130.852   9.154  1.00 46.63    -0.062 C 
HETATM   10  C10 VFQ 2 619     -35.867 131.883   8.611  1.00 46.63     0.007 C 
HETATM   11  C11 VFQ 2 619     -36.752 132.771   9.367  1.00 46.63     0.001 C 
HETATM   12  C12 VFQ 2 619     -37.442 133.714   8.736  1.00 46.63     0.007 C 
HETATM   13  C13 VFQ 2 619     -38.371 134.606   9.459  1.00 46.63    -0.062 C 
HETATM   14  C14 VFQ 2 619     -39.088 135.458   8.706  1.00 46.63     0.007 C 
HETATM   15  C15 VFQ 2 619     -40.070 136.414   9.210  1.00 46.63     0.001 C 
HETATM   16  C16 VFQ 2 619     -33.477 125.850   6.835  1.00 46.63     0.020 C 
HETATM   17  C17 VFQ 2 619     -35.531 127.164   7.328  1.00 46.63     0.020 C 
HETATM   18  C18 VFQ 2 619     -31.356 129.770   7.511  1.00 46.63     0.044 C 
HETATM   19  C19 VFQ 2 619     -35.263 130.530  10.622  1.00 46.63     0.048 C 
HETATM   20  C20 VFQ 2 619     -38.477 134.523  10.955  1.00 46.63     0.048 C 
HETATM   21  O3  VFQ 2 619     -33.098 128.400   3.282  1.00 46.63    -0.395 OA
ATOM     22  H3  VFQ 2 619     -32.484 129.050   2.962  1.00  0.00     0.210 HD
HETATM   23  C21 VFQ 2 619     -49.527 144.619   9.594  1.00 59.27    -0.018 C 
HETATM   24  C22 VFQ 2 619     -50.374 145.440  10.556  1.00 64.60     0.045 C 
HETATM   25  C23 VFQ 2 619     -49.920 146.871  10.742  1.00 63.28     0.123 C 
HETATM   26  C24 VFQ 2 619     -48.472 146.900  11.153  1.00 61.00     0.066 C 
HETATM   27  C25 VFQ 2 619     -47.631 146.173  10.142  1.00 64.87    -0.074 C 
HETATM   28  C26 VFQ 2 619     -48.093 145.109   9.453  1.00 63.96    -0.048 C 
HETATM   29  C27 VFQ 2 619     -47.221 144.396   8.482  1.00 64.82     0.009 C 
HETATM   30  C28 VFQ 2 619     -46.374 143.428   8.847  1.00 58.91     0.007 C 
HETATM   31  C29 VFQ 2 619     -45.526 142.720   7.889  1.00 46.63    -0.062 C 
HETATM   32  C30 VFQ 2 619     -44.797 141.735   8.426  1.00 46.63     0.007 C 
HETATM   33  C31 VFQ 2 619     -43.891 140.860   7.700  1.00 46.63     0.001 C 
HETATM   34  C32 VFQ 2 619     -43.263 139.946   8.431  1.00 46.63     0.007 C 
HETATM   35  C33 VFQ 2 619     -42.304 138.989   7.861  1.00 46.63    -0.062 C 
HETATM   36  C34 VFQ 2 619     -41.680 138.164   8.721  1.00 46.63     0.007 C 
HETATM   37  C35 VFQ 2 619     -40.688 137.173   8.315  1.00 46.63     0.001 C 
HETATM   38  C36 VFQ 2 619     -50.154 144.697   8.211  1.00 56.55     0.020 C 
HETATM   39  C37 VFQ 2 619     -49.618 143.183  10.099  1.00 59.14     0.020 C 
HETATM   40  C38 VFQ 2 619     -46.249 146.733   9.964  1.00 61.00     0.044 C 
HETATM   41  C39 VFQ 2 619     -45.551 143.072   6.432  1.00 46.63     0.048 C 
HETATM   42  C40 VFQ 2 619     -42.087 139.000   6.376  1.00 46.63     0.048 C 
HETATM   43  O23 VFQ 2 619     -50.708 147.480  11.768  1.00 73.40    -0.395 OA
ATOM     44  H23 VFQ 2 619     -51.622 147.462  11.508  1.00  0.00     0.210 HD
ENDROOT
TORSDOF 12
BEGIN_RES PHE A  61
REMARK  2 active torsions:
REMARK  status: ('A' for Active; 'I' for Inactive)
REMARK    1  A    between atoms: CA   and  CB  
REMARK    2  A    between atoms: CB   and  CG  
ROOT
ATOM      1  CA  PHE A  61     -36.237 128.293  12.768  1.00 39.40     0.164 C 
ENDROOT
BRANCH   1   2
ATOM      2  CB  PHE A  61     -36.813 128.951  11.509  1.00 39.41     0.058 C 
BRANCH   2   3
ATOM      3  CG  PHE A  61     -37.106 127.991  10.381  1.00 39.01    -0.020 A 
ATOM      4  CD2 PHE A  61     -36.398 126.806  10.253  1.00 40.32    -0.004 A 
ATOM      5  CE2 PHE A  61     -36.667 125.925   9.213  1.00 40.20    -0.000 A 
ATOM      6  CZ  PHE A  61     -37.648 126.216   8.293  1.00 40.34    -0.000 A 
ATOM      7  CE1 PHE A  61     -38.362 127.388   8.408  1.00 41.51    -0.000 A 
ATOM      8  CD1 PHE A  61     -38.089 128.272   9.443  1.00 39.94    -0.004 A 
ENDBRANCH   2   3
ENDBRANCH   1   2
END_RES PHE A  61
BEGIN_RES VAL A 134
REMARK  1 active torsions:
REMARK  status: ('A' for Active; 'I' for Inactive)
REMARK    3  A    between atoms: CA   and  CB  
ROOT
ATOM      9  CA  VAL A 134     -29.766 132.051   9.815  1.00 40.75     0.159 C 
ENDROOT
BRANCH   9  10
ATOM     10  CB  VAL A 134     -30.864 132.765   9.009  1.00 40.76     0.029 C 
ATOM     11  CG1 VAL A 134     -30.884 132.269   7.571  1.00 41.76     0.002 C 
ATOM     12  CG2 VAL A 134     -32.231 132.602   9.656  1.00 40.56     0.002 C 
ENDBRANCH   9  10
END_RES VAL A 134
BEGIN_RES TYR A 338
REMARK  3 active torsions:
REMARK  status: ('A' for Active; 'I' for Inactive)
REMARK    4  A    between atoms: CA   and  CB  
REMARK    5  A    between atoms: CB   and  CG  
REMARK    6  A    between atoms: CZ   and  OH  
ROOT
ATOM     13  CA  TYR A 338     -41.631 124.950   6.058  1.00 38.23     0.164 C 
ENDROOT
BRANCH  13  14
ATOM     14  CB  TYR A 338     -41.621 126.456   6.339  1.00 39.15     0.058 C 
BRANCH  14  15
ATOM     15  CG  TYR A 338     -40.391 127.202   5.875  1.00 39.03    -0.020 A 
ATOM     16  CD2 TYR A 338     -40.227 128.542   6.182  1.00 40.65    -0.002 A 
ATOM     17  CE2 TYR A 338     -39.119 129.261   5.760  1.00 40.91     0.024 A 
ATOM     18  CZ  TYR A 338     -38.141 128.636   5.009  1.00 42.33     0.089 A 
ATOM     19  CE1 TYR A 338     -38.280 127.296   4.694  1.00 40.63     0.024 A 
ATOM     20  CD1 TYR A 338     -39.402 126.598   5.114  1.00 39.27    -0.002 A 
BRANCH  18  21
ATOM     21  OH  TYR A 338     -37.042 129.334   4.591  1.00 43.36    -0.359 OA
ATOM     22  HH  TYR A 338     -36.533 129.030   3.849  1.00  0.00     0.217 HD
ENDBRANCH  18  21
ENDBRANCH  14  15
ENDBRANCH  13  14
END_RES TYR A 338
ENDMDL
MODEL 2
REMARK VINA RESULT:    -7.711      1.223     16.416
REMARK INTER + INTRA:          -9.970
REMARK INTER:                  -9.589
REMARK INTRA:                  -0.382
REMARK UNBOUND:                -2.259
REMARK  0 active torsions:
REMARK  status: ('A' for Active; 'I' for Inactive)
REMARK       I    between atoms: C3_3  and  O3_21 
REMARK       I    between atoms: C6_6  and  C7_7 
REMARK       I    between atoms: C8_8  and  C9_9 
REMARK       I    between atoms: C10_10  and  C11_11 
REMARK       I    between atoms: C12_12  and  C13_13 
REMARK       I    between atoms: C14_14  and  C15_15 
REMARK       I    between atoms: C23_25  and  O23_43 
REMARK       I    between atoms: C26_28  and  C27_29 
REMARK       I    between atoms: C28_30  and  C29_31 
REMARK       I    between atoms: C30_32  and  C31_33 
REMARK       I    between atoms: C32_34  and  C33_35 
REMARK       I    between atoms: C34_36  and  C35_37 
ROOT
HETATM    1  C1  VFQ 2 619     -50.352 144.764  10.650  1.00 46.63    -0.018 C 
HETATM    2  C2  VFQ 2 619     -50.382 144.209  12.072  1.00 46.63     0.045 C 
HETATM    3  C3  VFQ 2 619     -49.411 144.873  13.039  1.00 46.63     0.123 C 
HETATM    4  C4  VFQ 2 619     -49.282 146.348  12.703  1.00 46.63     0.066 C 
HETATM    5  C5  VFQ 2 619     -48.684 146.443  11.326  1.00 46.63    -0.074 C 
HETATM    6  C6  VFQ 2 619     -49.148 145.626  10.375  1.00 46.63    -0.048 C 
HETATM    7  C7  VFQ 2 619     -48.317 145.287   9.223  1.00 46.63     0.009 C 
HETATM    8  C8  VFQ 2 619     -47.303 144.543   9.678  1.00 46.63     0.007 C 
HETATM    9  C9  VFQ 2 619     -46.329 143.887   8.771  1.00 46.63    -0.062 C 
HETATM   10  C10 VFQ 2 619     -45.510 142.960   9.300  1.00 46.63     0.007 C 
HETATM   11  C11 VFQ 2 619     -44.546 142.181   8.520  1.00 46.63     0.001 C 
HETATM   12  C12 VFQ 2 619     -43.832 141.228   9.109  1.00 46.63     0.007 C 
HETATM   13  C13 VFQ 2 619     -42.875 140.398   8.350  1.00 46.63    -0.062 C 
HETATM   14  C14 VFQ 2 619     -42.282 139.400   9.027  1.00 46.63     0.007 C 
HETATM   15  C15 VFQ 2 619     -41.318 138.455   8.470  1.00 46.63     0.001 C 
HETATM   16  C16 VFQ 2 619     -51.577 145.641  10.423  1.00 46.63     0.020 C 
HETATM   17  C17 VFQ 2 619     -50.355 143.617   9.650  1.00 46.63     0.020 C 
HETATM   18  C18 VFQ 2 619     -47.449 147.292  11.170  1.00 46.63     0.044 C 
HETATM   19  C19 VFQ 2 619     -46.307 144.241   7.308  1.00 46.63     0.048 C 
HETATM   20  C20 VFQ 2 619     -42.618 140.690   6.899  1.00 46.63     0.048 C 
HETATM   21  O3  VFQ 2 619     -49.897 144.739  14.377  1.00 46.63    -0.395 OA
ATOM     22  H3  VFQ 2 619     -49.290 145.153  14.981  1.00  0.00     0.210 HD
HETATM   23  C21 VFQ 2 619     -34.037 128.352   7.113  1.00 59.27    -0.018 C 
HETATM   24  C22 VFQ 2 619     -33.087 127.673   6.137  1.00 64.60     0.045 C 
HETATM   25  C23 VFQ 2 619     -31.619 127.953   6.377  1.00 63.28     0.123 C 
HETATM   26  C24 VFQ 2 619     -31.380 129.439   6.402  1.00 61.00     0.066 C 
HETATM   27  C25 VFQ 2 619     -32.250 130.088   7.440  1.00 64.87    -0.074 C 
HETATM   28  C26 VFQ 2 619     -33.479 129.619   7.744  1.00 63.96    -0.048 C 
HETATM   29  C27 VFQ 2 619     -34.325 130.306   8.756  1.00 64.82     0.009 C 
HETATM   30  C28 VFQ 2 619     -35.110 131.346   8.457  1.00 58.91     0.007 C 
HETATM   31  C29 VFQ 2 619     -35.950 132.013   9.451  1.00 46.63    -0.062 C 
HETATM   32  C30 VFQ 2 619     -36.721 132.985   8.953  1.00 46.63     0.007 C 
HETATM   33  C31 VFQ 2 619     -37.665 133.790   9.712  1.00 46.63     0.001 C 
HETATM   34  C32 VFQ 2 619     -38.331 134.706   9.019  1.00 46.63     0.007 C 
HETATM   35  C33 VFQ 2 619     -39.313 135.612   9.630  1.00 46.63    -0.062 C 
HETATM   36  C34 VFQ 2 619     -39.864 136.545   8.831  1.00 46.63     0.007 C 
HETATM   37  C35 VFQ 2 619     -40.839 137.529   9.290  1.00 46.63     0.001 C 
HETATM   38  C36 VFQ 2 619     -34.332 127.390   8.250  1.00 56.55     0.020 C 
HETATM   39  C37 VFQ 2 619     -35.320 128.596   6.324  1.00 59.14     0.020 C 
HETATM   40  C38 VFQ 2 619     -31.637 131.286   8.107  1.00 61.00     0.044 C 
HETATM   41  C39 VFQ 2 619     -35.948 131.567  10.883  1.00 46.63     0.048 C 
HETATM   42  C40 VFQ 2 619     -39.629 135.439  11.087  1.00 46.63     0.048 C 
HETATM   43  O23 VFQ 2 619     -30.856 127.375   5.316  1.00 73.40    -0.395 OA
ATOM     44  H23 VFQ 2 619     -31.007 126.437   5.300  1.00  0.00     0.210 HD
ENDROOT
TORSDOF 12
BEGIN_RES PHE A  61
REMARK  2 active torsions:
REMARK  status: ('A' for Active; 'I' for Inactive)
REMARK    1  A    between atoms: CA   and  CB  
REMARK    2  A    between atoms: CB   and  CG  
ROOT
ATOM      1  CA  PHE A  61     -36.237 128.293  12.768  1.00 39.40     0.164 C 
ENDROOT
BRANCH   1   2
ATOM      2  CB  PHE A  61     -36.813 128.951  11.509  1.00 39.41     0.058 C 
BRANCH   2   3
ATOM      3  CG  PHE A  61     -37.008 128.008  10.346  1.00 39.01    -0.020 A 
ATOM      4  CD2 PHE A  61     -36.286 126.828  10.257  1.00 40.32    -0.004 A 
ATOM      5  CE2 PHE A  61     -36.465 125.963   9.185  1.00 40.20    -0.000 A 
ATOM      6  CZ  PHE A  61     -37.369 126.266   8.192  1.00 40.34    -0.000 A 
ATOM      7  CE1 PHE A  61     -38.096 127.433   8.267  1.00 41.51    -0.000 A 
ATOM      8  CD1 PHE A  61     -37.913 128.302   9.335  1.00 39.94    -0.004 A 
ENDBRANCH   2   3
ENDBRANCH   1   2
END_RES PHE A  61
BEGIN_RES VAL A 134
REMARK  1 active torsions:
REMARK  status: ('A' for Active; 'I' for Inactive)
REMARK    3  A    between atoms: CA   and  CB  
ROOT
ATOM      9  CA  VAL A 134     -29.766 132.051   9.815  1.00 40.75     0.159 C 
ENDROOT
BRANCH   9  10
ATOM     10  CB  VAL A 134     -30.864 132.765   9.009  1.00 40.76     0.029 C 
ATOM     11  CG1 VAL A 134     -32.079 133.041   9.882  1.00 41.76     0.002 C 
ATOM     12  CG2 VAL A 134     -30.350 134.049   8.376  1.00 40.56     0.002 C 
ENDBRANCH   9  10
END_RES VAL A 134
BEGIN_RES TYR A 338
REMARK  3 active torsions:
REMARK  status: ('A' for Active; 'I' for Inactive)
REMARK    4  A    between atoms: CA   and  CB  
REMARK    5  A    between atoms: CB   and  CG  
REMARK    6  A    between atoms: CZ   and  OH  
ROOT
ATOM     13  CA  TYR A 338     -41.631 124.950   6.058  1.00 38.23     0.164 C 
ENDROOT
BRANCH  13  14
ATOM     14  CB  TYR A 338     -41.621 126.456   6.339  1.00 39.15     0.058 C 
BRANCH  14  15
ATOM     15  CG  TYR A 338     -40.420 127.212   5.819  1.00 39.03    -0.020 A 
ATOM     16  CD2 TYR A 338     -40.266 128.560   6.098  1.00 40.65    -0.002 A 
ATOM     17  CE2 TYR A 338     -39.186 129.288   5.624  1.00 40.91     0.024 A 
ATOM     18  CZ  TYR A 338     -38.226 128.666   4.849  1.00 42.33     0.089 A 
ATOM     19  CE1 TYR A 338     -38.354 127.319   4.562  1.00 40.63     0.024 A 
ATOM     20  CD1 TYR A 338     -39.449 126.611   5.034  1.00 39.27    -0.002 A 
BRANCH  18  21
ATOM     21  OH  TYR A 338     -37.154 129.373   4.381  1.00 43.36    -0.359 OA
ATOM     22  HH  TYR A 338     -37.259 129.985   3.661  1.00  0.00     0.217 HD
ENDBRANCH  18  21
ENDBRANCH  14  15
ENDBRANCH  13  14
END_RES TYR A 338
ENDMDL
MODEL 3
REMARK VINA RESULT:    -6.450      2.552     16.710
REMARK INTER + INTRA:          -8.708
REMARK INTER:                  -4.283
REMARK INTRA:                  -4.425
REMARK UNBOUND:                -2.259
REMARK  0 active torsions:
REMARK  status: ('A' for Active; 'I' for Inactive)
REMARK       I    between atoms: C3_3  and  O3_21 
REMARK       I    between atoms: C6_6  and  C7_7 
REMARK       I    between atoms: C8_8  and  C9_9 
REMARK       I    between atoms: C10_10  and  C11_11 
REMARK       I    between atoms: C12_12  and  C13_13 
REMARK       I    between atoms: C14_14  and  C15_15 
REMARK       I    between atoms: C23_25  and  O23_43 
REMARK       I    between atoms: C26_28  and  C27_29 
REMARK       I    between atoms: C28_30  and  C29_31 
REMARK       I    between atoms: C30_32  and  C31_33 
REMARK       I    between atoms: C32_34  and  C33_35 
REMARK       I    between atoms: C34_36  and  C35_37 
ROOT
HETATM    1  C1  VFQ 2 619     -49.986 149.930   7.048  1.00 46.63    -0.018 C 
HETATM    2  C2  VFQ 2 619     -50.616 149.085   5.944  1.00 46.63     0.045 C 
HETATM    3  C3  VFQ 2 619     -51.692 148.115   6.417  1.00 46.63     0.123 C 
HETATM    4  C4  VFQ 2 619     -52.468 148.731   7.567  1.00 46.63     0.066 C 
HETATM    5  C5  VFQ 2 619     -51.504 148.925   8.705  1.00 46.63    -0.074 C 
HETATM    6  C6  VFQ 2 619     -50.294 149.424   8.433  1.00 46.63    -0.048 C 
HETATM    7  C7  VFQ 2 619     -49.170 149.162   9.327  1.00 46.63     0.009 C 
HETATM    8  C8  VFQ 2 619     -48.896 147.855   9.239  1.00 46.63     0.007 C 
HETATM    9  C9  VFQ 2 619     -47.715 147.245   9.898  1.00 46.63    -0.062 C 
HETATM   10  C10 VFQ 2 619     -47.382 145.991   9.543  1.00 46.63     0.007 C 
HETATM   11  C11 VFQ 2 619     -46.207 145.282  10.054  1.00 46.63     0.001 C 
HETATM   12  C12 VFQ 2 619     -45.907 144.074   9.588  1.00 46.63     0.007 C 
HETATM   13  C13 VFQ 2 619     -44.711 143.342  10.053  1.00 46.63    -0.062 C 
HETATM   14  C14 VFQ 2 619     -44.452 142.173   9.443  1.00 46.63     0.007 C 
HETATM   15  C15 VFQ 2 619     -43.321 141.297   9.736  1.00 46.63     0.001 C 
HETATM   16  C16 VFQ 2 619     -50.532 151.350   6.972  1.00 46.63     0.020 C 
HETATM   17  C17 VFQ 2 619     -48.474 149.956   6.876  1.00 46.63     0.020 C 
HETATM   18  C18 VFQ 2 619     -51.886 148.334  10.037  1.00 46.63     0.044 C 
HETATM   19  C19 VFQ 2 619     -46.916 148.039  10.895  1.00 46.63     0.048 C 
HETATM   20  C20 VFQ 2 619     -43.858 143.919  11.147  1.00 46.63     0.048 C 
HETATM   21  O3  VFQ 2 619     -52.592 147.833   5.342  1.00 46.63    -0.395 OA
ATOM     22  H3  VFQ 2 619     -53.263 147.228   5.637  1.00  0.00     0.210 HD
HETATM   23  C21 VFQ 2 619     -34.740 132.236   8.642  1.00 59.27    -0.018 C 
HETATM   24  C22 VFQ 2 619     -33.496 131.667   9.308  1.00 64.60     0.045 C 
HETATM   25  C23 VFQ 2 619     -33.746 130.490  10.225  1.00 63.28     0.123 C 
HETATM   26  C24 VFQ 2 619     -34.779 130.855  11.257  1.00 61.00     0.066 C 
HETATM   27  C25 VFQ 2 619     -36.040 131.319  10.587  1.00 64.87    -0.074 C 
HETATM   28  C26 VFQ 2 619     -36.029 131.983   9.412  1.00 63.96    -0.048 C 
HETATM   29  C27 VFQ 2 619     -37.296 132.454   8.793  1.00 64.82     0.009 C 
HETATM   30  C28 VFQ 2 619     -37.869 133.618   9.115  1.00 58.91     0.007 C 
HETATM   31  C29 VFQ 2 619     -39.109 134.086   8.497  1.00 46.63    -0.062 C 
HETATM   32  C30 VFQ 2 619     -39.492 135.305   8.892  1.00 46.63     0.007 C 
HETATM   33  C31 VFQ 2 619     -40.669 136.016   8.420  1.00 46.63     0.001 C 
HETATM   34  C32 VFQ 2 619     -40.864 137.221   8.945  1.00 46.63     0.007 C 
HETATM   35  C33 VFQ 2 619     -42.010 138.070   8.590  1.00 46.63    -0.062 C 
HETATM   36  C34 VFQ 2 619     -42.133 139.236   9.250  1.00 46.63     0.007 C 
HETATM   37  C35 VFQ 2 619     -43.223 140.181   9.026  1.00 46.63     0.001 C 
HETATM   38  C36 VFQ 2 619     -34.906 131.578   7.283  1.00 56.55     0.020 C 
HETATM   39  C37 VFQ 2 619     -34.450 133.721   8.443  1.00 59.14     0.020 C 
HETATM   40  C38 VFQ 2 619     -37.301 130.979  11.329  1.00 61.00     0.044 C 
HETATM   41  C39 VFQ 2 619     -39.820 133.252   7.474  1.00 46.63     0.048 C 
HETATM   42  C40 VFQ 2 619     -42.954 137.583   7.530  1.00 46.63     0.048 C 
HETATM   43  O23 VFQ 2 619     -32.525 130.149  10.886  1.00 73.40    -0.395 OA
ATOM     44  H23 VFQ 2 619     -31.873 129.917  10.235  1.00  0.00     0.210 HD
ENDROOT
TORSDOF 12
BEGIN_RES PHE A  61
REMARK  2 active torsions:
REMARK  status: ('A' for Active; 'I' for Inactive)
REMARK    1  A    between atoms: CA   and  CB  
REMARK    2  A    between atoms: CB   and  CG  
ROOT
ATOM      1  CA  PHE A  61     -36.237 128.293  12.768  1.00 39.40     0.164 C 
ENDROOT
BRANCH   1   2
ATOM      2  CB  PHE A  61     -36.813 128.951  11.509  1.00 39.41     0.058 C 
BRANCH   2   3
ATOM      3  CG  PHE A  61     -36.587 128.169  10.237  1.00 39.01    -0.020 A 
ATOM      4  CD2 PHE A  61     -37.610 127.992   9.319  1.00 40.32    -0.004 A 
ATOM      5  CE2 PHE A  61     -37.401 127.270   8.151  1.00 40.20    -0.000 A 
ATOM      6  CZ  PHE A  61     -36.167 126.721   7.886  1.00 40.34    -0.000 A 
ATOM      7  CE1 PHE A  61     -35.139 126.890   8.787  1.00 41.51    -0.000 A 
ATOM      8  CD1 PHE A  61     -35.349 127.606   9.958  1.00 39.94    -0.004 A 
ENDBRANCH   2   3
ENDBRANCH   1   2
END_RES PHE A  61
BEGIN_RES VAL A 134
REMARK  1 active torsions:
REMARK  status: ('A' for Active; 'I' for Inactive)
REMARK    3  A    between atoms: CA   and  CB  
ROOT
ATOM      9  CA  VAL A 134     -29.766 132.051   9.815  1.00 40.75     0.159 C 
ENDROOT
BRANCH   9  10
ATOM     10  CB  VAL A 134     -30.864 132.765   9.009  1.00 40.76     0.029 C 
ATOM     11  CG1 VAL A 134     -30.486 134.217   8.753  1.00 41.76     0.002 C 
ATOM     12  CG2 VAL A 134     -31.159 132.045   7.702  1.00 40.56     0.002 C 
ENDBRANCH   9  10
END_RES VAL A 134
BEGIN_RES TYR A 338
REMARK  3 active torsions:
REMARK  status: ('A' for Active; 'I' for Inactive)
REMARK    4  A    between atoms: CA   and  CB  
REMARK    5  A    between atoms: CB   and  CG  
REMARK    6  A    between atoms: CZ   and  OH  
ROOT
ATOM     13  CA  TYR A 338     -41.631 124.950   6.058  1.00 38.23     0.164 C 
ENDROOT
BRANCH  13  14
ATOM     14  CB  TYR A 338     -41.621 126.456   6.339  1.00 39.15     0.058 C 
BRANCH  14  15
ATOM     15  CG  TYR A 338     -40.381 127.198   5.896  1.00 39.03    -0.020 A 
ATOM     16  CD2 TYR A 338     -40.198 128.526   6.241  1.00 40.65    -0.002 A 
ATOM     17  CE2 TYR A 338     -39.081 129.242   5.838  1.00 40.91     0.024 A 
ATOM     18  CZ  TYR A 338     -38.113 128.626   5.068  1.00 42.33     0.089 A 
ATOM     19  CE1 TYR A 338     -38.270 127.298   4.714  1.00 40.63     0.024 A 
ATOM     20  CD1 TYR A 338     -39.401 126.603   5.116  1.00 39.27    -0.002 A 
BRANCH  18  21
ATOM     21  OH  TYR A 338     -37.005 129.320   4.669  1.00 43.36    -0.359 OA
ATOM     22  HH  TYR A 338     -36.794 130.158   5.066  1.00  0.00     0.217 HD
ENDBRANCH  18  21
ENDBRANCH  14  15
ENDBRANCH  13  14
END_RES TYR A 338
ENDMDL
