MODEL 1
REMARK VINA RESULT:    -9.234      0.000      0.000
REMARK INTER + INTRA:         -11.721
REMARK INTER:                  -9.234
REMARK INTRA:                  -2.487
REMARK UNBOUND:                -2.487
REMARK  0 active torsions:
REMARK  status: ('A' for Active; 'I' for Inactive)
REMARK       I    between atoms: C3_3  and  O3_21 
REMARK       I    between atoms: C6_6  and  C7_7 
REMARK       I    between atoms: C8_8  and  C9_9 
REMARK       I    between atoms: C10_10  and  C11_11 
REMARK       I    between atoms: C12_12  and  C13_13 
REMARK       I    between atoms: C14_14  and  C15_15 
REMARK       I    between atoms: C23_25  and  O23_43 
REMARK       I    between atoms: C26_28  and  C27_29 
REMARK       I    between atoms: C28_30  and  C29_31 
REMARK       I    between atoms: C30_32  and  C31_33 
REMARK       I    between atoms: C32_34  and  C33_35 
REMARK       I    between atoms: C34_36  and  C35_37 
ROOT
HETATM    1  C1  VFQ 6 619     -34.096 127.122   6.580  1.00 45.52    -0.018 C 
HETATM    2  C2  VFQ 6 619     -34.395 127.465   5.122  1.00 45.52     0.045 C 
HETATM    3  C3  VFQ 6 619     -33.499 128.551   4.540  1.00 45.52     0.123 C 
HETATM    4  C4  VFQ 6 619     -32.122 128.468   5.172  1.00 45.52     0.066 C 
HETATM    5  C5  VFQ 6 619     -32.297 128.795   6.627  1.00 45.52    -0.074 C 
HETATM    6  C6  VFQ 6 619     -33.299 128.192   7.281  1.00 45.52    -0.048 C 
HETATM    7  C7  VFQ 6 619     -33.827 128.751   8.528  1.00 45.52     0.009 C 
HETATM    8  C8  VFQ 6 619     -34.272 129.987   8.291  1.00 45.52     0.007 C 
HETATM    9  C9  VFQ 6 619     -35.012 130.778   9.298  1.00 45.52    -0.062 C 
HETATM   10  C10 VFQ 6 619     -35.616 131.888   8.850  1.00 45.52     0.007 C 
HETATM   11  C11 VFQ 6 619     -36.457 132.755   9.670  1.00 45.52     0.001 C 
HETATM   12  C12 VFQ 6 619     -37.111 133.742   9.077  1.00 45.52     0.007 C 
HETATM   13  C13 VFQ 6 619     -38.030 134.629   9.804  1.00 45.52    -0.062 C 
HETATM   14  C14 VFQ 6 619     -38.743 135.466   9.040  1.00 45.52     0.007 C 
HETATM   15  C15 VFQ 6 619     -39.735 136.413   9.529  1.00 45.52     0.001 C 
HETATM   16  C16 VFQ 6 619     -33.258 125.850   6.638  1.00 45.52     0.020 C 
HETATM   17  C17 VFQ 6 619     -35.391 126.909   7.349  1.00 45.52     0.020 C 
HETATM   18  C18 VFQ 6 619     -31.440 129.898   7.198  1.00 45.52     0.044 C 
HETATM   19  C19 VFQ 6 619     -35.081 130.320  10.728  1.00 45.52     0.048 C 
HETATM   20  C20 VFQ 6 619     -38.126 134.556  11.299  1.00 45.52     0.048 C 
HETATM   21  O3  VFQ 6 619     -33.376 128.379   3.125  1.00 45.52    -0.395 OA
ATOM     22  H3  VFQ 6 619     -32.817 129.056   2.762  1.00  0.00     0.210 HD
HETATM   23  C21 VFQ 6 619     -49.457 145.100   8.582  1.00 31.86    -0.018 C 
HETATM   24  C22 VFQ 6 619     -50.376 145.999   9.417  1.00 31.86     0.045 C 
HETATM   25  C23 VFQ 6 619     -50.055 146.126  10.901  1.00 31.86     0.123 C 
HETATM   26  C24 VFQ 6 619     -49.158 144.995  11.386  1.00 31.86     0.066 C 
HETATM   27  C25 VFQ 6 619     -47.944 145.003  10.506  1.00 31.86    -0.074 C 
HETATM   28  C26 VFQ 6 619     -48.100 144.827   9.196  1.00 31.86    -0.048 C 
HETATM   29  C27 VFQ 6 619     -47.068 144.192   8.349  1.00 31.86     0.009 C 
HETATM   30  C28 VFQ 6 619     -46.285 143.245   8.876  1.00 31.86     0.007 C 
HETATM   31  C29 VFQ 6 619     -45.417 142.445   7.978  1.00 45.52    -0.062 C 
HETATM   32  C30 VFQ 6 619     -44.676 141.516   8.592  1.00 45.52     0.007 C 
HETATM   33  C31 VFQ 6 619     -43.751 140.612   7.924  1.00 45.52     0.001 C 
HETATM   34  C32 VFQ 6 619     -43.062 139.778   8.686  1.00 45.52     0.007 C 
HETATM   35  C33 VFQ 6 619     -42.081 138.841   8.127  1.00 45.52    -0.062 C 
HETATM   36  C34 VFQ 6 619     -41.390 138.095   9.006  1.00 45.52     0.007 C 
HETATM   37  C35 VFQ 6 619     -40.373 137.128   8.615  1.00 45.52     0.001 C 
HETATM   38  C36 VFQ 6 619     -49.322 145.719   7.201  1.00 31.86     0.020 C 
HETATM   39  C37 VFQ 6 619     -50.106 143.727   8.427  1.00 31.86     0.020 C 
HETATM   40  C38 VFQ 6 619     -46.610 145.336  11.114  1.00 31.86     0.044 C 
HETATM   41  C39 VFQ 6 619     -45.434 142.677   6.497  1.00 45.52     0.048 C 
HETATM   42  C40 VFQ 6 619     -41.903 138.793   6.636  1.00 45.52     0.048 C 
HETATM   43  O23 VFQ 6 619     -51.305 146.084  11.587  1.00 31.86    -0.395 OA
ATOM     44  H23 VFQ 6 619     -51.104 146.163  12.512  1.00  0.00     0.210 HD
ENDROOT
TORSDOF 12
BEGIN_RES PHE A  61
REMARK  2 active torsions:
REMARK  status: ('A' for Active; 'I' for Inactive)
REMARK    1  A    between atoms: CA   and  CB  
REMARK    2  A    between atoms: CB   and  CG  
ROOT
ATOM      1  CA  PHE A  61     -36.237 128.293  12.768  1.00 39.40     0.164 C 
ENDROOT
BRANCH   1   2
ATOM      2  CB  PHE A  61     -36.813 128.951  11.509  1.00 39.41     0.058 C 
BRANCH   2   3
ATOM      3  CG  PHE A  61     -37.092 127.993  10.376  1.00 39.01    -0.020 A 
ATOM      4  CD2 PHE A  61     -36.398 126.798  10.267  1.00 40.32    -0.004 A 
ATOM      5  CE2 PHE A  61     -36.653 125.919   9.222  1.00 40.20    -0.000 A 
ATOM      6  CZ  PHE A  61     -37.607 126.222   8.278  1.00 40.34    -0.000 A 
ATOM      7  CE1 PHE A  61     -38.307 127.404   8.373  1.00 41.51    -0.000 A 
ATOM      8  CD1 PHE A  61     -38.047 128.286   9.414  1.00 39.94    -0.004 A 
ENDBRANCH   2   3
ENDBRANCH   1   2
END_RES PHE A  61
BEGIN_RES VAL A 134
REMARK  1 active torsions:
REMARK  status: ('A' for Active; 'I' for Inactive)
REMARK    3  A    between atoms: CA   and  CB  
ROOT
ATOM      9  CA  VAL A 134     -29.766 132.051   9.815  1.00 40.75     0.159 C 
ENDROOT
BRANCH   9  10
ATOM     10  CB  VAL A 134     -30.864 132.765   9.009  1.00 40.76     0.029 C 
ATOM     11  CG1 VAL A 134     -30.934 132.216   7.592  1.00 41.76     0.002 C 
ATOM     12  CG2 VAL A 134     -32.218 132.666   9.695  1.00 40.56     0.002 C 
ENDBRANCH   9  10
END_RES VAL A 134
BEGIN_RES TYR A 338
REMARK  3 active torsions:
REMARK  status: ('A' for Active; 'I' for Inactive)
REMARK    4  A    between atoms: CA   and  CB  
REMARK    5  A    between atoms: CB   and  CG  
REMARK    6  A    between atoms: CZ   and  OH  
ROOT
ATOM     13  CA  TYR A 338     -41.631 124.950   6.058  1.00 38.23     0.164 C 
ENDROOT
BRANCH  13  14
ATOM     14  CB  TYR A 338     -41.621 126.456   6.339  1.00 39.15     0.058 C 
BRANCH  14  15
ATOM     15  CG  TYR A 338     -40.391 127.202   5.875  1.00 39.03    -0.020 A 
ATOM     16  CD2 TYR A 338     -40.231 128.544   6.175  1.00 40.65    -0.002 A 
ATOM     17  CE2 TYR A 338     -39.123 129.263   5.752  1.00 40.91     0.024 A 
ATOM     18  CZ  TYR A 338     -38.141 128.636   5.008  1.00 42.33     0.089 A 
ATOM     19  CE1 TYR A 338     -38.276 127.294   4.700  1.00 40.63     0.024 A 
ATOM     20  CD1 TYR A 338     -39.398 126.596   5.121  1.00 39.27    -0.002 A 
BRANCH  18  21
ATOM     21  OH  TYR A 338     -37.043 129.334   4.590  1.00 43.36    -0.359 OA
ATOM     22  HH  TYR A 338     -36.923 130.241   4.846  1.00  0.00     0.217 HD
ENDBRANCH  18  21
ENDBRANCH  14  15
ENDBRANCH  13  14
END_RES TYR A 338
ENDMDL
MODEL 2
REMARK VINA RESULT:    -8.894      1.645     16.304
REMARK INTER + INTRA:         -11.381
REMARK INTER:                  -9.274
REMARK INTRA:                  -2.107
REMARK UNBOUND:                -2.487
REMARK  0 active torsions:
REMARK  status: ('A' for Active; 'I' for Inactive)
REMARK       I    between atoms: C3_3  and  O3_21 
REMARK       I    between atoms: C6_6  and  C7_7 
REMARK       I    between atoms: C8_8  and  C9_9 
REMARK       I    between atoms: C10_10  and  C11_11 
REMARK       I    between atoms: C12_12  and  C13_13 
REMARK       I    between atoms: C14_14  and  C15_15 
REMARK       I    between atoms: C23_25  and  O23_43 
REMARK       I    between atoms: C26_28  and  C27_29 
REMARK       I    between atoms: C28_30  and  C29_31 
REMARK       I    between atoms: C30_32  and  C31_33 
REMARK       I    between atoms: C32_34  and  C33_35 
REMARK       I    between atoms: C34_36  and  C35_37 
ROOT
HETATM    1  C1  VFQ 6 619     -49.465 145.515   8.595  1.00 45.52    -0.018 C 
HETATM    2  C2  VFQ 6 619     -50.391 144.305   8.698  1.00 45.52     0.045 C 
HETATM    3  C3  VFQ 6 619     -50.534 143.747  10.108  1.00 45.52     0.123 C 
HETATM    4  C4  VFQ 6 619     -50.428 144.877  11.115  1.00 45.52     0.066 C 
HETATM    5  C5  VFQ 6 619     -49.030 145.416  11.011  1.00 45.52    -0.074 C 
HETATM    6  C6  VFQ 6 619     -48.549 145.654   9.784  1.00 45.52    -0.048 C 
HETATM    7  C7  VFQ 6 619     -47.107 145.744   9.546  1.00 45.52     0.009 C 
HETATM    8  C8  VFQ 6 619     -46.537 144.595   9.916  1.00 45.52     0.007 C 
HETATM    9  C9  VFQ 6 619     -45.112 144.289   9.664  1.00 45.52    -0.062 C 
HETATM   10  C10 VFQ 6 619     -44.738 143.016   9.855  1.00 45.52     0.007 C 
HETATM   11  C11 VFQ 6 619     -43.398 142.503   9.583  1.00 45.52     0.001 C 
HETATM   12  C12 VFQ 6 619     -43.193 141.198   9.677  1.00 45.52     0.007 C 
HETATM   13  C13 VFQ 6 619     -41.898 140.577   9.364  1.00 45.52    -0.062 C 
HETATM   14  C14 VFQ 6 619     -41.894 139.239   9.342  1.00 45.52     0.007 C 
HETATM   15  C15 VFQ 6 619     -40.741 138.406   9.027  1.00 45.52     0.001 C 
HETATM   16  C16 VFQ 6 619     -50.302 146.788   8.542  1.00 45.52     0.020 C 
HETATM   17  C17 VFQ 6 619     -48.609 145.421   7.341  1.00 45.52     0.020 C 
HETATM   18  C18 VFQ 6 619     -48.219 145.491  12.281  1.00 45.52     0.044 C 
HETATM   19  C19 VFQ 6 619     -44.172 145.365   9.198  1.00 45.52     0.048 C 
HETATM   20  C20 VFQ 6 619     -40.697 141.434   9.090  1.00 45.52     0.048 C 
HETATM   21  O3  VFQ 6 619     -51.805 143.106  10.255  1.00 45.52    -0.395 OA
ATOM     22  H3  VFQ 6 619     -51.894 142.759  11.135  1.00  0.00     0.210 HD
HETATM   23  C21 VFQ 6 619     -34.416 127.324   6.194  1.00 31.86    -0.018 C 
HETATM   24  C22 VFQ 6 619     -33.027 126.758   5.875  1.00 31.86     0.045 C 
HETATM   25  C23 VFQ 6 619     -31.841 127.698   6.057  1.00 31.86     0.123 C 
HETATM   26  C24 VFQ 6 619     -32.274 129.157   6.088  1.00 31.86     0.066 C 
HETATM   27  C25 VFQ 6 619     -33.304 129.276   7.170  1.00 31.86    -0.074 C 
HETATM   28  C26 VFQ 6 619     -34.419 128.552   7.077  1.00 31.86    -0.048 C 
HETATM   29  C27 VFQ 6 619     -35.709 129.003   7.641  1.00 31.86     0.009 C 
HETATM   30  C28 VFQ 6 619     -35.982 130.311   7.681  1.00 31.86     0.007 C 
HETATM   31  C29 VFQ 6 619     -37.357 130.750   8.020  1.00 45.52    -0.062 C 
HETATM   32  C30 VFQ 6 619     -37.538 132.077   8.028  1.00 45.52     0.007 C 
HETATM   33  C31 VFQ 6 619     -38.796 132.743   8.331  1.00 45.52     0.001 C 
HETATM   34  C32 VFQ 6 619     -38.794 134.067   8.335  1.00 45.52     0.007 C 
HETATM   35  C33 VFQ 6 619     -39.995 134.847   8.654  1.00 45.52    -0.062 C 
HETATM   36  C34 VFQ 6 619     -39.853 136.183   8.698  1.00 45.52     0.007 C 
HETATM   37  C35 VFQ 6 619     -40.942 137.098   9.012  1.00 45.52     0.001 C 
HETATM   38  C36 VFQ 6 619     -35.250 126.207   6.800  1.00 31.86     0.020 C 
HETATM   39  C37 VFQ 6 619     -35.085 127.767   4.895  1.00 31.86     0.020 C 
HETATM   40  C38 VFQ 6 619     -32.990 130.106   8.383  1.00 31.86     0.044 C 
HETATM   41  C39 VFQ 6 619     -38.434 129.744   8.292  1.00 45.52     0.048 C 
HETATM   42  C40 VFQ 6 619     -41.277 134.113   8.925  1.00 45.52     0.048 C 
HETATM   43  O23 VFQ 6 619     -30.976 127.470   4.945  1.00 31.86    -0.395 OA
ATOM     44  H23 VFQ 6 619     -30.237 128.056   5.058  1.00  0.00     0.210 HD
ENDROOT
TORSDOF 12
BEGIN_RES PHE A  61
REMARK  2 active torsions:
REMARK  status: ('A' for Active; 'I' for Inactive)
REMARK    1  A    between atoms: CA   and  CB  
REMARK    2  A    between atoms: CB   and  CG  
ROOT
ATOM      1  CA  PHE A  61     -36.237 128.293  12.768  1.00 39.40     0.164 C 
ENDROOT
BRANCH   1   2
ATOM      2  CB  PHE A  61     -36.813 128.951  11.509  1.00 39.41     0.058 C 
BRANCH   2   3
ATOM      3  CG  PHE A  61     -36.440 130.404  11.338  1.00 39.01    -0.020 A 
ATOM      4  CD2 PHE A  61     -35.181 130.768  10.890  1.00 40.32    -0.004 A 
ATOM      5  CE2 PHE A  61     -34.838 132.106  10.736  1.00 40.20    -0.000 A 
ATOM      6  CZ  PHE A  61     -35.752 133.094  11.026  1.00 40.34    -0.000 A 
ATOM      7  CE1 PHE A  61     -37.009 132.749  11.470  1.00 41.51    -0.000 A 
ATOM      8  CD1 PHE A  61     -37.349 131.412  11.630  1.00 39.94    -0.004 A 
ENDBRANCH   2   3
ENDBRANCH   1   2
END_RES PHE A  61
BEGIN_RES VAL A 134
REMARK  1 active torsions:
REMARK  status: ('A' for Active; 'I' for Inactive)
REMARK    3  A    between atoms: CA   and  CB  
ROOT
ATOM      9  CA  VAL A 134     -29.766 132.051   9.815  1.00 40.75     0.159 C 
ENDROOT
BRANCH   9  10
ATOM     10  CB  VAL A 134     -30.864 132.765   9.009  1.00 40.76     0.029 C 
ATOM     11  CG1 VAL A 134     -31.002 132.149   7.625  1.00 41.76     0.002 C 
ATOM     12  CG2 VAL A 134     -32.197 132.752   9.742  1.00 40.56     0.002 C 
ENDBRANCH   9  10
END_RES VAL A 134
BEGIN_RES TYR A 338
REMARK  3 active torsions:
REMARK  status: ('A' for Active; 'I' for Inactive)
REMARK    4  A    between atoms: CA   and  CB  
REMARK    5  A    between atoms: CB   and  CG  
REMARK    6  A    between atoms: CZ   and  OH  
ROOT
ATOM     13  CA  TYR A 338     -41.631 124.950   6.058  1.00 38.23     0.164 C 
ENDROOT
BRANCH  13  14
ATOM     14  CB  TYR A 338     -41.621 126.456   6.339  1.00 39.15     0.058 C 
BRANCH  14  15
ATOM     15  CG  TYR A 338     -40.415 127.211   5.828  1.00 39.03    -0.020 A 
ATOM     16  CD2 TYR A 338     -40.302 128.575   6.037  1.00 40.65    -0.002 A 
ATOM     17  CE2 TYR A 338     -39.218 129.301   5.569  1.00 40.91     0.024 A 
ATOM     18  CZ  TYR A 338     -38.212 128.660   4.871  1.00 42.33     0.089 A 
ATOM     19  CE1 TYR A 338     -38.300 127.296   4.654  1.00 40.63     0.024 A 
ATOM     20  CD1 TYR A 338     -39.399 126.590   5.119  1.00 39.27    -0.002 A 
BRANCH  18  21
ATOM     21  OH  TYR A 338     -37.136 129.365   4.409  1.00 43.36    -0.359 OA
ATOM     22  HH  TYR A 338     -36.296 129.303   4.848  1.00  0.00     0.217 HD
ENDBRANCH  18  21
ENDBRANCH  14  15
ENDBRANCH  13  14
END_RES TYR A 338
ENDMDL
MODEL 3
REMARK VINA RESULT:    -7.901      1.392     16.299
REMARK INTER + INTRA:         -10.388
REMARK INTER:                 -10.029
REMARK INTRA:                  -0.359
REMARK UNBOUND:                -2.487
REMARK  0 active torsions:
REMARK  status: ('A' for Active; 'I' for Inactive)
REMARK       I    between atoms: C3_3  and  O3_21 
REMARK       I    between atoms: C6_6  and  C7_7 
REMARK       I    between atoms: C8_8  and  C9_9 
REMARK       I    between atoms: C10_10  and  C11_11 
REMARK       I    between atoms: C12_12  and  C13_13 
REMARK       I    between atoms: C14_14  and  C15_15 
REMARK       I    between atoms: C23_25  and  O23_43 
REMARK       I    between atoms: C26_28  and  C27_29 
REMARK       I    between atoms: C28_30  and  C29_31 
REMARK       I    between atoms: C30_32  and  C31_33 
REMARK       I    between atoms: C32_34  and  C33_35 
REMARK       I    between atoms: C34_36  and  C35_37 
ROOT
HETATM    1  C1  VFQ 6 619     -50.363 144.749  10.920  1.00 45.52    -0.018 C 
HETATM    2  C2  VFQ 6 619     -50.694 143.731  12.009  1.00 45.52     0.045 C 
HETATM    3  C3  VFQ 6 619     -49.938 143.945  13.315  1.00 45.52     0.123 C 
HETATM    4  C4  VFQ 6 619     -49.696 145.428  13.525  1.00 45.52     0.066 C 
HETATM    5  C5  VFQ 6 619     -48.778 145.874  12.424  1.00 45.52    -0.074 C 
HETATM    6  C6  VFQ 6 619     -49.071 145.481  11.177  1.00 45.52    -0.048 C 
HETATM    7  C7  VFQ 6 619     -48.044 145.472  10.131  1.00 45.52     0.009 C 
HETATM    8  C8  VFQ 6 619     -47.047 144.671  10.514  1.00 45.52     0.007 C 
HETATM    9  C9  VFQ 6 619     -45.921 144.312   9.624  1.00 45.52    -0.062 C 
HETATM   10  C10 VFQ 6 619     -45.134 143.310  10.042  1.00 45.52     0.007 C 
HETATM   11  C11 VFQ 6 619     -44.024 142.760   9.269  1.00 45.52     0.001 C 
HETATM   12  C12 VFQ 6 619     -43.412 141.679   9.729  1.00 45.52     0.007 C 
HETATM   13  C13 VFQ 6 619     -42.328 141.013   8.995  1.00 45.52    -0.062 C 
HETATM   14  C14 VFQ 6 619     -41.926 139.842   9.503  1.00 45.52     0.007 C 
HETATM   15  C15 VFQ 6 619     -40.893 138.987   8.934  1.00 45.52     0.001 C 
HETATM   16  C16 VFQ 6 619     -51.457 145.809  10.870  1.00 45.52     0.020 C 
HETATM   17  C17 VFQ 6 619     -50.263 144.062   9.567  1.00 45.52     0.020 C 
HETATM   18  C18 VFQ 6 619     -47.510 146.589  12.824  1.00 45.52     0.044 C 
HETATM   19  C19 VFQ 6 619     -45.719 145.034   8.322  1.00 45.52     0.048 C 
HETATM   20  C20 VFQ 6 619     -41.750 141.646   7.763  1.00 45.52     0.048 C 
HETATM   21  O3  VFQ 6 619     -50.701 143.435  14.412  1.00 45.52    -0.395 OA
ATOM     22  H3  VFQ 6 619     -50.230 143.569  15.226  1.00  0.00     0.210 HD
HETATM   23  C21 VFQ 6 619     -33.780 128.104   7.588  1.00 31.86    -0.018 C 
HETATM   24  C22 VFQ 6 619     -32.638 127.484   6.773  1.00 31.86     0.045 C 
HETATM   25  C23 VFQ 6 619     -31.872 128.415   5.842  1.00 31.86     0.123 C 
HETATM   26  C24 VFQ 6 619     -32.653 129.688   5.542  1.00 31.86     0.066 C 
HETATM   27  C25 VFQ 6 619     -32.988 130.306   6.866  1.00 31.86    -0.074 C 
HETATM   28  C26 VFQ 6 619     -33.718 129.609   7.734  1.00 31.86    -0.048 C 
HETATM   29  C27 VFQ 6 619     -34.624 130.252   8.710  1.00 31.86     0.009 C 
HETATM   30  C28 VFQ 6 619     -35.225 131.400   8.384  1.00 31.86     0.007 C 
HETATM   31  C29 VFQ 6 619     -36.306 131.920   9.254  1.00 45.52    -0.062 C 
HETATM   32  C30 VFQ 6 619     -36.855 133.070   8.844  1.00 45.52     0.007 C 
HETATM   33  C31 VFQ 6 619     -37.929 133.772   9.531  1.00 45.52     0.001 C 
HETATM   34  C32 VFQ 6 619     -38.330 134.922   9.012  1.00 45.52     0.007 C 
HETATM   35  C33 VFQ 6 619     -39.385 135.732   9.633  1.00 45.52    -0.062 C 
HETATM   36  C34 VFQ 6 619     -39.655 136.915   9.056  1.00 45.52     0.007 C 
HETATM   37  C35 VFQ 6 619     -40.664 137.841   9.555  1.00 45.52     0.001 C 
HETATM   38  C36 VFQ 6 619     -33.815 127.419   8.944  1.00 31.86     0.020 C 
HETATM   39  C37 VFQ 6 619     -35.105 127.828   6.881  1.00 31.86     0.020 C 
HETATM   40  C38 VFQ 6 619     -32.383 131.637   7.219  1.00 31.86     0.044 C 
HETATM   41  C39 VFQ 6 619     -36.738 131.159  10.471  1.00 45.52     0.048 C 
HETATM   42  C40 VFQ 6 619     -40.067 135.202  10.861  1.00 45.52     0.048 C 
HETATM   43  O23 VFQ 6 619     -31.652 127.685   4.636  1.00 31.86    -0.395 OA
ATOM     44  H23 VFQ 6 619     -31.175 128.265   4.056  1.00  0.00     0.210 HD
ENDROOT
TORSDOF 12
BEGIN_RES PHE A  61
REMARK  2 active torsions:
REMARK  status: ('A' for Active; 'I' for Inactive)
REMARK    1  A    between atoms: CA   and  CB  
REMARK    2  A    between atoms: CB   and  CG  
ROOT
ATOM      1  CA  PHE A  61     -36.237 128.293  12.768  1.00 39.40     0.164 C 
ENDROOT
BRANCH   1   2
ATOM      2  CB  PHE A  61     -36.813 128.951  11.509  1.00 39.41     0.058 C 
BRANCH   2   3
ATOM      3  CG  PHE A  61     -37.041 128.001  10.357  1.00 39.01    -0.020 A 
ATOM      4  CD2 PHE A  61     -36.320 126.822  10.254  1.00 40.32    -0.004 A 
ATOM      5  CE2 PHE A  61     -36.529 125.951   9.192  1.00 40.20    -0.000 A 
ATOM      6  CZ  PHE A  61     -37.463 126.247   8.225  1.00 40.34    -0.000 A 
ATOM      7  CE1 PHE A  61     -38.189 127.413   8.315  1.00 41.51    -0.000 A 
ATOM      8  CD1 PHE A  61     -37.976 128.288   9.373  1.00 39.94    -0.004 A 
ENDBRANCH   2   3
ENDBRANCH   1   2
END_RES PHE A  61
BEGIN_RES VAL A 134
REMARK  1 active torsions:
REMARK  status: ('A' for Active; 'I' for Inactive)
REMARK    3  A    between atoms: CA   and  CB  
ROOT
ATOM      9  CA  VAL A 134     -29.766 132.051   9.815  1.00 40.75     0.159 C 
ENDROOT
BRANCH   9  10
ATOM     10  CB  VAL A 134     -30.864 132.765   9.009  1.00 40.76     0.029 C 
ATOM     11  CG1 VAL A 134     -32.119 132.945   9.851  1.00 41.76     0.002 C 
ATOM     12  CG2 VAL A 134     -30.382 134.101   8.465  1.00 40.56     0.002 C 
ENDBRANCH   9  10
END_RES VAL A 134
BEGIN_RES TYR A 338
REMARK  3 active torsions:
REMARK  status: ('A' for Active; 'I' for Inactive)
REMARK    4  A    between atoms: CA   and  CB  
REMARK    5  A    between atoms: CB   and  CG  
REMARK    6  A    between atoms: CZ   and  OH  
ROOT
ATOM     13  CA  TYR A 338     -41.631 124.950   6.058  1.00 38.23     0.164 C 
ENDROOT
BRANCH  13  14
ATOM     14  CB  TYR A 338     -41.621 126.456   6.339  1.00 39.15     0.058 C 
BRANCH  14  15
ATOM     15  CG  TYR A 338     -40.399 127.205   5.859  1.00 39.03    -0.020 A 
ATOM     16  CD2 TYR A 338     -40.231 128.544   6.169  1.00 40.65    -0.002 A 
ATOM     17  CE2 TYR A 338     -39.131 129.266   5.732  1.00 40.91     0.024 A 
ATOM     18  CZ  TYR A 338     -38.164 128.645   4.964  1.00 42.33     0.089 A 
ATOM     19  CE1 TYR A 338     -38.307 127.306   4.646  1.00 40.63     0.024 A 
ATOM     20  CD1 TYR A 338     -39.421 126.605   5.081  1.00 39.27    -0.002 A 
BRANCH  18  21
ATOM     21  OH  TYR A 338     -37.073 129.346   4.532  1.00 43.36    -0.359 OA
ATOM     22  HH  TYR A 338     -37.170 130.038   3.889  1.00  0.00     0.217 HD
ENDBRANCH  18  21
ENDBRANCH  14  15
ENDBRANCH  13  14
END_RES TYR A 338
ENDMDL
