MODEL 1
REMARK VINA RESULT:   -10.777      0.000      0.000
REMARK INTER + INTRA:         -13.096
REMARK INTER:                 -10.777
REMARK INTRA:                  -2.319
REMARK UNBOUND:                -2.319
REMARK  0 active torsions:
REMARK  status: ('A' for Active; 'I' for Inactive)
REMARK       I    between atoms: C3_3  and  O3_21 
REMARK       I    between atoms: C6_6  and  C7_7 
REMARK       I    between atoms: C8_8  and  C9_9 
REMARK       I    between atoms: C10_10  and  C11_11 
REMARK       I    between atoms: C12_12  and  C13_13 
REMARK       I    between atoms: C14_14  and  C15_15 
REMARK       I    between atoms: C23_25  and  O23_43 
REMARK       I    between atoms: C26_28  and  C27_29 
REMARK       I    between atoms: C28_30  and  C29_31 
REMARK       I    between atoms: C30_32  and  C31_33 
REMARK       I    between atoms: C32_34  and  C33_35 
REMARK       I    between atoms: C34_36  and  C35_37 
ROOT
HETATM    1  C1  VFQ 9 616     -34.336 127.073   6.570  1.00 76.22    -0.018 C 
HETATM    2  C2  VFQ 9 616     -33.983 126.681   5.134  1.00 77.20     0.045 C 
HETATM    3  C3  VFQ 9 616     -32.855 127.462   4.467  1.00 77.70     0.123 C 
HETATM    4  C4  VFQ 9 616     -31.752 127.771   5.461  1.00 77.16     0.066 C 
HETATM    5  C5  VFQ 9 616     -32.344 128.568   6.590  1.00 77.00    -0.074 C 
HETATM    6  C6  VFQ 9 616     -33.512 128.214   7.126  1.00 75.82    -0.048 C 
HETATM    7  C7  VFQ 9 616     -34.045 128.960   8.286  1.00 74.01     0.009 C 
HETATM    8  C8  VFQ 9 616     -34.727 130.083   8.076  1.00 71.77     0.007 C 
HETATM    9  C9  VFQ 9 616     -35.297 130.885   9.172  1.00 69.92    -0.062 C 
HETATM   10  C10 VFQ 9 616     -35.927 132.016   8.834  1.00 69.51     0.007 C 
HETATM   11  C11 VFQ 9 616     -36.565 132.938   9.767  1.00 69.37     0.001 C 
HETATM   12  C12 VFQ 9 616     -37.334 133.850   9.178  1.00 71.55     0.007 C 
HETATM   13  C13 VFQ 9 616     -38.104 134.890   9.881  1.00 72.10    -0.062 C 
HETATM   14  C14 VFQ 9 616     -38.944 135.636   9.144  1.00 74.51     0.007 C 
HETATM   15  C15 VFQ 9 616     -39.776 136.690   9.715  1.00 77.06     0.001 C 
HETATM   16  C16 VFQ 9 616     -34.145 125.858   7.468  1.00 75.57     0.020 C 
HETATM   17  C17 VFQ 9 616     -35.797 127.504   6.612  1.00 77.01     0.020 C 
HETATM   18  C18 VFQ 9 616     -31.494 129.629   7.224  1.00 76.92     0.044 C 
HETATM   19  C19 VFQ 9 616     -35.177 130.438  10.599  1.00 68.71     0.048 C 
HETATM   20  C20 VFQ 9 616     -37.954 135.100  11.359  1.00 70.74     0.048 C 
HETATM   21  O3  VFQ 9 616     -32.302 126.682   3.401  1.00 79.46    -0.395 OA
ATOM     22  H3  VFQ 9 616     -31.599 127.169   2.986  1.00  0.00     0.210 HD
HETATM   23  C21 VFQ 9 616     -49.190 144.878  11.592  1.00 73.24    -0.018 C 
HETATM   24  C22 VFQ 9 616     -49.929 145.926  12.427  1.00 72.84     0.045 C 
HETATM   25  C23 VFQ 9 616     -49.374 147.343  12.394  1.00 72.53     0.123 C 
HETATM   26  C24 VFQ 9 616     -47.859 147.314  12.465  1.00 72.61     0.066 C 
HETATM   27  C25 VFQ 9 616     -47.324 146.510  11.309  1.00 72.68    -0.074 C 
HETATM   28  C26 VFQ 9 616     -47.893 145.355  10.961  1.00 72.79    -0.048 C 
HETATM   29  C27 VFQ 9 616     -47.245 144.499   9.937  1.00 71.90     0.009 C 
HETATM   30  C28 VFQ 9 616     -46.266 143.659  10.279  1.00 71.51     0.007 C 
HETATM   31  C29 VFQ 9 616     -45.594 142.785   9.303  1.00 94.71    -0.062 C 
HETATM   32  C30 VFQ 9 616     -44.682 141.910   9.751  1.00 92.10     0.007 C 
HETATM   33  C31 VFQ 9 616     -43.965 140.986   8.876  1.00 90.22     0.001 C 
HETATM   34  C32 VFQ 9 616     -43.104 140.166   9.469  1.00 87.90     0.007 C 
HETATM   35  C33 VFQ 9 616     -42.291 139.153   8.768  1.00 85.43    -0.062 C 
HETATM   36  C34 VFQ 9 616     -41.445 138.414   9.504  1.00 81.82     0.007 C 
HETATM   37  C35 VFQ 9 616     -40.602 137.375   8.924  1.00 79.00     0.001 C 
HETATM   38  C36 VFQ 9 616     -50.113 144.427  10.466  1.00 72.68     0.020 C 
HETATM   39  C37 VFQ 9 616     -48.880 143.690  12.494  1.00 73.05     0.020 C 
HETATM   40  C38 VFQ 9 616     -46.145 147.041  10.546  1.00 72.13     0.044 C 
HETATM   41  C39 VFQ 9 616     -45.928 142.868   7.842  1.00 94.19     0.048 C 
HETATM   42  C40 VFQ 9 616     -42.412 138.956   7.284  1.00 84.99     0.048 C 
HETATM   43  O23 VFQ 9 616     -49.884 148.082  13.513  1.00 71.04    -0.395 OA
ATOM     44  H23 VFQ 9 616     -49.538 148.966  13.492  1.00  0.00     0.210 HD
ENDROOT
TORSDOF 12
BEGIN_RES PHE A  61
REMARK  2 active torsions:
REMARK  status: ('A' for Active; 'I' for Inactive)
REMARK    1  A    between atoms: CA   and  CB  
REMARK    2  A    between atoms: CB   and  CG  
ROOT
ATOM      1  CA  PHE A  61     -36.237 128.293  12.768  1.00 39.40     0.164 C 
ENDROOT
BRANCH   1   2
ATOM      2  CB  PHE A  61     -36.813 128.951  11.509  1.00 39.41     0.058 C 
BRANCH   2   3
ATOM      3  CG  PHE A  61     -37.088 127.993  10.374  1.00 39.01    -0.020 A 
ATOM      4  CD2 PHE A  61     -36.371 126.814  10.249  1.00 40.32    -0.004 A 
ATOM      5  CE2 PHE A  61     -36.623 125.935   9.203  1.00 40.20    -0.000 A 
ATOM      6  CZ  PHE A  61     -37.596 126.223   8.274  1.00 40.34    -0.000 A 
ATOM      7  CE1 PHE A  61     -38.319 127.390   8.385  1.00 41.51    -0.000 A 
ATOM      8  CD1 PHE A  61     -38.063 128.272   9.427  1.00 39.94    -0.004 A 
ENDBRANCH   2   3
ENDBRANCH   1   2
END_RES PHE A  61
BEGIN_RES VAL A 134
REMARK  1 active torsions:
REMARK  status: ('A' for Active; 'I' for Inactive)
REMARK    3  A    between atoms: CA   and  CB  
ROOT
ATOM      9  CA  VAL A 134     -29.766 132.051   9.815  1.00 40.75     0.159 C 
ENDROOT
BRANCH   9  10
ATOM     10  CB  VAL A 134     -30.864 132.765   9.009  1.00 40.76     0.029 C 
ATOM     11  CG1 VAL A 134     -30.884 132.269   7.571  1.00 41.76     0.002 C 
ATOM     12  CG2 VAL A 134     -32.231 132.602   9.656  1.00 40.56     0.002 C 
ENDBRANCH   9  10
END_RES VAL A 134
BEGIN_RES TYR A 338
REMARK  3 active torsions:
REMARK  status: ('A' for Active; 'I' for Inactive)
REMARK    4  A    between atoms: CA   and  CB  
REMARK    5  A    between atoms: CB   and  CG  
REMARK    6  A    between atoms: CZ   and  OH  
ROOT
ATOM     13  CA  TYR A 338     -41.631 124.950   6.058  1.00 38.23     0.164 C 
ENDROOT
BRANCH  13  14
ATOM     14  CB  TYR A 338     -41.621 126.456   6.339  1.00 39.15     0.058 C 
BRANCH  14  15
ATOM     15  CG  TYR A 338     -40.418 127.212   5.823  1.00 39.03    -0.020 A 
ATOM     16  CD2 TYR A 338     -40.257 128.556   6.114  1.00 40.65    -0.002 A 
ATOM     17  CE2 TYR A 338     -39.174 129.283   5.645  1.00 40.91     0.024 A 
ATOM     18  CZ  TYR A 338     -38.220 128.664   4.860  1.00 42.33     0.089 A 
ATOM     19  CE1 TYR A 338     -38.356 127.321   4.559  1.00 40.63     0.024 A 
ATOM     20  CD1 TYR A 338     -39.453 126.614   5.027  1.00 39.27    -0.002 A 
BRANCH  18  21
ATOM     21  OH  TYR A 338     -37.146 129.371   4.395  1.00 43.36    -0.359 OA
ATOM     22  HH  TYR A 338     -36.584 129.843   4.998  1.00  0.00     0.217 HD
ENDBRANCH  18  21
ENDBRANCH  14  15
ENDBRANCH  13  14
END_RES TYR A 338
ENDMDL
