MODEL 1
REMARK VINA RESULT:   -10.595      0.000      0.000
REMARK INTER + INTRA:         -13.039
REMARK INTER:                 -10.595
REMARK INTRA:                  -2.445
REMARK UNBOUND:                -2.445
REMARK  0 active torsions:
REMARK  status: ('A' for Active; 'I' for Inactive)
REMARK       I    between atoms: C3_3  and  O3_21 
REMARK       I    between atoms: C6_6  and  C7_7 
REMARK       I    between atoms: C8_8  and  C9_9 
REMARK       I    between atoms: C10_10  and  C11_11 
REMARK       I    between atoms: C12_12  and  C13_13 
REMARK       I    between atoms: C14_14  and  C15_15 
REMARK       I    between atoms: C23_25  and  O23_43 
REMARK       I    between atoms: C26_28  and  C27_29 
REMARK       I    between atoms: C28_30  and  C29_31 
REMARK       I    between atoms: C30_32  and  C31_33 
REMARK       I    between atoms: C32_34  and  C33_35 
REMARK       I    between atoms: C34_36  and  C35_37 
ROOT
HETATM    1  C1  VFQ 9 616     -34.341 127.061   6.536  1.00 76.22    -0.018 C 
HETATM    2  C2  VFQ 9 616     -34.002 126.666   5.097  1.00 77.20     0.045 C 
HETATM    3  C3  VFQ 9 616     -32.884 127.449   4.416  1.00 77.70     0.123 C 
HETATM    4  C4  VFQ 9 616     -31.771 127.764   5.396  1.00 77.16     0.066 C 
HETATM    5  C5  VFQ 9 616     -32.353 128.563   6.529  1.00 77.00    -0.074 C 
HETATM    6  C6  VFQ 9 616     -33.514 128.207   7.079  1.00 75.82    -0.048 C 
HETATM    7  C7  VFQ 9 616     -34.037 128.955   8.243  1.00 74.01     0.009 C 
HETATM    8  C8  VFQ 9 616     -34.725 130.075   8.037  1.00 71.77     0.007 C 
HETATM    9  C9  VFQ 9 616     -35.285 130.879   9.136  1.00 69.92    -0.062 C 
HETATM   10  C10 VFQ 9 616     -35.923 132.007   8.801  1.00 69.51     0.007 C 
HETATM   11  C11 VFQ 9 616     -36.554 132.929   9.738  1.00 69.37     0.001 C 
HETATM   12  C12 VFQ 9 616     -37.332 133.837   9.154  1.00 71.55     0.007 C 
HETATM   13  C13 VFQ 9 616     -38.098 134.877   9.862  1.00 72.10    -0.062 C 
HETATM   14  C14 VFQ 9 616     -38.949 135.618   9.132  1.00 74.51     0.007 C 
HETATM   15  C15 VFQ 9 616     -39.778 136.670   9.709  1.00 77.06     0.001 C 
HETATM   16  C16 VFQ 9 616     -34.136 125.850   7.436  1.00 75.57     0.020 C 
HETATM   17  C17 VFQ 9 616     -35.803 127.488   6.592  1.00 77.01     0.020 C 
HETATM   18  C18 VFQ 9 616     -31.500 129.629   7.150  1.00 76.92     0.044 C 
HETATM   19  C19 VFQ 9 616     -35.149 130.437  10.563  1.00 68.71     0.048 C 
HETATM   20  C20 VFQ 9 616     -37.932 135.092  11.338  1.00 70.74     0.048 C 
HETATM   21  O3  VFQ 9 616     -32.340 126.667   3.346  1.00 79.46    -0.395 OA
ATOM     22  H3  VFQ 9 616     -33.037 126.469   2.732  1.00  0.00     0.210 HD
HETATM   23  C21 VFQ 9 616     -49.266 144.831  11.559  1.00 59.27    -0.018 C 
HETATM   24  C22 VFQ 9 616     -49.934 145.810  12.511  1.00 64.60     0.045 C 
HETATM   25  C23 VFQ 9 616     -49.571 147.263  12.292  1.00 63.28     0.123 C 
HETATM   26  C24 VFQ 9 616     -48.075 147.428  12.324  1.00 61.00     0.066 C 
HETATM   27  C25 VFQ 9 616     -47.432 146.530  11.305  1.00 64.87    -0.074 C 
HETATM   28  C26 VFQ 9 616     -47.950 145.329  10.977  1.00 63.96    -0.048 C 
HETATM   29  C27 VFQ 9 616     -47.268 144.453   9.987  1.00 64.82     0.009 C 
HETATM   30  C28 VFQ 9 616     -46.282 143.615  10.320  1.00 58.91     0.007 C 
HETATM   31  C29 VFQ 9 616     -45.620 142.744   9.341  1.00 94.71    -0.062 C 
HETATM   32  C30 VFQ 9 616     -44.700 141.875   9.783  1.00 92.10     0.007 C 
HETATM   33  C31 VFQ 9 616     -43.990 140.950   8.902  1.00 90.22     0.001 C 
HETATM   34  C32 VFQ 9 616     -43.120 140.134   9.489  1.00 87.90     0.007 C 
HETATM   35  C33 VFQ 9 616     -42.312 139.122   8.782  1.00 85.43    -0.062 C 
HETATM   36  C34 VFQ 9 616     -41.455 138.389   9.511  1.00 81.82     0.007 C 
HETATM   37  C35 VFQ 9 616     -40.615 137.350   8.926  1.00 79.00     0.001 C 
HETATM   38  C36 VFQ 9 616     -50.199 144.589  10.382  1.00 56.55     0.020 C 
HETATM   39  C37 VFQ 9 616     -49.116 143.535  12.347  1.00 59.14     0.020 C 
HETATM   40  C38 VFQ 9 616     -46.180 147.085  10.688  1.00 61.00     0.044 C 
HETATM   41  C39 VFQ 9 616     -45.971 142.821   7.884  1.00 94.19     0.048 C 
HETATM   42  C40 VFQ 9 616     -42.448 138.919   7.301  1.00 84.99     0.048 C 
HETATM   43  O23 VFQ 9 616     -50.149 148.050  13.336  1.00 73.40    -0.395 OA
ATOM     44  H23 VFQ 9 616     -49.922 148.962  13.199  1.00  0.00     0.210 HD
ENDROOT
TORSDOF 12
BEGIN_RES PHE A  61
REMARK  2 active torsions:
REMARK  status: ('A' for Active; 'I' for Inactive)
REMARK    1  A    between atoms: CA   and  CB  
REMARK    2  A    between atoms: CB   and  CG  
ROOT
ATOM      1  CA  PHE A  61     -36.237 128.293  12.768  1.00 39.40     0.164 C 
ENDROOT
BRANCH   1   2
ATOM      2  CB  PHE A  61     -36.813 128.951  11.509  1.00 39.41     0.058 C 
BRANCH   2   3
ATOM      3  CG  PHE A  61     -37.083 127.994  10.373  1.00 39.01    -0.020 A 
ATOM      4  CD2 PHE A  61     -36.364 126.816  10.248  1.00 40.32    -0.004 A 
ATOM      5  CE2 PHE A  61     -36.611 125.938   9.200  1.00 40.20    -0.000 A 
ATOM      6  CZ  PHE A  61     -37.582 126.226   8.268  1.00 40.34    -0.000 A 
ATOM      7  CE1 PHE A  61     -38.307 127.391   8.379  1.00 41.51    -0.000 A 
ATOM      8  CD1 PHE A  61     -38.056 128.273   9.423  1.00 39.94    -0.004 A 
ENDBRANCH   2   3
ENDBRANCH   1   2
END_RES PHE A  61
BEGIN_RES VAL A 134
REMARK  1 active torsions:
REMARK  status: ('A' for Active; 'I' for Inactive)
REMARK    3  A    between atoms: CA   and  CB  
ROOT
ATOM      9  CA  VAL A 134     -29.766 132.051   9.815  1.00 40.75     0.159 C 
ENDROOT
BRANCH   9  10
ATOM     10  CB  VAL A 134     -30.864 132.765   9.009  1.00 40.76     0.029 C 
ATOM     11  CG1 VAL A 134     -30.884 132.269   7.571  1.00 41.76     0.002 C 
ATOM     12  CG2 VAL A 134     -32.231 132.602   9.656  1.00 40.56     0.002 C 
ENDBRANCH   9  10
END_RES VAL A 134
BEGIN_RES TYR A 338
REMARK  3 active torsions:
REMARK  status: ('A' for Active; 'I' for Inactive)
REMARK    4  A    between atoms: CA   and  CB  
REMARK    5  A    between atoms: CB   and  CG  
REMARK    6  A    between atoms: CZ   and  OH  
ROOT
ATOM     13  CA  TYR A 338     -41.631 124.950   6.058  1.00 38.23     0.164 C 
ENDROOT
BRANCH  13  14
ATOM     14  CB  TYR A 338     -41.621 126.456   6.339  1.00 39.15     0.058 C 
BRANCH  14  15
ATOM     15  CG  TYR A 338     -40.415 127.211   5.829  1.00 39.03    -0.020 A 
ATOM     16  CD2 TYR A 338     -40.256 128.555   6.118  1.00 40.65    -0.002 A 
ATOM     17  CE2 TYR A 338     -39.170 129.282   5.654  1.00 40.91     0.024 A 
ATOM     18  CZ  TYR A 338     -38.210 128.661   4.878  1.00 42.33     0.089 A 
ATOM     19  CE1 TYR A 338     -38.344 127.316   4.580  1.00 40.63     0.024 A 
ATOM     20  CD1 TYR A 338     -39.444 126.610   5.043  1.00 39.27    -0.002 A 
BRANCH  18  21
ATOM     21  OH  TYR A 338     -37.133 129.366   4.419  1.00 43.36    -0.359 OA
ATOM     22  HH  TYR A 338     -37.176 129.822   3.586  1.00  0.00     0.217 HD
ENDBRANCH  18  21
ENDBRANCH  14  15
ENDBRANCH  13  14
END_RES TYR A 338
ENDMDL
