MODEL 1
REMARK VINA RESULT:   -11.235      0.000      0.000
REMARK INTER + INTRA:         -12.016
REMARK INTER:                 -11.235
REMARK INTRA:                  -0.781
REMARK UNBOUND:                -0.781
REMARK  0 active torsions:
REMARK  status: ('A' for Active; 'I' for Inactive)
REMARK       I    between atoms: C3_3  and  O3_21 
REMARK       I    between atoms: C6_6  and  C7_7 
REMARK       I    between atoms: C8_8  and  C9_9 
REMARK       I    between atoms: C10_10  and  C11_11 
REMARK       I    between atoms: C12_12  and  C13_13 
REMARK       I    between atoms: C14_14  and  C15_15 
REMARK       I    between atoms: C23_25  and  O23_43 
REMARK       I    between atoms: C26_28  and  C27_29 
REMARK       I    between atoms: C28_30  and  C29_31 
REMARK       I    between atoms: C30_32  and  C31_33 
REMARK       I    between atoms: C32_34  and  C33_35 
REMARK       I    between atoms: C34_36  and  C35_37 
ROOT
HETATM    1  C1  VFQ B1621     -49.548 146.719  11.680  1.00 16.49    -0.018 C 
HETATM    2  C2  VFQ B1621     -50.589 147.240  12.689  1.00 14.93     0.045 C 
HETATM    3  C3  VFQ B1621     -50.130 148.012  13.922  1.00 15.86     0.123 C 
HETATM    4  C4  VFQ B1621     -48.730 148.647  13.807  1.00 14.41     0.066 C 
HETATM    5  C5  VFQ B1621     -47.732 148.114  12.815  1.00 15.44    -0.074 C 
HETATM    6  C6  VFQ B1621     -48.077 147.232  11.809  1.00 14.73    -0.048 C 
HETATM    7  C7  VFQ B1621     -47.132 146.721  10.786  1.00 14.04     0.009 C 
HETATM    8  C8  VFQ B1621     -46.268 145.694  10.970  1.00 12.72     0.007 C 
HETATM    9  C9  VFQ B1621     -45.264 145.157  10.047  1.00 12.70    -0.062 C 
HETATM   10  C10 VFQ B1621     -44.614 144.031  10.423  1.00 13.26     0.007 C 
HETATM   11  C11 VFQ B1621     -43.664 143.268   9.645  1.00 13.12     0.001 C 
HETATM   12  C12 VFQ B1621     -43.133 142.115  10.115  1.00 12.34     0.007 C 
HETATM   13  C13 VFQ B1621     -42.258 141.179   9.384  1.00 12.89    -0.062 C 
HETATM   14  C14 VFQ B1621     -41.845 140.059  10.022  1.00 12.03     0.007 C 
HETATM   15  C15 VFQ B1621     -41.030 138.992   9.477  1.00 13.59     0.001 C 
HETATM   16  C16 VFQ B1621     -50.170 147.166  10.332  1.00 14.27     0.020 C 
HETATM   17  C17 VFQ B1621     -49.573 145.171  11.757  1.00 12.26     0.020 C 
HETATM   18  C18 VFQ B1621     -46.386 148.726  13.021  1.00 13.78     0.044 C 
HETATM   19  C19 VFQ B1621     -45.081 145.847   8.727  1.00  8.79     0.048 C 
HETATM   20  C20 VFQ B1621     -41.912 141.522   7.954  1.00  8.63     0.048 C 
HETATM   21  O3  VFQ B1621     -51.095 148.993  14.273  1.00 14.46    -0.395 OA
ATOM     22  H3  VFQ B1621     -50.809 149.474  15.041  1.00  0.00     0.210 HD
HETATM   23  C21 VFQ B1621     -34.155 128.386   6.952  1.00 98.50    -0.018 C 
HETATM   24  C22 VFQ B1621     -33.506 127.929   5.660  1.00 95.05     0.045 C 
HETATM   25  C23 VFQ B1621     -32.003 128.082   5.703  1.00 91.19     0.123 C 
HETATM   26  C24 VFQ B1621     -31.616 129.529   5.930  1.00 95.39     0.066 C 
HETATM   27  C25 VFQ B1621     -32.550 130.293   6.829  1.00 94.24    -0.074 C 
HETATM   28  C26 VFQ B1621     -33.646 129.749   7.405  1.00 98.17    -0.048 C 
HETATM   29  C27 VFQ B1621     -34.369 130.421   8.526  1.00 96.30     0.009 C 
HETATM   30  C28 VFQ B1621     -35.311 131.351   8.336  1.00 99.74     0.007 C 
HETATM   31  C29 VFQ B1621     -36.081 132.029   9.405  1.00 21.33    -0.062 C 
HETATM   32  C30 VFQ B1621     -36.964 132.990   9.055  1.00 19.38     0.007 C 
HETATM   33  C31 VFQ B1621     -37.784 133.763   9.959  1.00 19.44     0.001 C 
HETATM   34  C32 VFQ B1621     -38.482 134.844   9.519  1.00 17.56     0.007 C 
HETATM   35  C33 VFQ B1621     -39.310 135.789  10.286  1.00 14.52    -0.062 C 
HETATM   36  C34 VFQ B1621     -39.821 136.857   9.634  1.00 13.82     0.007 C 
HETATM   37  C35 VFQ B1621     -40.625 137.930  10.196  1.00 15.60     0.001 C 
HETATM   38  C36 VFQ B1621     -33.837 127.412   8.069  1.00 90.00     0.020 C 
HETATM   39  C37 VFQ B1621     -35.652 128.308   6.696  1.00 93.85     0.020 C 
HETATM   40  C38 VFQ B1621     -32.154 131.726   6.994  1.00 91.76     0.044 C 
HETATM   41  C39 VFQ B1621     -35.773 131.663  10.822  1.00 21.43     0.048 C 
HETATM   42  C40 VFQ B1621     -39.473 135.538  11.750  1.00 13.28     0.048 C 
HETATM   43  O23 VFQ B1621     -31.462 127.676   4.446  1.00 92.07    -0.395 OA
ATOM     44  H23 VFQ B1621     -31.704 126.768   4.304  1.00  0.00     0.210 HD
ENDROOT
TORSDOF 12
BEGIN_RES PHE A  61
REMARK  2 active torsions:
REMARK  status: ('A' for Active; 'I' for Inactive)
REMARK    1  A    between atoms: CA   and  CB  
REMARK    2  A    between atoms: CB   and  CG  
ROOT
ATOM      1  CA  PHE A  61     -36.237 128.293  12.768  1.00 39.40     0.164 C 
ENDROOT
BRANCH   1   2
ATOM      2  CB  PHE A  61     -36.813 128.951  11.509  1.00 39.41     0.058 C 
BRANCH   2   3
ATOM      3  CG  PHE A  61     -37.001 128.010  10.343  1.00 39.01    -0.020 A 
ATOM      4  CD2 PHE A  61     -36.201 126.887  10.199  1.00 40.32    -0.004 A 
ATOM      5  CE2 PHE A  61     -36.373 126.024   9.124  1.00 40.20    -0.000 A 
ATOM      6  CZ  PHE A  61     -37.349 126.271   8.185  1.00 40.34    -0.000 A 
ATOM      7  CE1 PHE A  61     -38.154 127.380   8.316  1.00 41.51    -0.000 A 
ATOM      8  CD1 PHE A  61     -37.978 128.247   9.386  1.00 39.94    -0.004 A 
ENDBRANCH   2   3
ENDBRANCH   1   2
END_RES PHE A  61
BEGIN_RES VAL A 134
REMARK  1 active torsions:
REMARK  status: ('A' for Active; 'I' for Inactive)
REMARK    3  A    between atoms: CA   and  CB  
ROOT
ATOM      9  CA  VAL A 134     -29.766 132.051   9.815  1.00 40.75     0.159 C 
ENDROOT
BRANCH   9  10
ATOM     10  CB  VAL A 134     -30.864 132.765   9.009  1.00 40.76     0.029 C 
ATOM     11  CG1 VAL A 134     -32.118 132.948   9.852  1.00 41.76     0.002 C 
ATOM     12  CG2 VAL A 134     -30.381 134.100   8.462  1.00 40.56     0.002 C 
ENDBRANCH   9  10
END_RES VAL A 134
BEGIN_RES TYR A 338
REMARK  3 active torsions:
REMARK  status: ('A' for Active; 'I' for Inactive)
REMARK    4  A    between atoms: CA   and  CB  
REMARK    5  A    between atoms: CB   and  CG  
REMARK    6  A    between atoms: CZ   and  OH  
ROOT
ATOM     13  CA  TYR A 338     -41.631 124.950   6.058  1.00 38.23     0.164 C 
ENDROOT
BRANCH  13  14
ATOM     14  CB  TYR A 338     -41.621 126.456   6.339  1.00 39.15     0.058 C 
BRANCH  14  15
ATOM     15  CG  TYR A 338     -40.418 127.212   5.822  1.00 39.03    -0.020 A 
ATOM     16  CD2 TYR A 338     -40.264 128.559   6.103  1.00 40.65    -0.002 A 
ATOM     17  CE2 TYR A 338     -39.182 129.287   5.633  1.00 40.91     0.024 A 
ATOM     18  CZ  TYR A 338     -38.221 128.665   4.858  1.00 42.33     0.089 A 
ATOM     19  CE1 TYR A 338     -38.351 127.318   4.567  1.00 40.63     0.024 A 
ATOM     20  CD1 TYR A 338     -39.447 126.611   5.036  1.00 39.27    -0.002 A 
BRANCH  18  21
ATOM     21  OH  TYR A 338     -37.148 129.371   4.392  1.00 43.36    -0.359 OA
ATOM     22  HH  TYR A 338     -36.973 129.421   3.459  1.00  0.00     0.217 HD
ENDBRANCH  18  21
ENDBRANCH  14  15
ENDBRANCH  13  14
END_RES TYR A 338
ENDMDL
MODEL 2
REMARK VINA RESULT:   -11.204      1.225      1.762
REMARK INTER + INTRA:         -11.985
REMARK INTER:                  -9.137
REMARK INTRA:                  -2.849
REMARK UNBOUND:                -0.781
REMARK  0 active torsions:
REMARK  status: ('A' for Active; 'I' for Inactive)
REMARK       I    between atoms: C3_3  and  O3_21 
REMARK       I    between atoms: C6_6  and  C7_7 
REMARK       I    between atoms: C8_8  and  C9_9 
REMARK       I    between atoms: C10_10  and  C11_11 
REMARK       I    between atoms: C12_12  and  C13_13 
REMARK       I    between atoms: C14_14  and  C15_15 
REMARK       I    between atoms: C23_25  and  O23_43 
REMARK       I    between atoms: C26_28  and  C27_29 
REMARK       I    between atoms: C28_30  and  C29_31 
REMARK       I    between atoms: C30_32  and  C31_33 
REMARK       I    between atoms: C32_34  and  C33_35 
REMARK       I    between atoms: C34_36  and  C35_37 
ROOT
HETATM    1  C1  VFQ B1621     -47.813 146.159  12.842  1.00 16.49    -0.018 C 
HETATM    2  C2  VFQ B1621     -48.613 146.779  14.003  1.00 14.93     0.045 C 
HETATM    3  C3  VFQ B1621     -47.889 147.578  15.082  1.00 15.86     0.123 C 
HETATM    4  C4  VFQ B1621     -46.512 148.132  14.666  1.00 14.41     0.066 C 
HETATM    5  C5  VFQ B1621     -45.751 147.504  13.530  1.00 15.44    -0.074 C 
HETATM    6  C6  VFQ B1621     -46.324 146.598  12.658  1.00 14.73    -0.048 C 
HETATM    7  C7  VFQ B1621     -45.619 145.993  11.501  1.00 14.04     0.009 C 
HETATM    8  C8  VFQ B1621     -44.783 144.931  11.569  1.00 12.72     0.007 C 
HETATM    9  C9  VFQ B1621     -44.002 144.301  10.500  1.00 12.70    -0.062 C 
HETATM   10  C10 VFQ B1621     -43.342 143.159  10.803  1.00 13.26     0.007 C 
HETATM   11  C11 VFQ B1621     -42.596 142.314   9.899  1.00 13.12     0.001 C 
HETATM   12  C12 VFQ B1621     -42.034 141.155  10.319  1.00 12.34     0.007 C 
HETATM   13  C13 VFQ B1621     -41.360 140.143   9.483  1.00 12.89    -0.062 C 
HETATM   14  C14 VFQ B1621     -40.880 139.032  10.089  1.00 12.03     0.007 C 
HETATM   15  C15 VFQ B1621     -40.235 137.900   9.454  1.00 13.59     0.001 C 
HETATM   16  C16 VFQ B1621     -48.665 146.579  11.617  1.00 14.27     0.020 C 
HETATM   17  C17 VFQ B1621     -47.890 144.620  13.004  1.00 12.26     0.020 C 
HETATM   18  C18 VFQ B1621     -44.365 148.052  13.440  1.00 13.78     0.044 C 
HETATM   19  C19 VFQ B1621     -44.049 144.922   9.135  1.00  8.79     0.048 C 
HETATM   20  C20 VFQ B1621     -41.284 140.405   7.997  1.00  8.63     0.048 C 
HETATM   21  O3  VFQ B1621     -48.724 148.623  15.560  1.00 14.46    -0.395 OA
ATOM     22  H3  VFQ B1621     -48.273 149.122  16.231  1.00  0.00     0.210 HD
HETATM   23  C21 VFQ B1621     -34.455 126.842   6.221  1.00 98.50    -0.018 C 
HETATM   24  C22 VFQ B1621     -34.091 126.295   4.855  1.00 95.05     0.045 C 
HETATM   25  C23 VFQ B1621     -32.603 126.370   4.599  1.00 91.19     0.123 C 
HETATM   26  C24 VFQ B1621     -32.117 127.802   4.670  1.00 95.39     0.066 C 
HETATM   27  C25 VFQ B1621     -32.823 128.654   5.690  1.00 94.24    -0.074 C 
HETATM   28  C26 VFQ B1621     -33.808 128.195   6.495  1.00 98.17    -0.048 C 
HETATM   29  C27 VFQ B1621     -34.269 128.952   7.696  1.00 96.30     0.009 C 
HETATM   30  C28 VFQ B1621     -35.188 129.923   7.642  1.00 99.74     0.007 C 
HETATM   31  C29 VFQ B1621     -35.705 130.686   8.801  1.00 21.33    -0.062 C 
HETATM   32  C30 VFQ B1621     -36.596 131.677   8.577  1.00 19.38     0.007 C 
HETATM   33  C31 VFQ B1621     -37.189 132.532   9.580  1.00 19.44     0.001 C 
HETATM   34  C32 VFQ B1621     -37.912 133.628   9.226  1.00 17.56     0.007 C 
HETATM   35  C33 VFQ B1621     -38.532 134.648  10.086  1.00 14.52    -0.062 C 
HETATM   36  C34 VFQ B1621     -39.113 135.712   9.489  1.00 13.82     0.007 C 
HETATM   37  C35 VFQ B1621     -39.744 136.850  10.138  1.00 15.60     0.001 C 
HETATM   38  C36 VFQ B1621     -33.969 125.903   7.306  1.00 90.00     0.020 C 
HETATM   39  C37 VFQ B1621     -35.975 126.833   6.262  1.00 93.85     0.020 C 
HETATM   40  C38 VFQ B1621     -32.340 130.070   5.699  1.00 91.76     0.044 C 
HETATM   41  C39 VFQ B1621     -35.143 130.367  10.150  1.00 21.43     0.048 C 
HETATM   42  C40 VFQ B1621     -38.417 134.470  11.565  1.00 13.28     0.048 C 
HETATM   43  O23 VFQ B1621     -32.336 125.881   3.285  1.00 92.07    -0.395 OA
ATOM     44  H23 VFQ B1621     -32.641 124.982   3.241  1.00  0.00     0.210 HD
ENDROOT
TORSDOF 12
BEGIN_RES PHE A  61
REMARK  2 active torsions:
REMARK  status: ('A' for Active; 'I' for Inactive)
REMARK    1  A    between atoms: CA   and  CB  
REMARK    2  A    between atoms: CB   and  CG  
ROOT
ATOM      1  CA  PHE A  61     -36.237 128.293  12.768  1.00 39.40     0.164 C 
ENDROOT
BRANCH   1   2
ATOM      2  CB  PHE A  61     -36.813 128.951  11.509  1.00 39.41     0.058 C 
BRANCH   2   3
ATOM      3  CG  PHE A  61     -37.078 127.995  10.371  1.00 39.01    -0.020 A 
ATOM      4  CD2 PHE A  61     -38.117 128.219   9.480  1.00 40.32    -0.004 A 
ATOM      5  CE2 PHE A  61     -38.362 127.337   8.436  1.00 40.20    -0.000 A 
ATOM      6  CZ  PHE A  61     -37.570 126.223   8.267  1.00 40.34    -0.000 A 
ATOM      7  CE1 PHE A  61     -36.533 125.988   9.142  1.00 41.51    -0.000 A 
ATOM      8  CD1 PHE A  61     -36.292 126.866  10.191  1.00 39.94    -0.004 A 
ENDBRANCH   2   3
ENDBRANCH   1   2
END_RES PHE A  61
BEGIN_RES VAL A 134
REMARK  1 active torsions:
REMARK  status: ('A' for Active; 'I' for Inactive)
REMARK    3  A    between atoms: CA   and  CB  
ROOT
ATOM      9  CA  VAL A 134     -29.766 132.051   9.815  1.00 40.75     0.159 C 
ENDROOT
BRANCH   9  10
ATOM     10  CB  VAL A 134     -30.864 132.765   9.009  1.00 40.76     0.029 C 
ATOM     11  CG1 VAL A 134     -31.091 132.069   7.675  1.00 41.76     0.002 C 
ATOM     12  CG2 VAL A 134     -32.163 132.863   9.794  1.00 40.56     0.002 C 
ENDBRANCH   9  10
END_RES VAL A 134
BEGIN_RES TYR A 338
REMARK  3 active torsions:
REMARK  status: ('A' for Active; 'I' for Inactive)
REMARK    4  A    between atoms: CA   and  CB  
REMARK    5  A    between atoms: CB   and  CG  
REMARK    6  A    between atoms: CZ   and  OH  
ROOT
ATOM     13  CA  TYR A 338     -41.631 124.950   6.058  1.00 38.23     0.164 C 
ENDROOT
BRANCH  13  14
ATOM     14  CB  TYR A 338     -41.621 126.456   6.339  1.00 39.15     0.058 C 
BRANCH  14  15
ATOM     15  CG  TYR A 338     -40.407 127.208   5.843  1.00 39.03    -0.020 A 
ATOM     16  CD2 TYR A 338     -40.220 128.537   6.181  1.00 40.65    -0.002 A 
ATOM     17  CE2 TYR A 338     -39.127 129.262   5.731  1.00 40.91     0.024 A 
ATOM     18  CZ  TYR A 338     -38.189 128.654   4.919  1.00 42.33     0.089 A 
ATOM     19  CE1 TYR A 338     -38.352 127.325   4.570  1.00 40.63     0.024 A 
ATOM     20  CD1 TYR A 338     -39.458 126.622   5.020  1.00 39.27    -0.002 A 
BRANCH  18  21
ATOM     21  OH  TYR A 338     -37.105 129.358   4.472  1.00 43.36    -0.359 OA
ATOM     22  HH  TYR A 338     -36.658 129.968   5.048  1.00  0.00     0.217 HD
ENDBRANCH  18  21
ENDBRANCH  14  15
ENDBRANCH  13  14
END_RES TYR A 338
ENDMDL
MODEL 3
REMARK VINA RESULT:    -9.711      1.360     17.161
REMARK INTER + INTRA:         -10.492
REMARK INTER:                  -7.379
REMARK INTRA:                  -3.113
REMARK UNBOUND:                -0.781
REMARK  0 active torsions:
REMARK  status: ('A' for Active; 'I' for Inactive)
REMARK       I    between atoms: C3_3  and  O3_21 
REMARK       I    between atoms: C6_6  and  C7_7 
REMARK       I    between atoms: C8_8  and  C9_9 
REMARK       I    between atoms: C10_10  and  C11_11 
REMARK       I    between atoms: C12_12  and  C13_13 
REMARK       I    between atoms: C14_14  and  C15_15 
REMARK       I    between atoms: C23_25  and  O23_43 
REMARK       I    between atoms: C26_28  and  C27_29 
REMARK       I    between atoms: C28_30  and  C29_31 
REMARK       I    between atoms: C30_32  and  C31_33 
REMARK       I    between atoms: C32_34  and  C33_35 
REMARK       I    between atoms: C34_36  and  C35_37 
ROOT
HETATM    1  C1  VFQ B1621     -34.551 127.242   6.046  1.00 16.49    -0.018 C 
HETATM    2  C2  VFQ B1621     -34.056 126.474   4.806  1.00 14.93     0.045 C 
HETATM    3  C3  VFQ B1621     -32.816 126.957   4.059  1.00 15.86     0.123 C 
HETATM    4  C4  VFQ B1621     -31.872 127.855   4.881  1.00 14.41     0.066 C 
HETATM    5  C5  VFQ B1621     -32.384 128.597   6.085  1.00 15.44    -0.074 C 
HETATM    6  C6  VFQ B1621     -33.611 128.331   6.660  1.00 14.73    -0.048 C 
HETATM    7  C7  VFQ B1621     -34.130 129.010   7.873  1.00 14.04     0.009 C 
HETATM    8  C8  VFQ B1621     -34.731 130.223   7.889  1.00 12.72     0.007 C 
HETATM    9  C9  VFQ B1621     -35.221 130.995   9.035  1.00 12.70    -0.062 C 
HETATM   10  C10 VFQ B1621     -35.910 132.129   8.770  1.00 13.26     0.007 C 
HETATM   11  C11 VFQ B1621     -36.570 132.994   9.721  1.00 13.12     0.001 C 
HETATM   12  C12 VFQ B1621     -37.286 134.070   9.317  1.00 12.34     0.007 C 
HETATM   13  C13 VFQ B1621     -38.108 134.956  10.164  1.00 12.89    -0.062 C 
HETATM   14  C14 VFQ B1621     -38.773 135.973   9.567  1.00 12.03     0.007 C 
HETATM   15  C15 VFQ B1621     -39.668 136.921  10.198  1.00 13.59     0.001 C 
HETATM   16  C16 VFQ B1621     -34.787 126.088   7.054  1.00 14.27     0.020 C 
HETATM   17  C17 VFQ B1621     -35.916 127.875   5.677  1.00 12.26     0.020 C 
HETATM   18  C18 VFQ B1621     -31.367 129.565   6.596  1.00 13.78     0.044 C 
HETATM   19  C19 VFQ B1621     -34.991 130.438  10.409  1.00  8.79     0.048 C 
HETATM   20  C20 VFQ B1621     -38.177 134.643  11.640  1.00  8.63     0.048 C 
HETATM   21  O3  VFQ B1621     -32.109 125.850   3.518  1.00 14.46    -0.395 OA
ATOM     22  H3  VFQ B1621     -31.337 126.151   3.053  1.00  0.00     0.210 HD
HETATM   23  C21 VFQ B1621     -47.956 146.264  13.387  1.00 98.50    -0.018 C 
HETATM   24  C22 VFQ B1621     -48.605 146.578  14.720  1.00 95.05     0.045 C 
HETATM   25  C23 VFQ B1621     -48.007 147.812  15.357  1.00 91.19     0.123 C 
HETATM   26  C24 VFQ B1621     -46.522 147.629  15.594  1.00 95.39     0.066 C 
HETATM   27  C25 VFQ B1621     -45.815 146.818  14.542  1.00 94.24    -0.074 C 
HETATM   28  C26 VFQ B1621     -46.435 146.293  13.461  1.00 98.17    -0.048 C 
HETATM   29  C27 VFQ B1621     -45.674 145.771  12.287  1.00 96.30     0.009 C 
HETATM   30  C28 VFQ B1621     -45.185 144.528  12.225  1.00 99.74     0.007 C 
HETATM   31  C29 VFQ B1621     -44.450 143.946  11.078  1.00 21.33    -0.062 C 
HETATM   32  C30 VFQ B1621     -43.969 142.688  11.188  1.00 19.38     0.007 C 
HETATM   33  C31 VFQ B1621     -43.219 141.972  10.183  1.00 19.44     0.001 C 
HETATM   34  C32 VFQ B1621     -42.607 140.793  10.475  1.00 17.56     0.007 C 
HETATM   35  C33 VFQ B1621     -41.751 139.955   9.619  1.00 14.52    -0.062 C 
HETATM   36  C34 VFQ B1621     -41.166 138.872  10.177  1.00 13.82     0.007 C 
HETATM   37  C35 VFQ B1621     -40.257 137.935   9.536  1.00 15.60     0.001 C 
HETATM   38  C36 VFQ B1621     -48.359 147.296  12.353  1.00 90.00     0.020 C 
HETATM   39  C37 VFQ B1621     -48.557 144.934  12.955  1.00 93.85     0.020 C 
HETATM   40  C38 VFQ B1621     -44.361 146.628  14.836  1.00 91.76     0.044 C 
HETATM   41  C39 VFQ B1621     -44.211 144.823   9.889  1.00 21.43     0.048 C 
HETATM   42  C40 VFQ B1621     -41.535 140.398   8.209  1.00 13.28     0.048 C 
HETATM   43  O23 VFQ B1621     -48.630 148.026  16.623  1.00 92.07    -0.395 OA
ATOM     44  H23 VFQ B1621     -49.561 148.141  16.474  1.00  0.00     0.210 HD
ENDROOT
TORSDOF 12
BEGIN_RES PHE A  61
REMARK  2 active torsions:
REMARK  status: ('A' for Active; 'I' for Inactive)
REMARK    1  A    between atoms: CA   and  CB  
REMARK    2  A    between atoms: CB   and  CG  
ROOT
ATOM      1  CA  PHE A  61     -36.237 128.293  12.768  1.00 39.40     0.164 C 
ENDROOT
BRANCH   1   2
ATOM      2  CB  PHE A  61     -36.813 128.951  11.509  1.00 39.41     0.058 C 
BRANCH   2   3
ATOM      3  CG  PHE A  61     -37.014 128.007  10.348  1.00 39.01    -0.020 A 
ATOM      4  CD2 PHE A  61     -36.237 126.867  10.215  1.00 40.32    -0.004 A 
ATOM      5  CE2 PHE A  61     -36.421 126.001   9.144  1.00 40.20    -0.000 A 
ATOM      6  CZ  PHE A  61     -37.384 126.263   8.197  1.00 40.34    -0.000 A 
ATOM      7  CE1 PHE A  61     -38.165 127.391   8.316  1.00 41.51    -0.000 A 
ATOM      8  CD1 PHE A  61     -37.978 128.260   9.382  1.00 39.94    -0.004 A 
ENDBRANCH   2   3
ENDBRANCH   1   2
END_RES PHE A  61
BEGIN_RES VAL A 134
REMARK  1 active torsions:
REMARK  status: ('A' for Active; 'I' for Inactive)
REMARK    3  A    between atoms: CA   and  CB  
ROOT
ATOM      9  CA  VAL A 134     -29.766 132.051   9.815  1.00 40.75     0.159 C 
ENDROOT
BRANCH   9  10
ATOM     10  CB  VAL A 134     -30.864 132.765   9.009  1.00 40.76     0.029 C 
ATOM     11  CG1 VAL A 134     -31.167 132.008   7.724  1.00 41.76     0.002 C 
ATOM     12  CG2 VAL A 134     -32.128 132.960   9.832  1.00 40.56     0.002 C 
ENDBRANCH   9  10
END_RES VAL A 134
BEGIN_RES TYR A 338
REMARK  3 active torsions:
REMARK  status: ('A' for Active; 'I' for Inactive)
REMARK    4  A    between atoms: CA   and  CB  
REMARK    5  A    between atoms: CB   and  CG  
REMARK    6  A    between atoms: CZ   and  OH  
ROOT
ATOM     13  CA  TYR A 338     -41.631 124.950   6.058  1.00 38.23     0.164 C 
ENDROOT
BRANCH  13  14
ATOM     14  CB  TYR A 338     -41.621 126.456   6.339  1.00 39.15     0.058 C 
BRANCH  14  15
ATOM     15  CG  TYR A 338     -40.437 127.218   5.790  1.00 39.03    -0.020 A 
ATOM     16  CD2 TYR A 338     -40.255 128.554   6.106  1.00 40.65    -0.002 A 
ATOM     17  CE2 TYR A 338     -39.189 129.287   5.609  1.00 40.91     0.024 A 
ATOM     18  CZ  TYR A 338     -38.273 128.682   4.770  1.00 42.33     0.089 A 
ATOM     19  CE1 TYR A 338     -38.430 127.347   4.443  1.00 40.63     0.024 A 
ATOM     20  CD1 TYR A 338     -39.510 126.634   4.941  1.00 39.27    -0.002 A 
BRANCH  18  21
ATOM     21  OH  TYR A 338     -37.215 129.395   4.276  1.00 43.36    -0.359 OA
ATOM     22  HH  TYR A 338     -36.854 130.122   4.769  1.00  0.00     0.217 HD
ENDBRANCH  18  21
ENDBRANCH  14  15
ENDBRANCH  13  14
END_RES TYR A 338
ENDMDL
MODEL 4
REMARK VINA RESULT:    -9.133      1.267     17.150
REMARK INTER + INTRA:          -9.915
REMARK INTER:                  -9.560
REMARK INTRA:                  -0.354
REMARK UNBOUND:                -0.781
REMARK  0 active torsions:
REMARK  status: ('A' for Active; 'I' for Inactive)
REMARK       I    between atoms: C3_3  and  O3_21 
REMARK       I    between atoms: C6_6  and  C7_7 
REMARK       I    between atoms: C8_8  and  C9_9 
REMARK       I    between atoms: C10_10  and  C11_11 
REMARK       I    between atoms: C12_12  and  C13_13 
REMARK       I    between atoms: C14_14  and  C15_15 
REMARK       I    between atoms: C23_25  and  O23_43 
REMARK       I    between atoms: C26_28  and  C27_29 
REMARK       I    between atoms: C28_30  and  C29_31 
REMARK       I    between atoms: C30_32  and  C31_33 
REMARK       I    between atoms: C32_34  and  C33_35 
REMARK       I    between atoms: C34_36  and  C35_37 
ROOT
HETATM    1  C1  VFQ B1621     -34.126 128.245   6.998  1.00 16.49    -0.018 C 
HETATM    2  C2  VFQ B1621     -33.348 127.465   5.922  1.00 14.93     0.045 C 
HETATM    3  C3  VFQ B1621     -32.091 128.071   5.305  1.00 15.86     0.123 C 
HETATM    4  C4  VFQ B1621     -31.416 129.168   6.152  1.00 14.41     0.066 C 
HETATM    5  C5  VFQ B1621     -32.202 129.916   7.194  1.00 15.44    -0.074 C 
HETATM    6  C6  VFQ B1621     -33.452 129.511   7.621  1.00 14.73    -0.048 C 
HETATM    7  C7  VFQ B1621     -34.237 130.196   8.677  1.00 14.04     0.009 C 
HETATM    8  C8  VFQ B1621     -34.998 131.300   8.488  1.00 12.72     0.007 C 
HETATM    9  C9  VFQ B1621     -35.759 132.076   9.471  1.00 12.70    -0.062 C 
HETATM   10  C10 VFQ B1621     -36.553 133.066   9.002  1.00 13.26     0.007 C 
HETATM   11  C11 VFQ B1621     -37.463 133.892   9.761  1.00 13.12     0.001 C 
HETATM   12  C12 VFQ B1621     -38.256 134.809   9.157  1.00 12.34     0.007 C 
HETATM   13  C13 VFQ B1621     -39.312 135.622   9.789  1.00 12.89    -0.062 C 
HETATM   14  C14 VFQ B1621     -40.017 136.473   9.007  1.00 12.03     0.007 C 
HETATM   15  C15 VFQ B1621     -41.121 137.320   9.410  1.00 13.59     0.001 C 
HETATM   16  C16 VFQ B1621     -34.345 127.152   8.077  1.00 14.27     0.020 C 
HETATM   17  C17 VFQ B1621     -35.496 128.627   6.384  1.00 12.26     0.020 C 
HETATM   18  C18 VFQ B1621     -31.420 131.067   7.738  1.00 13.78     0.044 C 
HETATM   19  C19 VFQ B1621     -35.661 131.673  10.913  1.00  8.79     0.048 C 
HETATM   20  C20 VFQ B1621     -39.555 135.421  11.266  1.00  8.63     0.048 C 
HETATM   21  O3  VFQ B1621     -31.161 127.048   4.981  1.00 14.46    -0.395 OA
ATOM     22  H3  VFQ B1621     -30.378 127.425   4.597  1.00  0.00     0.210 HD
HETATM   23  C21 VFQ B1621     -51.027 145.497  10.477  1.00 98.50    -0.018 C 
HETATM   24  C22 VFQ B1621     -51.905 145.814  11.671  1.00 95.05     0.045 C 
HETATM   25  C23 VFQ B1621     -51.590 147.173  12.255  1.00 91.19     0.123 C 
HETATM   26  C24 VFQ B1621     -50.147 147.240  12.708  1.00 95.39     0.066 C 
HETATM   27  C25 VFQ B1621     -49.183 146.466  11.851  1.00 94.24    -0.074 C 
HETATM   28  C26 VFQ B1621     -49.553 145.767  10.754  1.00 98.17    -0.048 C 
HETATM   29  C27 VFQ B1621     -48.559 145.276   9.754  1.00 96.30     0.009 C 
HETATM   30  C28 VFQ B1621     -47.896 144.122   9.885  1.00 99.74     0.007 C 
HETATM   31  C29 VFQ B1621     -46.923 143.571   8.914  1.00 21.33    -0.062 C 
HETATM   32  C30 VFQ B1621     -46.292 142.414   9.216  1.00 19.38     0.007 C 
HETATM   33  C31 VFQ B1621     -45.306 141.744   8.400  1.00 19.44     0.001 C 
HETATM   34  C32 VFQ B1621     -44.584 140.701   8.891  1.00 17.56     0.007 C 
HETATM   35  C33 VFQ B1621     -43.501 139.940   8.249  1.00 14.52    -0.062 C 
HETATM   36  C34 VFQ B1621     -42.859 139.008   8.988  1.00 13.82     0.007 C 
HETATM   37  C35 VFQ B1621     -41.741 138.174   8.576  1.00 15.60     0.001 C 
HETATM   38  C36 VFQ B1621     -51.412 146.369   9.299  1.00 90.00     0.020 C 
HETATM   39  C37 VFQ B1621     -51.362 144.061  10.105  1.00 93.85     0.020 C 
HETATM   40  C38 VFQ B1621     -47.776 146.527  12.358  1.00 91.76     0.044 C 
HETATM   41  C39 VFQ B1621     -46.635 144.375   7.686  1.00 21.43     0.048 C 
HETATM   42  C40 VFQ B1621     -43.140 140.297   6.844  1.00 13.28     0.048 C 
HETATM   43  O23 VFQ B1621     -52.419 147.389  13.396  1.00 92.07    -0.395 OA
ATOM     44  H23 VFQ B1621     -53.324 147.346  13.110  1.00  0.00     0.210 HD
ENDROOT
TORSDOF 12
BEGIN_RES PHE A  61
REMARK  2 active torsions:
REMARK  status: ('A' for Active; 'I' for Inactive)
REMARK    1  A    between atoms: CA   and  CB  
REMARK    2  A    between atoms: CB   and  CG  
ROOT
ATOM      1  CA  PHE A  61     -36.237 128.293  12.768  1.00 39.40     0.164 C 
ENDROOT
BRANCH   1   2
ATOM      2  CB  PHE A  61     -36.813 128.951  11.509  1.00 39.41     0.058 C 
BRANCH   2   3
ATOM      3  CG  PHE A  61     -37.008 128.008  10.346  1.00 39.01    -0.020 A 
ATOM      4  CD2 PHE A  61     -36.294 126.823  10.263  1.00 40.32    -0.004 A 
ATOM      5  CE2 PHE A  61     -36.473 125.958   9.190  1.00 40.20    -0.000 A 
ATOM      6  CZ  PHE A  61     -37.368 126.266   8.192  1.00 40.34    -0.000 A 
ATOM      7  CE1 PHE A  61     -38.087 127.439   8.261  1.00 41.51    -0.000 A 
ATOM      8  CD1 PHE A  61     -37.904 128.307   9.329  1.00 39.94    -0.004 A 
ENDBRANCH   2   3
ENDBRANCH   1   2
END_RES PHE A  61
BEGIN_RES VAL A 134
REMARK  1 active torsions:
REMARK  status: ('A' for Active; 'I' for Inactive)
REMARK    3  A    between atoms: CA   and  CB  
ROOT
ATOM      9  CA  VAL A 134     -29.766 132.051   9.815  1.00 40.75     0.159 C 
ENDROOT
BRANCH   9  10
ATOM     10  CB  VAL A 134     -30.864 132.765   9.009  1.00 40.76     0.029 C 
ATOM     11  CG1 VAL A 134     -32.102 132.987   9.865  1.00 41.76     0.002 C 
ATOM     12  CG2 VAL A 134     -30.368 134.079   8.426  1.00 40.56     0.002 C 
ENDBRANCH   9  10
END_RES VAL A 134
BEGIN_RES TYR A 338
REMARK  3 active torsions:
REMARK  status: ('A' for Active; 'I' for Inactive)
REMARK    4  A    between atoms: CA   and  CB  
REMARK    5  A    between atoms: CB   and  CG  
REMARK    6  A    between atoms: CZ   and  OH  
ROOT
ATOM     13  CA  TYR A 338     -41.631 124.950   6.058  1.00 38.23     0.164 C 
ENDROOT
BRANCH  13  14
ATOM     14  CB  TYR A 338     -41.621 126.456   6.339  1.00 39.15     0.058 C 
BRANCH  14  15
ATOM     15  CG  TYR A 338     -40.424 127.214   5.812  1.00 39.03    -0.020 A 
ATOM     16  CD2 TYR A 338     -40.272 128.562   6.086  1.00 40.65    -0.002 A 
ATOM     17  CE2 TYR A 338     -39.195 129.292   5.607  1.00 40.91     0.024 A 
ATOM     18  CZ  TYR A 338     -38.237 128.670   4.829  1.00 42.33     0.089 A 
ATOM     19  CE1 TYR A 338     -38.364 127.321   4.546  1.00 40.63     0.024 A 
ATOM     20  CD1 TYR A 338     -39.455 126.612   5.024  1.00 39.27    -0.002 A 
BRANCH  18  21
ATOM     21  OH  TYR A 338     -37.168 129.378   4.355  1.00 43.36    -0.359 OA
ATOM     22  HH  TYR A 338     -37.254 129.910   3.572  1.00  0.00     0.217 HD
ENDBRANCH  18  21
ENDBRANCH  14  15
ENDBRANCH  13  14
END_RES TYR A 338
ENDMDL
