MODEL 1
REMARK VINA RESULT:    -9.081      0.000      0.000
REMARK INTER + INTRA:         -12.176
REMARK INTER:                  -9.081
REMARK INTRA:                  -3.095
REMARK UNBOUND:                -3.095
REMARK  0 active torsions:
REMARK  status: ('A' for Active; 'I' for Inactive)
REMARK       I    between atoms: C3_3  and  O3_21 
REMARK       I    between atoms: C6_6  and  C7_7 
REMARK       I    between atoms: C8_8  and  C9_9 
REMARK       I    between atoms: C10_10  and  C11_11 
REMARK       I    between atoms: C12_12  and  C13_13 
REMARK       I    between atoms: C14_14  and  C15_15 
REMARK       I    between atoms: C23_25  and  O23_43 
REMARK       I    between atoms: C26_28  and  C27_29 
REMARK       I    between atoms: C28_30  and  C29_31 
REMARK       I    between atoms: C30_32  and  C31_33 
REMARK       I    between atoms: C32_34  and  C33_35 
REMARK       I    between atoms: C34_36  and  C35_37 
ROOT
HETATM    1  C1  VFQ G1621     -34.543 126.970   6.135  1.00 57.09    -0.018 C 
HETATM    2  C2  VFQ G1621     -34.106 126.338   4.821  1.00 57.09     0.045 C 
HETATM    3  C3  VFQ G1621     -32.889 126.929   4.134  1.00 57.09     0.123 C 
HETATM    4  C4  VFQ G1621     -31.858 127.359   5.154  1.00 57.09     0.066 C 
HETATM    5  C5  VFQ G1621     -32.489 128.356   6.082  1.00 57.09    -0.074 C 
HETATM    6  C6  VFQ G1621     -33.678 128.104   6.642  1.00 57.09    -0.048 C 
HETATM    7  C7  VFQ G1621     -34.183 128.907   7.789  1.00 57.09     0.009 C 
HETATM    8  C8  VFQ G1621     -34.766 130.097   7.615  1.00 57.09     0.007 C 
HETATM    9  C9  VFQ G1621     -35.299 130.921   8.712  1.00 57.09    -0.062 C 
HETATM   10  C10 VFQ G1621     -36.228 131.815   8.364  1.00 57.09     0.007 C 
HETATM   11  C11 VFQ G1621     -36.935 132.729   9.251  1.00 57.09     0.001 C 
HETATM   12  C12 VFQ G1621     -37.851 133.481   8.650  1.00 57.09     0.007 C 
HETATM   13  C13 VFQ G1621     -38.718 134.445   9.342  1.00 57.09    -0.062 C 
HETATM   14  C14 VFQ G1621     -39.540 135.211   8.612  1.00 57.09     0.007 C 
HETATM   15  C15 VFQ G1621     -40.462 136.151   9.236  1.00 57.09     0.001 C 
HETATM   16  C16 VFQ G1621     -34.625 125.850   7.161  1.00 57.09     0.020 C 
HETATM   17  C17 VFQ G1621     -35.925 127.545   5.919  1.00 57.09     0.020 C 
HETATM   18  C18 VFQ G1621     -31.465 129.240   6.729  1.00 57.09     0.044 C 
HETATM   19  C19 VFQ G1621     -34.827 130.763  10.125  1.00 57.09     0.048 C 
HETATM   20  C20 VFQ G1621     -38.711 134.522  10.837  1.00 57.09     0.048 C 
HETATM   21  O3  VFQ G1621     -32.321 125.912   3.306  1.00 57.09    -0.395 OA
ATOM     22  H3  VFQ G1621     -32.969 125.642   2.665  1.00  0.00     0.210 HD
HETATM   23  C21 VFQ G1621     -50.072 144.295  10.589  1.00 40.88    -0.018 C 
HETATM   24  C22 VFQ G1621     -50.999 145.354  11.189  1.00 40.88     0.045 C 
HETATM   25  C23 VFQ G1621     -50.363 146.583  11.829  1.00 40.88     0.123 C 
HETATM   26  C24 VFQ G1621     -49.006 146.264  12.428  1.00 40.88     0.066 C 
HETATM   27  C25 VFQ G1621     -48.153 145.677  11.337  1.00 40.88    -0.074 C 
HETATM   28  C26 VFQ G1621     -48.615 144.708  10.539  1.00 40.88    -0.048 C 
HETATM   29  C27 VFQ G1621     -47.704 144.042   9.566  1.00 40.88     0.009 C 
HETATM   30  C28 VFQ G1621     -47.060 142.910   9.847  1.00 40.88     0.007 C 
HETATM   31  C29 VFQ G1621     -46.162 142.236   8.900  1.00 57.09    -0.062 C 
HETATM   32  C30 VFQ G1621     -45.738 141.018   9.244  1.00 57.09     0.007 C 
HETATM   33  C31 VFQ G1621     -44.845 140.213   8.428  1.00 57.09     0.001 C 
HETATM   34  C32 VFQ G1621     -43.985 139.448   9.086  1.00 57.09     0.007 C 
HETATM   35  C33 VFQ G1621     -43.027 138.580   8.401  1.00 57.09    -0.062 C 
HETATM   36  C34 VFQ G1621     -42.276 137.729   9.104  1.00 57.09     0.007 C 
HETATM   37  C35 VFQ G1621     -41.320 136.823   8.479  1.00 57.09     0.001 C 
HETATM   38  C36 VFQ G1621     -50.503 144.052   9.153  1.00 40.88     0.020 C 
HETATM   39  C37 VFQ G1621     -50.270 143.003  11.376  1.00 40.88     0.020 C 
HETATM   40  C38 VFQ G1621     -46.782 146.246  11.156  1.00 40.88     0.044 C 
HETATM   41  C39 VFQ G1621     -45.737 142.890   7.623  1.00 57.09     0.048 C 
HETATM   42  C40 VFQ G1621     -42.913 138.694   6.925  1.00 57.09     0.048 C 
HETATM   43  O23 VFQ G1621     -51.227 147.053  12.869  1.00 40.88    -0.395 OA
ATOM     44  H23 VFQ G1621     -50.831 147.819  13.268  1.00  0.00     0.210 HD
ENDROOT
TORSDOF 12
BEGIN_RES PHE A  61
REMARK  2 active torsions:
REMARK  status: ('A' for Active; 'I' for Inactive)
REMARK    1  A    between atoms: CA   and  CB  
REMARK    2  A    between atoms: CB   and  CG  
ROOT
ATOM      1  CA  PHE A  61     -36.237 128.293  12.768  1.00 39.40     0.164 C 
ENDROOT
BRANCH   1   2
ATOM      2  CB  PHE A  61     -36.813 128.951  11.509  1.00 39.41     0.058 C 
BRANCH   2   3
ATOM      3  CG  PHE A  61     -37.029 128.004  10.353  1.00 39.01    -0.020 A 
ATOM      4  CD2 PHE A  61     -36.276 126.846  10.231  1.00 40.32    -0.004 A 
ATOM      5  CE2 PHE A  61     -36.474 125.978   9.165  1.00 40.20    -0.000 A 
ATOM      6  CZ  PHE A  61     -37.428 126.254   8.213  1.00 40.34    -0.000 A 
ATOM      7  CE1 PHE A  61     -38.186 127.398   8.321  1.00 41.51    -0.000 A 
ATOM      8  CD1 PHE A  61     -37.984 128.271   9.382  1.00 39.94    -0.004 A 
ENDBRANCH   2   3
ENDBRANCH   1   2
END_RES PHE A  61
BEGIN_RES VAL A 134
REMARK  1 active torsions:
REMARK  status: ('A' for Active; 'I' for Inactive)
REMARK    3  A    between atoms: CA   and  CB  
ROOT
ATOM      9  CA  VAL A 134     -29.766 132.051   9.815  1.00 40.75     0.159 C 
ENDROOT
BRANCH   9  10
ATOM     10  CB  VAL A 134     -30.864 132.765   9.009  1.00 40.76     0.029 C 
ATOM     11  CG1 VAL A 134     -31.179 131.999   7.732  1.00 41.76     0.002 C 
ATOM     12  CG2 VAL A 134     -32.122 132.974   9.838  1.00 40.56     0.002 C 
ENDBRANCH   9  10
END_RES VAL A 134
BEGIN_RES TYR A 338
REMARK  3 active torsions:
REMARK  status: ('A' for Active; 'I' for Inactive)
REMARK    4  A    between atoms: CA   and  CB  
REMARK    5  A    between atoms: CB   and  CG  
REMARK    6  A    between atoms: CZ   and  OH  
ROOT
ATOM     13  CA  TYR A 338     -41.631 124.950   6.058  1.00 38.23     0.164 C 
ENDROOT
BRANCH  13  14
ATOM     14  CB  TYR A 338     -41.621 126.456   6.339  1.00 39.15     0.058 C 
BRANCH  14  15
ATOM     15  CG  TYR A 338     -40.429 127.215   5.804  1.00 39.03    -0.020 A 
ATOM     16  CD2 TYR A 338     -40.245 128.549   6.127  1.00 40.65    -0.002 A 
ATOM     17  CE2 TYR A 338     -39.172 129.280   5.641  1.00 40.91     0.024 A 
ATOM     18  CZ  TYR A 338     -38.249 128.675   4.809  1.00 42.33     0.089 A 
ATOM     19  CE1 TYR A 338     -38.408 127.341   4.477  1.00 40.63     0.024 A 
ATOM     20  CD1 TYR A 338     -39.496 126.631   4.962  1.00 39.27    -0.002 A 
BRANCH  18  21
ATOM     21  OH  TYR A 338     -37.185 129.385   4.329  1.00 43.36    -0.359 OA
ATOM     22  HH  TYR A 338     -36.541 129.750   4.925  1.00  0.00     0.217 HD
ENDBRANCH  18  21
ENDBRANCH  14  15
ENDBRANCH  13  14
END_RES TYR A 338
ENDMDL
MODEL 2
REMARK VINA RESULT:    -6.163      1.145     16.819
REMARK INTER + INTRA:          -9.258
REMARK INTER:                  -9.179
REMARK INTRA:                  -0.079
REMARK UNBOUND:                -3.095
REMARK  0 active torsions:
REMARK  status: ('A' for Active; 'I' for Inactive)
REMARK       I    between atoms: C3_3  and  O3_21 
REMARK       I    between atoms: C6_6  and  C7_7 
REMARK       I    between atoms: C8_8  and  C9_9 
REMARK       I    between atoms: C10_10  and  C11_11 
REMARK       I    between atoms: C12_12  and  C13_13 
REMARK       I    between atoms: C14_14  and  C15_15 
REMARK       I    between atoms: C23_25  and  O23_43 
REMARK       I    between atoms: C26_28  and  C27_29 
REMARK       I    between atoms: C28_30  and  C29_31 
REMARK       I    between atoms: C30_32  and  C31_33 
REMARK       I    between atoms: C32_34  and  C33_35 
REMARK       I    between atoms: C34_36  and  C35_37 
ROOT
HETATM    1  C1  VFQ G1621     -50.860 144.578  11.127  1.00 57.09    -0.018 C 
HETATM    2  C2  VFQ G1621     -51.560 145.013  12.408  1.00 57.09     0.045 C 
HETATM    3  C3  VFQ G1621     -50.960 146.180  13.169  1.00 57.09     0.123 C 
HETATM    4  C4  VFQ G1621     -50.409 147.213  12.211  1.00 57.09     0.066 C 
HETATM    5  C5  VFQ G1621     -49.382 146.556  11.336  1.00 57.09    -0.074 C 
HETATM    6  C6  VFQ G1621     -49.652 145.397  10.725  1.00 57.09    -0.048 C 
HETATM    7  C7  VFQ G1621     -48.797 144.881   9.622  1.00 57.09     0.009 C 
HETATM    8  C8  VFQ G1621     -47.652 144.233   9.860  1.00 57.09     0.007 C 
HETATM    9  C9  VFQ G1621     -46.781 143.687   8.806  1.00 57.09    -0.062 C 
HETATM   10  C10 VFQ G1621     -45.960 142.705   9.187  1.00 57.09     0.007 C 
HETATM   11  C11 VFQ G1621     -45.022 141.975   8.345  1.00 57.09     0.001 C 
HETATM   12  C12 VFQ G1621     -44.360 141.006   8.969  1.00 57.09     0.007 C 
HETATM   13  C13 VFQ G1621     -43.395 140.109   8.319  1.00 57.09    -0.062 C 
HETATM   14  C14 VFQ G1621     -42.723 139.231   9.076  1.00 57.09     0.007 C 
HETATM   15  C15 VFQ G1621     -41.789 138.278   8.491  1.00 57.09     0.001 C 
HETATM   16  C16 VFQ G1621     -51.908 144.581  10.025  1.00 57.09     0.020 C 
HETATM   17  C17 VFQ G1621     -50.371 143.163  11.342  1.00 57.09     0.020 C 
HETATM   18  C18 VFQ G1621     -48.405 147.550  10.781  1.00 57.09     0.044 C 
HETATM   19  C19 VFQ G1621     -46.816 144.203   7.400  1.00 57.09     0.048 C 
HETATM   20  C20 VFQ G1621     -43.214 140.151   6.834  1.00 57.09     0.048 C 
HETATM   21  O3  VFQ G1621     -52.002 146.778  13.941  1.00 57.09    -0.395 OA
ATOM     22  H3  VFQ G1621     -52.348 146.129  14.543  1.00  0.00     0.210 HD
HETATM   23  C21 VFQ G1621     -34.055 128.300   7.419  1.00 40.88    -0.018 C 
HETATM   24  C22 VFQ G1621     -33.004 127.336   6.866  1.00 40.88     0.045 C 
HETATM   25  C23 VFQ G1621     -31.703 127.924   6.331  1.00 40.88     0.123 C 
HETATM   26  C24 VFQ G1621     -31.912 129.310   5.751  1.00 40.88     0.066 C 
HETATM   27  C25 VFQ G1621     -32.531 130.165   6.823  1.00 40.88    -0.074 C 
HETATM   28  C26 VFQ G1621     -33.575 129.732   7.539  1.00 40.88    -0.048 C 
HETATM   29  C27 VFQ G1621     -34.262 130.651   8.491  1.00 40.88     0.009 C 
HETATM   30  C28 VFQ G1621     -35.338 131.359   8.151  1.00 40.88     0.007 C 
HETATM   31  C29 VFQ G1621     -36.032 132.266   9.076  1.00 57.09    -0.062 C 
HETATM   32  C30 VFQ G1621     -37.200 132.760   8.662  1.00 57.09     0.007 C 
HETATM   33  C31 VFQ G1621     -38.015 133.673   9.447  1.00 57.09     0.001 C 
HETATM   34  C32 VFQ G1621     -38.689 134.587   8.763  1.00 57.09     0.007 C 
HETATM   35  C33 VFQ G1621     -39.554 135.570   9.416  1.00 57.09    -0.062 C 
HETATM   36  C34 VFQ G1621     -40.315 136.382   8.678  1.00 57.09     0.007 C 
HETATM   37  C35 VFQ G1621     -41.215 137.367   9.267  1.00 57.09     0.001 C 
HETATM   38  C36 VFQ G1621     -34.420 127.845   8.822  1.00 40.88     0.020 C 
HETATM   39  C37 VFQ G1621     -35.298 128.189   6.540  1.00 40.88     0.020 C 
HETATM   40  C38 VFQ G1621     -31.909 131.500   7.083  1.00 40.88     0.044 C 
HETATM   41  C39 VFQ G1621     -35.448 132.624  10.407  1.00 57.09     0.048 C 
HETATM   42  C40 VFQ G1621     -39.538 135.640  10.898  1.00 57.09     0.048 C 
HETATM   43  O23 VFQ G1621     -31.205 127.064   5.300  1.00 40.88    -0.395 OA
ATOM     44  H23 VFQ G1621     -30.394 127.430   4.967  1.00  0.00     0.210 HD
ENDROOT
TORSDOF 12
BEGIN_RES PHE A  61
REMARK  2 active torsions:
REMARK  status: ('A' for Active; 'I' for Inactive)
REMARK    1  A    between atoms: CA   and  CB  
REMARK    2  A    between atoms: CB   and  CG  
ROOT
ATOM      1  CA  PHE A  61     -36.237 128.293  12.768  1.00 39.40     0.164 C 
ENDROOT
BRANCH   1   2
ATOM      2  CB  PHE A  61     -36.813 128.951  11.509  1.00 39.41     0.058 C 
BRANCH   2   3
ATOM      3  CG  PHE A  61     -37.048 128.000  10.360  1.00 39.01    -0.020 A 
ATOM      4  CD2 PHE A  61     -36.354 126.804  10.272  1.00 40.32    -0.004 A 
ATOM      5  CE2 PHE A  61     -36.569 125.931   9.213  1.00 40.20    -0.000 A 
ATOM      6  CZ  PHE A  61     -37.483 126.243   8.232  1.00 40.34    -0.000 A 
ATOM      7  CE1 PHE A  61     -38.183 127.427   8.306  1.00 41.51    -0.000 A 
ATOM      8  CD1 PHE A  61     -37.964 128.302   9.362  1.00 39.94    -0.004 A 
ENDBRANCH   2   3
ENDBRANCH   1   2
END_RES PHE A  61
BEGIN_RES VAL A 134
REMARK  1 active torsions:
REMARK  status: ('A' for Active; 'I' for Inactive)
REMARK    3  A    between atoms: CA   and  CB  
ROOT
ATOM      9  CA  VAL A 134     -29.766 132.051   9.815  1.00 40.75     0.159 C 
ENDROOT
BRANCH   9  10
ATOM     10  CB  VAL A 134     -30.864 132.765   9.009  1.00 40.76     0.029 C 
ATOM     11  CG1 VAL A 134     -32.106 132.978   9.863  1.00 41.76     0.002 C 
ATOM     12  CG2 VAL A 134     -30.371 134.084   8.434  1.00 40.56     0.002 C 
ENDBRANCH   9  10
END_RES VAL A 134
BEGIN_RES TYR A 338
REMARK  3 active torsions:
REMARK  status: ('A' for Active; 'I' for Inactive)
REMARK    4  A    between atoms: CA   and  CB  
REMARK    5  A    between atoms: CB   and  CG  
REMARK    6  A    between atoms: CZ   and  OH  
ROOT
ATOM     13  CA  TYR A 338     -41.631 124.950   6.058  1.00 38.23     0.164 C 
ENDROOT
BRANCH  13  14
ATOM     14  CB  TYR A 338     -41.621 126.456   6.339  1.00 39.15     0.058 C 
BRANCH  14  15
ATOM     15  CG  TYR A 338     -40.414 127.210   5.830  1.00 39.03    -0.020 A 
ATOM     16  CD2 TYR A 338     -40.261 128.558   6.110  1.00 40.65    -0.002 A 
ATOM     17  CE2 TYR A 338     -39.175 129.284   5.647  1.00 40.91     0.024 A 
ATOM     18  CZ  TYR A 338     -38.208 128.660   4.880  1.00 42.33     0.089 A 
ATOM     19  CE1 TYR A 338     -38.337 127.313   4.591  1.00 40.63     0.024 A 
ATOM     20  CD1 TYR A 338     -39.437 126.607   5.053  1.00 39.27    -0.002 A 
BRANCH  18  21
ATOM     21  OH  TYR A 338     -37.131 129.366   4.422  1.00 43.36    -0.359 OA
ATOM     22  HH  TYR A 338     -36.839 129.267   3.523  1.00  0.00     0.217 HD
ENDBRANCH  18  21
ENDBRANCH  14  15
ENDBRANCH  13  14
END_RES TYR A 338
ENDMDL
