MODEL 1
REMARK VINA RESULT:    -7.674      0.000      0.000
REMARK INTER + INTRA:         -14.337
REMARK INTER:                  -7.674
REMARK INTRA:                  -6.663
REMARK UNBOUND:                -6.663
REMARK  0 active torsions:
REMARK  status: ('A' for Active; 'I' for Inactive)
REMARK       I    between atoms: C3_3  and  O3_21 
REMARK       I    between atoms: C6_6  and  C7_7 
REMARK       I    between atoms: C8_8  and  C9_9 
REMARK       I    between atoms: C10_10  and  C11_11 
REMARK       I    between atoms: C12_12  and  C13_13 
REMARK       I    between atoms: C14_14  and  C15_15 
REMARK       I    between atoms: C23_25  and  O23_43 
REMARK       I    between atoms: C26_28  and  C27_29 
REMARK       I    between atoms: C28_30  and  C29_31 
REMARK       I    between atoms: C30_32  and  C31_33 
REMARK       I    between atoms: C32_34  and  C33_35 
REMARK       I    between atoms: C34_36  and  C35_37 
ROOT
HETATM    1  C1  VFQ Y1621     -49.729 150.167   7.878  1.00 30.42    -0.018 C 
HETATM    2  C2  VFQ Y1621     -50.427 150.452   6.544  1.00 30.42     0.045 C 
HETATM    3  C3  VFQ Y1621     -51.808 149.840   6.340  1.00 30.42     0.123 C 
HETATM    4  C4  VFQ Y1621     -52.444 149.430   7.660  1.00 30.42     0.066 C 
HETATM    5  C5  VFQ Y1621     -51.474 148.510   8.339  1.00 30.42    -0.074 C 
HETATM    6  C6  VFQ Y1621     -50.257 148.963   8.632  1.00 30.42    -0.048 C 
HETATM    7  C7  VFQ Y1621     -49.326 148.232   9.516  1.00 30.42     0.009 C 
HETATM    8  C8  VFQ Y1621     -49.365 146.896   9.541  1.00 30.42     0.007 C 
HETATM    9  C9  VFQ Y1621     -48.280 146.172  10.241  1.00 30.42    -0.062 C 
HETATM   10  C10 VFQ Y1621     -48.027 144.913   9.831  1.00 30.42     0.007 C 
HETATM   11  C11 VFQ Y1621     -46.886 144.129  10.304  1.00 30.42     0.001 C 
HETATM   12  C12 VFQ Y1621     -46.552 143.013   9.658  1.00 30.42     0.007 C 
HETATM   13  C13 VFQ Y1621     -45.354 142.232  10.037  1.00 30.42    -0.062 C 
HETATM   14  C14 VFQ Y1621     -45.011 141.201   9.238  1.00 30.42     0.007 C 
HETATM   15  C15 VFQ Y1621     -43.842 140.344   9.455  1.00 30.42     0.001 C 
HETATM   16  C16 VFQ Y1621     -49.948 151.350   8.818  1.00 30.42     0.020 C 
HETATM   17  C17 VFQ Y1621     -48.238 150.040   7.613  1.00 30.42     0.020 C 
HETATM   18  C18 VFQ Y1621     -52.313 147.767   9.341  1.00 30.42     0.044 C 
HETATM   19  C19 VFQ Y1621     -47.454 146.881  11.291  1.00 30.42     0.048 C 
HETATM   20  C20 VFQ Y1621     -44.574 142.641  11.261  1.00 30.42     0.048 C 
HETATM   21  O3  VFQ Y1621     -52.600 150.842   5.708  1.00 30.42    -0.395 OA
ATOM     22  H3  VFQ Y1621     -53.460 150.461   5.580  1.00  0.00     0.210 HD
HETATM   23  C21 VFQ Y1621     -35.151 130.892   8.198  1.00 32.96    -0.018 C 
HETATM   24  C22 VFQ Y1621     -34.068 130.066   8.890  1.00 32.96     0.045 C 
HETATM   25  C23 VFQ Y1621     -34.037 130.156  10.410  1.00 32.96     0.123 C 
HETATM   26  C24 VFQ Y1621     -34.638 131.466  10.876  1.00 32.96     0.066 C 
HETATM   27  C25 VFQ Y1621     -36.060 131.510  10.395  1.00 32.96    -0.074 C 
HETATM   28  C26 VFQ Y1621     -36.294 131.280   9.099  1.00 32.96    -0.048 C 
HETATM   29  C27 VFQ Y1621     -37.569 131.639   8.463  1.00 32.96     0.009 C 
HETATM   30  C28 VFQ Y1621     -37.956 132.883   8.751  1.00 32.96     0.007 C 
HETATM   31  C29 VFQ Y1621     -39.091 133.517   8.052  1.00 30.42    -0.062 C 
HETATM   32  C30 VFQ Y1621     -39.438 134.753   8.472  1.00 30.42     0.007 C 
HETATM   33  C31 VFQ Y1621     -40.567 135.514   7.937  1.00 30.42     0.001 C 
HETATM   34  C32 VFQ Y1621     -40.904 136.663   8.521  1.00 30.42     0.007 C 
HETATM   35  C33 VFQ Y1621     -42.080 137.443   8.081  1.00 30.42    -0.062 C 
HETATM   36  C34 VFQ Y1621     -42.420 138.505   8.843  1.00 30.42     0.007 C 
HETATM   37  C35 VFQ Y1621     -43.581 139.363   8.599  1.00 30.42     0.001 C 
HETATM   38  C36 VFQ Y1621     -35.704 130.130   7.001  1.00 32.96     0.020 C 
HETATM   39  C37 VFQ Y1621     -34.544 132.209   7.727  1.00 32.96     0.020 C 
HETATM   40  C38 VFQ Y1621     -37.143 131.700  11.426  1.00 32.96     0.044 C 
HETATM   41  C39 VFQ Y1621     -39.778 132.774   6.935  1.00 30.42     0.048 C 
HETATM   42  C40 VFQ Y1621     -42.854 136.995   6.869  1.00 30.42     0.048 C 
HETATM   43  O23 VFQ Y1621     -32.683 130.097  10.869  1.00 32.96    -0.395 OA
ATOM     44  H23 VFQ Y1621     -32.663 130.152  11.817  1.00  0.00     0.210 HD
ENDROOT
TORSDOF 12
BEGIN_RES PHE A  61
REMARK  2 active torsions:
REMARK  status: ('A' for Active; 'I' for Inactive)
REMARK    1  A    between atoms: CA   and  CB  
REMARK    2  A    between atoms: CB   and  CG  
ROOT
ATOM      1  CA  PHE A  61     -36.237 128.293  12.768  1.00 39.40     0.164 C 
ENDROOT
BRANCH   1   2
ATOM      2  CB  PHE A  61     -36.813 128.951  11.509  1.00 39.41     0.058 C 
BRANCH   2   3
ATOM      3  CG  PHE A  61     -36.694 128.115  10.258  1.00 39.01    -0.020 A 
ATOM      4  CD2 PHE A  61     -35.556 127.362  10.010  1.00 40.32    -0.004 A 
ATOM      5  CE2 PHE A  61     -35.447 126.595   8.857  1.00 40.20    -0.000 A 
ATOM      6  CZ  PHE A  61     -36.473 126.570   7.941  1.00 40.34    -0.000 A 
ATOM      7  CE1 PHE A  61     -37.611 127.311   8.172  1.00 41.51    -0.000 A 
ATOM      8  CD1 PHE A  61     -37.718 128.082   9.322  1.00 39.94    -0.004 A 
ENDBRANCH   2   3
ENDBRANCH   1   2
END_RES PHE A  61
BEGIN_RES VAL A 134
REMARK  1 active torsions:
REMARK  status: ('A' for Active; 'I' for Inactive)
REMARK    3  A    between atoms: CA   and  CB  
ROOT
ATOM      9  CA  VAL A 134     -29.766 132.051   9.815  1.00 40.75     0.159 C 
ENDROOT
BRANCH   9  10
ATOM     10  CB  VAL A 134     -30.864 132.765   9.009  1.00 40.76     0.029 C 
ATOM     11  CG1 VAL A 134     -31.318 131.905   7.838  1.00 41.76     0.002 C 
ATOM     12  CG2 VAL A 134     -32.045 133.149   9.887  1.00 40.56     0.002 C 
ENDBRANCH   9  10
END_RES VAL A 134
BEGIN_RES TYR A 338
REMARK  3 active torsions:
REMARK  status: ('A' for Active; 'I' for Inactive)
REMARK    4  A    between atoms: CA   and  CB  
REMARK    5  A    between atoms: CB   and  CG  
REMARK    6  A    between atoms: CZ   and  OH  
ROOT
ATOM     13  CA  TYR A 338     -41.631 124.950   6.058  1.00 38.23     0.164 C 
ENDROOT
BRANCH  13  14
ATOM     14  CB  TYR A 338     -41.621 126.456   6.339  1.00 39.15     0.058 C 
BRANCH  14  15
ATOM     15  CG  TYR A 338     -40.401 127.206   5.854  1.00 39.03    -0.020 A 
ATOM     16  CD2 TYR A 338     -40.222 128.539   6.182  1.00 40.65    -0.002 A 
ATOM     17  CE2 TYR A 338     -39.124 129.262   5.742  1.00 40.91     0.024 A 
ATOM     18  CZ  TYR A 338     -38.171 128.648   4.951  1.00 42.33     0.089 A 
ATOM     19  CE1 TYR A 338     -38.326 127.315   4.614  1.00 40.63     0.024 A 
ATOM     20  CD1 TYR A 338     -39.438 126.613   5.053  1.00 39.27    -0.002 A 
BRANCH  18  21
ATOM     21  OH  TYR A 338     -37.082 129.349   4.515  1.00 43.36    -0.359 OA
ATOM     22  HH  TYR A 338     -36.630 129.090   3.720  1.00  0.00     0.217 HD
ENDBRANCH  18  21
ENDBRANCH  14  15
ENDBRANCH  13  14
END_RES TYR A 338
ENDMDL
MODEL 2
REMARK VINA RESULT:    -5.603      2.363     16.813
REMARK INTER + INTRA:         -12.267
REMARK INTER:                 -11.899
REMARK INTRA:                  -0.368
REMARK UNBOUND:                -6.663
REMARK  0 active torsions:
REMARK  status: ('A' for Active; 'I' for Inactive)
REMARK       I    between atoms: C3_3  and  O3_21 
REMARK       I    between atoms: C6_6  and  C7_7 
REMARK       I    between atoms: C8_8  and  C9_9 
REMARK       I    between atoms: C10_10  and  C11_11 
REMARK       I    between atoms: C12_12  and  C13_13 
REMARK       I    between atoms: C14_14  and  C15_15 
REMARK       I    between atoms: C23_25  and  O23_43 
REMARK       I    between atoms: C26_28  and  C27_29 
REMARK       I    between atoms: C28_30  and  C29_31 
REMARK       I    between atoms: C30_32  and  C31_33 
REMARK       I    between atoms: C32_34  and  C33_35 
REMARK       I    between atoms: C34_36  and  C35_37 
ROOT
HETATM    1  C1  VFQ Y1621     -34.181 127.949   6.900  1.00 30.42    -0.018 C 
HETATM    2  C2  VFQ Y1621     -33.629 127.730   5.487  1.00 30.42     0.045 C 
HETATM    3  C3  VFQ Y1621     -32.351 128.472   5.119  1.00 30.42     0.123 C 
HETATM    4  C4  VFQ Y1621     -31.599 128.948   6.353  1.00 30.42     0.066 C 
HETATM    5  C5  VFQ Y1621     -32.562 129.770   7.156  1.00 30.42    -0.074 C 
HETATM    6  C6  VFQ Y1621     -33.683 129.201   7.593  1.00 30.42    -0.048 C 
HETATM    7  C7  VFQ Y1621     -34.564 129.840   8.593  1.00 30.42     0.009 C 
HETATM    8  C8  VFQ Y1621     -34.653 131.173   8.625  1.00 30.42     0.007 C 
HETATM    9  C9  VFQ Y1621     -35.708 131.790   9.460  1.00 30.42    -0.062 C 
HETATM   10  C10 VFQ Y1621     -36.131 133.016   9.097  1.00 30.42     0.007 C 
HETATM   11  C11 VFQ Y1621     -37.276 133.687   9.714  1.00 30.42     0.001 C 
HETATM   12  C12 VFQ Y1621     -37.795 134.762   9.125  1.00 30.42     0.007 C 
HETATM   13  C13 VFQ Y1621     -39.007 135.424   9.657  1.00 30.42    -0.062 C 
HETATM   14  C14 VFQ Y1621     -39.546 136.413   8.916  1.00 30.42     0.007 C 
HETATM   15  C15 VFQ Y1621     -40.757 137.152   9.285  1.00 30.42     0.001 C 
HETATM   16  C16 VFQ Y1621     -33.732 126.796   7.794  1.00 30.42     0.020 C 
HETATM   17  C17 VFQ Y1621     -35.698 127.928   6.823  1.00 30.42     0.020 C 
HETATM   18  C18 VFQ Y1621     -31.681 130.595   8.053  1.00 30.42     0.044 C 
HETATM   19  C19 VFQ Y1621     -36.324 131.006  10.598  1.00 30.42     0.048 C 
HETATM   20  C20 VFQ Y1621     -39.586 134.944  10.964  1.00 30.42     0.048 C 
HETATM   21  O3  VFQ Y1621     -31.550 127.551   4.384  1.00 30.42    -0.395 OA
ATOM     22  H3  VFQ Y1621     -30.753 128.014   4.155  1.00  0.00     0.210 HD
HETATM   23  C21 VFQ Y1621     -50.417 145.702   9.201  1.00 32.96    -0.018 C 
HETATM   24  C22 VFQ Y1621     -51.481 146.421  10.030  1.00 32.96     0.045 C 
HETATM   25  C23 VFQ Y1621     -51.314 146.333  11.541  1.00 32.96     0.123 C 
HETATM   26  C24 VFQ Y1621     -50.535 145.090  11.916  1.00 32.96     0.066 C 
HETATM   27  C25 VFQ Y1621     -49.187 145.183  11.262  1.00 32.96    -0.074 C 
HETATM   28  C26 VFQ Y1621     -49.138 145.432   9.950  1.00 32.96    -0.048 C 
HETATM   29  C27 VFQ Y1621     -47.924 145.197   9.157  1.00 32.96     0.009 C 
HETATM   30  C28 VFQ Y1621     -47.385 143.998   9.384  1.00 32.96     0.007 C 
HETATM   31  C29 VFQ Y1621     -46.288 143.476   8.544  1.00 30.42    -0.062 C 
HETATM   32  C30 VFQ Y1621     -45.773 142.281   8.905  1.00 30.42     0.007 C 
HETATM   33  C31 VFQ Y1621     -44.651 141.634   8.228  1.00 30.42     0.001 C 
HETATM   34  C32 VFQ Y1621     -44.133 140.525   8.756  1.00 30.42     0.007 C 
HETATM   35  C33 VFQ Y1621     -42.951 139.862   8.166  1.00 30.42    -0.062 C 
HETATM   36  C34 VFQ Y1621     -42.416 138.841   8.870  1.00 30.42     0.007 C 
HETATM   37  C35 VFQ Y1621     -41.216 138.100   8.476  1.00 30.42     0.001 C 
HETATM   38  C36 VFQ Y1621     -50.094 146.512   7.952  1.00 32.96     0.020 C 
HETATM   39  C37 VFQ Y1621     -50.947 144.331   8.796  1.00 32.96     0.020 C 
HETATM   40  C38 VFQ Y1621     -47.971 145.104  12.150  1.00 32.96     0.044 C 
HETATM   41  C39 VFQ Y1621     -45.822 144.280   7.356  1.00 30.42     0.048 C 
HETATM   42  C40 VFQ Y1621     -42.381 140.380   6.871  1.00 30.42     0.048 C 
HETATM   43  O23 VFQ Y1621     -52.600 146.261  12.164  1.00 32.96    -0.395 OA
ATOM     44  H23 VFQ Y1621     -52.496 146.207  13.107  1.00  0.00     0.210 HD
ENDROOT
TORSDOF 12
BEGIN_RES PHE A  61
REMARK  2 active torsions:
REMARK  status: ('A' for Active; 'I' for Inactive)
REMARK    1  A    between atoms: CA   and  CB  
REMARK    2  A    between atoms: CB   and  CG  
ROOT
ATOM      1  CA  PHE A  61     -36.237 128.293  12.768  1.00 39.40     0.164 C 
ENDROOT
BRANCH   1   2
ATOM      2  CB  PHE A  61     -36.813 128.951  11.509  1.00 39.41     0.058 C 
BRANCH   2   3
ATOM      3  CG  PHE A  61     -37.047 128.000  10.359  1.00 39.01    -0.020 A 
ATOM      4  CD2 PHE A  61     -36.261 126.870  10.200  1.00 40.32    -0.004 A 
ATOM      5  CE2 PHE A  61     -36.475 125.998   9.140  1.00 40.20    -0.000 A 
ATOM      6  CZ  PHE A  61     -37.478 126.244   8.230  1.00 40.34    -0.000 A 
ATOM      7  CE1 PHE A  61     -38.269 127.362   8.376  1.00 41.51    -0.000 A 
ATOM      8  CD1 PHE A  61     -38.051 128.238   9.432  1.00 39.94    -0.004 A 
ENDBRANCH   2   3
ENDBRANCH   1   2
END_RES PHE A  61
BEGIN_RES VAL A 134
REMARK  1 active torsions:
REMARK  status: ('A' for Active; 'I' for Inactive)
REMARK    3  A    between atoms: CA   and  CB  
ROOT
ATOM      9  CA  VAL A 134     -29.766 132.051   9.815  1.00 40.75     0.159 C 
ENDROOT
BRANCH   9  10
ATOM     10  CB  VAL A 134     -30.864 132.765   9.009  1.00 40.76     0.029 C 
ATOM     11  CG1 VAL A 134     -32.083 133.032   9.880  1.00 41.76     0.002 C 
ATOM     12  CG2 VAL A 134     -30.353 134.054   8.384  1.00 40.56     0.002 C 
ENDBRANCH   9  10
END_RES VAL A 134
BEGIN_RES TYR A 338
REMARK  3 active torsions:
REMARK  status: ('A' for Active; 'I' for Inactive)
REMARK    4  A    between atoms: CA   and  CB  
REMARK    5  A    between atoms: CB   and  CG  
REMARK    6  A    between atoms: CZ   and  OH  
ROOT
ATOM     13  CA  TYR A 338     -41.631 124.950   6.058  1.00 38.23     0.164 C 
ENDROOT
BRANCH  13  14
ATOM     14  CB  TYR A 338     -41.621 126.456   6.339  1.00 39.15     0.058 C 
BRANCH  14  15
ATOM     15  CG  TYR A 338     -40.405 127.207   5.847  1.00 39.03    -0.020 A 
ATOM     16  CD2 TYR A 338     -40.246 128.551   6.139  1.00 40.65    -0.002 A 
ATOM     17  CE2 TYR A 338     -39.152 129.275   5.691  1.00 40.91     0.024 A 
ATOM     18  CZ  TYR A 338     -38.183 128.652   4.927  1.00 42.33     0.089 A 
ATOM     19  CE1 TYR A 338     -38.318 127.308   4.625  1.00 40.63     0.024 A 
ATOM     20  CD1 TYR A 338     -39.426 126.605   5.072  1.00 39.27    -0.002 A 
BRANCH  18  21
ATOM     21  OH  TYR A 338     -37.098 129.354   4.483  1.00 43.36    -0.359 OA
ATOM     22  HH  TYR A 338     -37.213 130.189   4.044  1.00  0.00     0.217 HD
ENDBRANCH  18  21
ENDBRANCH  14  15
ENDBRANCH  13  14
END_RES TYR A 338
ENDMDL
