MODEL 1
REMARK VINA RESULT:   -11.917      0.000      0.000
REMARK INTER + INTRA:         -12.649
REMARK INTER:                 -11.917
REMARK INTRA:                  -0.731
REMARK UNBOUND:                -0.731
REMARK  0 active torsions:
REMARK  status: ('A' for Active; 'I' for Inactive)
REMARK       I    between atoms: C3_3  and  O3_21 
REMARK       I    between atoms: C6_6  and  C7_7 
REMARK       I    between atoms: C8_8  and  C9_9 
REMARK       I    between atoms: C10_10  and  C11_11 
REMARK       I    between atoms: C12_12  and  C13_13 
REMARK       I    between atoms: C14_14  and  C15_15 
REMARK       I    between atoms: C23_25  and  O23_43 
REMARK       I    between atoms: C26_28  and  C27_29 
REMARK       I    between atoms: C28_30  and  C29_31 
REMARK       I    between atoms: C30_32  and  C31_33 
REMARK       I    between atoms: C32_34  and  C33_35 
REMARK       I    between atoms: C34_36  and  C35_37 
ROOT
HETATM    1  C1  VFQ R 620     -34.210 128.370   6.882  1.00 48.79    -0.018 C 
HETATM    2  C2  VFQ R 620     -33.536 128.201   5.527  1.00 49.38     0.045 C 
HETATM    3  C3  VFQ R 620     -32.008 128.183   5.506  1.00 51.85     0.123 C 
HETATM    4  C4  VFQ R 620     -31.380 129.254   6.380  1.00 54.16     0.066 C 
HETATM    5  C5  VFQ R 620     -32.194 129.680   7.572  1.00 52.93    -0.074 C 
HETATM    6  C6  VFQ R 620     -33.499 129.406   7.736  1.00 53.44    -0.048 C 
HETATM    7  C7  VFQ R 620     -34.279 130.109   8.793  1.00 56.18     0.009 C 
HETATM    8  C8  VFQ R 620     -35.053 131.161   8.523  1.00 54.04     0.007 C 
HETATM    9  C9  VFQ R 620     -35.850 131.860   9.538  1.00 57.87    -0.062 C 
HETATM   10  C10 VFQ R 620     -36.478 132.961   9.136  1.00 59.37     0.007 C 
HETATM   11  C11 VFQ R 620     -37.333 133.777   9.981  1.00 54.77     0.001 C 
HETATM   12  C12 VFQ R 620     -37.995 134.704   9.313  1.00 53.15     0.007 C 
HETATM   13  C13 VFQ R 620     -38.946 135.626   9.929  1.00 52.91    -0.062 C 
HETATM   14  C14 VFQ R 620     -39.641 136.382   9.084  1.00 56.79     0.007 C 
HETATM   15  C15 VFQ R 620     -40.654 137.318   9.524  1.00 60.51     0.001 C 
HETATM   16  C16 VFQ R 620     -34.256 127.029   7.599  1.00 50.92     0.020 C 
HETATM   17  C17 VFQ R 620     -35.651 128.805   6.638  1.00 48.05     0.020 C 
HETATM   18  C18 VFQ R 620     -31.546 130.871   8.201  1.00 55.82     0.044 C 
HETATM   19  C19 VFQ R 620     -35.963 131.362  10.945  1.00 58.46     0.048 C 
HETATM   20  C20 VFQ R 620     -39.145 135.696  11.411  1.00 55.54     0.048 C 
HETATM   21  O3  VFQ R 620     -31.483 126.894   5.848  1.00 50.70    -0.395 OA
ATOM     22  H3  VFQ R 620     -30.534 126.882   5.834  1.00  0.00     0.210 HD
HETATM   23  C21 VFQ R 620     -50.522 144.548   9.836  1.00 19.54    -0.018 C 
HETATM   24  C22 VFQ R 620     -51.520 145.196  10.793  1.00 19.54     0.045 C 
HETATM   25  C23 VFQ R 620     -51.248 146.603  11.285  1.00 19.54     0.123 C 
HETATM   26  C24 VFQ R 620     -49.800 146.728  11.688  1.00 19.54     0.066 C 
HETATM   27  C25 VFQ R 620     -48.887 146.276  10.576  1.00 19.54    -0.074 C 
HETATM   28  C26 VFQ R 620     -49.158 145.212   9.801  1.00 19.54    -0.048 C 
HETATM   29  C27 VFQ R 620     -48.136 144.687   8.846  1.00 19.54     0.009 C 
HETATM   30  C28 VFQ R 620     -47.182 143.811   9.184  1.00 19.54     0.007 C 
HETATM   31  C29 VFQ R 620     -46.189 143.294   8.249  1.00 46.41    -0.062 C 
HETATM   32  C30 VFQ R 620     -45.642 142.143   8.611  1.00 51.67     0.007 C 
HETATM   33  C31 VFQ R 620     -44.637 141.430   7.860  1.00 48.57     0.001 C 
HETATM   34  C32 VFQ R 620     -44.014 140.545   8.610  1.00 50.80     0.007 C 
HETATM   35  C33 VFQ R 620     -42.954 139.688   8.095  1.00 54.69    -0.062 C 
HETATM   36  C34 VFQ R 620     -42.402 138.837   8.956  1.00 55.71     0.007 C 
HETATM   37  C35 VFQ R 620     -41.354 137.916   8.571  1.00 57.66     0.001 C 
HETATM   38  C36 VFQ R 620     -51.076 144.618   8.421  1.00 19.54     0.020 C 
HETATM   39  C37 VFQ R 620     -50.441 143.084  10.252  1.00 19.54     0.020 C 
HETATM   40  C38 VFQ R 620     -47.656 147.102  10.376  1.00 19.54     0.044 C 
HETATM   41  C39 VFQ R 620     -45.820 144.002   6.984  1.00 47.78     0.048 C 
HETATM   42  C40 VFQ R 620     -42.521 139.799   6.668  1.00 56.30     0.048 C 
HETATM   43  O23 VFQ R 620     -52.055 146.846  12.439  1.00 19.54    -0.395 OA
ATOM     44  H23 VFQ R 620     -51.885 147.728  12.747  1.00  0.00     0.210 HD
ENDROOT
TORSDOF 12
BEGIN_RES PHE A  61
REMARK  2 active torsions:
REMARK  status: ('A' for Active; 'I' for Inactive)
REMARK    1  A    between atoms: CA   and  CB  
REMARK    2  A    between atoms: CB   and  CG  
ROOT
ATOM      1  CA  PHE A  61     -36.237 128.293  12.768  1.00 39.40     0.164 C 
ENDROOT
BRANCH   1   2
ATOM      2  CB  PHE A  61     -36.813 128.951  11.509  1.00 39.41     0.058 C 
BRANCH   2   3
ATOM      3  CG  PHE A  61     -36.999 128.010  10.343  1.00 39.01    -0.020 A 
ATOM      4  CD2 PHE A  61     -36.197 126.889  10.198  1.00 40.32    -0.004 A 
ATOM      5  CE2 PHE A  61     -36.368 126.026   9.123  1.00 40.20    -0.000 A 
ATOM      6  CZ  PHE A  61     -37.343 126.272   8.183  1.00 40.34    -0.000 A 
ATOM      7  CE1 PHE A  61     -38.149 127.381   8.314  1.00 41.51    -0.000 A 
ATOM      8  CD1 PHE A  61     -37.975 128.247   9.385  1.00 39.94    -0.004 A 
ENDBRANCH   2   3
ENDBRANCH   1   2
END_RES PHE A  61
BEGIN_RES VAL A 134
REMARK  1 active torsions:
REMARK  status: ('A' for Active; 'I' for Inactive)
REMARK    3  A    between atoms: CA   and  CB  
ROOT
ATOM      9  CA  VAL A 134     -29.766 132.051   9.815  1.00 40.75     0.159 C 
ENDROOT
BRANCH   9  10
ATOM     10  CB  VAL A 134     -30.864 132.765   9.009  1.00 40.76     0.029 C 
ATOM     11  CG1 VAL A 134     -32.099 132.994   9.868  1.00 41.76     0.002 C 
ATOM     12  CG2 VAL A 134     -30.365 134.076   8.420  1.00 40.56     0.002 C 
ENDBRANCH   9  10
END_RES VAL A 134
BEGIN_RES TYR A 338
REMARK  3 active torsions:
REMARK  status: ('A' for Active; 'I' for Inactive)
REMARK    4  A    between atoms: CA   and  CB  
REMARK    5  A    between atoms: CB   and  CG  
REMARK    6  A    between atoms: CZ   and  OH  
ROOT
ATOM     13  CA  TYR A 338     -41.631 124.950   6.058  1.00 38.23     0.164 C 
ENDROOT
BRANCH  13  14
ATOM     14  CB  TYR A 338     -41.621 126.456   6.339  1.00 39.15     0.058 C 
BRANCH  14  15
ATOM     15  CG  TYR A 338     -40.421 127.213   5.818  1.00 39.03    -0.020 A 
ATOM     16  CD2 TYR A 338     -40.275 128.564   6.083  1.00 40.65    -0.002 A 
ATOM     17  CE2 TYR A 338     -39.196 129.292   5.607  1.00 40.91     0.024 A 
ATOM     18  CZ  TYR A 338     -38.228 128.667   4.844  1.00 42.33     0.089 A 
ATOM     19  CE1 TYR A 338     -38.349 127.316   4.570  1.00 40.63     0.024 A 
ATOM     20  CD1 TYR A 338     -39.443 126.608   5.044  1.00 39.27    -0.002 A 
BRANCH  18  21
ATOM     21  OH  TYR A 338     -37.157 129.374   4.374  1.00 43.36    -0.359 OA
ATOM     22  HH  TYR A 338     -36.386 129.494   4.916  1.00  0.00     0.217 HD
ENDBRANCH  18  21
ENDBRANCH  14  15
ENDBRANCH  13  14
END_RES TYR A 338
ENDMDL
MODEL 2
REMARK VINA RESULT:   -10.234      0.615     16.499
REMARK INTER + INTRA:         -10.965
REMARK INTER:                 -10.681
REMARK INTRA:                  -0.284
REMARK UNBOUND:                -0.731
REMARK  0 active torsions:
REMARK  status: ('A' for Active; 'I' for Inactive)
REMARK       I    between atoms: C3_3  and  O3_21 
REMARK       I    between atoms: C6_6  and  C7_7 
REMARK       I    between atoms: C8_8  and  C9_9 
REMARK       I    between atoms: C10_10  and  C11_11 
REMARK       I    between atoms: C12_12  and  C13_13 
REMARK       I    between atoms: C14_14  and  C15_15 
REMARK       I    between atoms: C23_25  and  O23_43 
REMARK       I    between atoms: C26_28  and  C27_29 
REMARK       I    between atoms: C28_30  and  C29_31 
REMARK       I    between atoms: C30_32  and  C31_33 
REMARK       I    between atoms: C32_34  and  C33_35 
REMARK       I    between atoms: C34_36  and  C35_37 
ROOT
HETATM    1  C1  VFQ R 620     -50.149 144.563  10.778  1.00 48.79    -0.018 C 
HETATM    2  C2  VFQ R 620     -50.710 144.771  12.178  1.00 49.38     0.045 C 
HETATM    3  C3  VFQ R 620     -50.708 146.198  12.725  1.00 51.85     0.123 C 
HETATM    4  C4  VFQ R 620     -49.411 146.942  12.460  1.00 54.16     0.066 C 
HETATM    5  C5  VFQ R 620     -48.656 146.518  11.230  1.00 52.93    -0.074 C 
HETATM    6  C6  VFQ R 620     -48.890 145.382  10.551  1.00 53.44    -0.048 C 
HETATM    7  C7  VFQ R 620     -47.913 144.913   9.530  1.00 56.18     0.009 C 
HETATM    8  C8  VFQ R 620     -47.007 143.971   9.795  1.00 54.04     0.007 C 
HETATM    9  C9  VFQ R 620     -46.045 143.472   8.804  1.00 57.87    -0.062 C 
HETATM   10  C10 VFQ R 620     -45.129 142.618   9.252  1.00 59.37     0.007 C 
HETATM   11  C11 VFQ R 620     -44.110 141.994   8.425  1.00 54.77     0.001 C 
HETATM   12  C12 VFQ R 620     -43.442 141.043   9.051  1.00 53.15     0.007 C 
HETATM   13  C13 VFQ R 620     -42.393 140.241   8.426  1.00 52.91    -0.062 C 
HETATM   14  C14 VFQ R 620     -41.942 139.222   9.150  1.00 56.79     0.007 C 
HETATM   15  C15 VFQ R 620     -40.934 138.303   8.664  1.00 60.51     0.001 C 
HETATM   16  C16 VFQ R 620     -51.209 144.917   9.746  1.00 50.92     0.020 C 
HETATM   17  C17 VFQ R 620     -49.834 143.079  10.615  1.00 48.05     0.020 C 
HETATM   18  C18 VFQ R 620     -47.320 147.187  11.225  1.00 55.82     0.044 C 
HETATM   19  C19 VFQ R 620     -46.095 143.887   7.367  1.00 58.46     0.048 C 
HETATM   20  C20 VFQ R 620     -41.879 140.532   7.049  1.00 55.54     0.048 C 
HETATM   21  O3  VFQ R 620     -51.823 146.958  12.242  1.00 50.70    -0.395 OA
ATOM     22  H3  VFQ R 620     -51.821 147.845  12.582  1.00  0.00     0.210 HD
HETATM   23  C21 VFQ R 620     -34.121 128.281   6.961  1.00 19.54    -0.018 C 
HETATM   24  C22 VFQ R 620     -33.231 127.580   5.938  1.00 19.54     0.045 C 
HETATM   25  C23 VFQ R 620     -31.737 127.826   5.985  1.00 19.54     0.123 C 
HETATM   26  C24 VFQ R 620     -31.470 129.298   6.165  1.00 19.54     0.066 C 
HETATM   27  C25 VFQ R 620     -32.222 129.845   7.352  1.00 19.54    -0.074 C 
HETATM   28  C26 VFQ R 620     -33.476 129.467   7.654  1.00 19.54    -0.048 C 
HETATM   29  C27 VFQ R 620     -34.250 130.175   8.718  1.00 19.54     0.009 C 
HETATM   30  C28 VFQ R 620     -34.965 131.287   8.504  1.00 19.54     0.007 C 
HETATM   31  C29 VFQ R 620     -35.724 131.974   9.543  1.00 46.41    -0.062 C 
HETATM   32  C30 VFQ R 620     -36.701 132.745   9.088  1.00 51.67     0.007 C 
HETATM   33  C31 VFQ R 620     -37.591 133.527   9.911  1.00 48.57     0.001 C 
HETATM   34  C32 VFQ R 620     -38.195 134.464   9.210  1.00 50.80     0.007 C 
HETATM   35  C33 VFQ R 620     -39.150 135.392   9.802  1.00 54.69    -0.062 C 
HETATM   36  C34 VFQ R 620     -39.689 136.295   8.986  1.00 55.71     0.007 C 
HETATM   37  C35 VFQ R 620     -40.666 137.263   9.440  1.00 57.66     0.001 C 
HETATM   38  C36 VFQ R 620     -34.494 127.290   8.053  1.00 19.54     0.020 C 
HETATM   39  C37 VFQ R 620     -35.388 128.671   6.209  1.00 19.54     0.020 C 
HETATM   40  C38 VFQ R 620     -31.475 130.834   8.190  1.00 19.54     0.044 C 
HETATM   41  C39 VFQ R 620     -35.428 131.819  11.000  1.00 47.78     0.048 C 
HETATM   42  C40 VFQ R 620     -39.470 135.316  11.261  1.00 56.30     0.048 C 
HETATM   43  O23 VFQ R 620     -31.168 127.417   4.740  1.00 19.54    -0.395 OA
ATOM     44  H23 VFQ R 620     -30.231 127.571   4.769  1.00  0.00     0.210 HD
ENDROOT
TORSDOF 12
BEGIN_RES PHE A  61
REMARK  2 active torsions:
REMARK  status: ('A' for Active; 'I' for Inactive)
REMARK    1  A    between atoms: CA   and  CB  
REMARK    2  A    between atoms: CB   and  CG  
ROOT
ATOM      1  CA  PHE A  61     -36.237 128.293  12.768  1.00 39.40     0.164 C 
ENDROOT
BRANCH   1   2
ATOM      2  CB  PHE A  61     -36.813 128.951  11.509  1.00 39.41     0.058 C 
BRANCH   2   3
ATOM      3  CG  PHE A  61     -37.018 128.006  10.349  1.00 39.01    -0.020 A 
ATOM      4  CD2 PHE A  61     -36.302 126.823  10.260  1.00 40.32    -0.004 A 
ATOM      5  CE2 PHE A  61     -36.490 125.956   9.191  1.00 40.20    -0.000 A 
ATOM      6  CZ  PHE A  61     -37.397 126.260   8.202  1.00 40.34    -0.000 A 
ATOM      7  CE1 PHE A  61     -38.119 127.431   8.277  1.00 41.51    -0.000 A 
ATOM      8  CD1 PHE A  61     -37.927 128.301   9.343  1.00 39.94    -0.004 A 
ENDBRANCH   2   3
ENDBRANCH   1   2
END_RES PHE A  61
BEGIN_RES VAL A 134
REMARK  1 active torsions:
REMARK  status: ('A' for Active; 'I' for Inactive)
REMARK    3  A    between atoms: CA   and  CB  
ROOT
ATOM      9  CA  VAL A 134     -29.766 132.051   9.815  1.00 40.75     0.159 C 
ENDROOT
BRANCH   9  10
ATOM     10  CB  VAL A 134     -30.864 132.765   9.009  1.00 40.76     0.029 C 
ATOM     11  CG1 VAL A 134     -32.091 133.014   9.874  1.00 41.76     0.002 C 
ATOM     12  CG2 VAL A 134     -30.359 134.064   8.401  1.00 40.56     0.002 C 
ENDBRANCH   9  10
END_RES VAL A 134
BEGIN_RES TYR A 338
REMARK  3 active torsions:
REMARK  status: ('A' for Active; 'I' for Inactive)
REMARK    4  A    between atoms: CA   and  CB  
REMARK    5  A    between atoms: CB   and  CG  
REMARK    6  A    between atoms: CZ   and  OH  
ROOT
ATOM     13  CA  TYR A 338     -41.631 124.950   6.058  1.00 38.23     0.164 C 
ENDROOT
BRANCH  13  14
ATOM     14  CB  TYR A 338     -41.621 126.456   6.339  1.00 39.15     0.058 C 
BRANCH  14  15
ATOM     15  CG  TYR A 338     -40.423 127.213   5.815  1.00 39.03    -0.020 A 
ATOM     16  CD2 TYR A 338     -40.268 128.560   6.094  1.00 40.65    -0.002 A 
ATOM     17  CE2 TYR A 338     -39.190 129.290   5.617  1.00 40.91     0.024 A 
ATOM     18  CZ  TYR A 338     -38.233 128.669   4.836  1.00 42.33     0.089 A 
ATOM     19  CE1 TYR A 338     -38.363 127.322   4.548  1.00 40.63     0.024 A 
ATOM     20  CD1 TYR A 338     -39.455 126.613   5.024  1.00 39.27    -0.002 A 
BRANCH  18  21
ATOM     21  OH  TYR A 338     -37.163 129.377   4.364  1.00 43.36    -0.359 OA
ATOM     22  HH  TYR A 338     -36.870 129.264   3.467  1.00  0.00     0.217 HD
ENDBRANCH  18  21
ENDBRANCH  14  15
ENDBRANCH  13  14
END_RES TYR A 338
ENDMDL
