MODEL 1
REMARK VINA RESULT:   -12.223      0.000      0.000
REMARK INTER + INTRA:         -14.703
REMARK INTER:                 -12.223
REMARK INTRA:                  -2.479
REMARK UNBOUND:                -2.479
REMARK  0 active torsions:
REMARK  status: ('A' for Active; 'I' for Inactive)
REMARK       I    between atoms: C3_3  and  O3_21 
REMARK       I    between atoms: C6_6  and  C7_7 
REMARK       I    between atoms: C8_8  and  C9_9 
REMARK       I    between atoms: C10_10  and  C11_11 
REMARK       I    between atoms: C12_12  and  C13_13 
REMARK       I    between atoms: C14_14  and  C15_15 
REMARK       I    between atoms: C23_25  and  O23_43 
REMARK       I    between atoms: C26_28  and  C27_29 
REMARK       I    between atoms: C28_30  and  C29_31 
REMARK       I    between atoms: C30_32  and  C31_33 
REMARK       I    between atoms: C32_34  and  C33_35 
REMARK       I    between atoms: C34_36  and  C35_37 
ROOT
HETATM    1  C1  VFQ S1621     -34.211 127.201   6.683  1.00 56.99    -0.018 C 
HETATM    2  C2  VFQ S1621     -33.811 126.760   5.277  1.00 56.99     0.045 C 
HETATM    3  C3  VFQ S1621     -32.655 127.489   4.605  1.00 56.99     0.123 C 
HETATM    4  C4  VFQ S1621     -31.644 127.993   5.614  1.00 56.99     0.066 C 
HETATM    5  C5  VFQ S1621     -32.354 128.841   6.629  1.00 56.99    -0.074 C 
HETATM    6  C6  VFQ S1621     -33.510 128.456   7.167  1.00 56.99    -0.048 C 
HETATM    7  C7  VFQ S1621     -34.115 129.255   8.266  1.00 56.99     0.009 C 
HETATM    8  C8  VFQ S1621     -35.022 130.203   8.023  1.00 56.99     0.007 C 
HETATM    9  C9  VFQ S1621     -35.661 131.028   9.067  1.00 56.99    -0.062 C 
HETATM   10  C10 VFQ S1621     -36.538 131.948   8.660  1.00 56.99     0.007 C 
HETATM   11  C11 VFQ S1621     -37.260 132.849   9.546  1.00 56.99     0.001 C 
HETATM   12  C12 VFQ S1621     -37.855 133.871   8.945  1.00 56.99     0.007 C 
HETATM   13  C13 VFQ S1621     -38.664 134.875   9.651  1.00 56.99    -0.062 C 
HETATM   14  C14 VFQ S1621     -39.339 135.750   8.900  1.00 56.99     0.007 C 
HETATM   15  C15 VFQ S1621     -40.211 136.769   9.458  1.00 56.99     0.001 C 
HETATM   16  C16 VFQ S1621     -33.986 126.025   7.631  1.00 56.99     0.020 C 
HETATM   17  C17 VFQ S1621     -35.695 127.507   6.657  1.00 56.99     0.020 C 
HETATM   18  C18 VFQ S1621     -31.574 129.992   7.181  1.00 56.99     0.044 C 
HETATM   19  C19 VFQ S1621     -35.345 130.865  10.519  1.00 56.99     0.048 C 
HETATM   20  C20 VFQ S1621     -38.736 134.906  11.146  1.00 56.99     0.048 C 
HETATM   21  O3  VFQ S1621     -31.991 126.581   3.720  1.00 56.99    -0.395 OA
ATOM     22  H3  VFQ S1621     -32.625 126.266   3.087  1.00  0.00     0.210 HD
HETATM   23  C21 VFQ S1621     -49.815 145.105   9.429  1.00 26.49    -0.018 C 
HETATM   24  C22 VFQ S1621     -50.731 146.095  10.144  1.00 26.49     0.045 C 
HETATM   25  C23 VFQ S1621     -50.066 147.214  10.928  1.00 26.49     0.123 C 
HETATM   26  C24 VFQ S1621     -48.846 146.687  11.655  1.00 26.49     0.066 C 
HETATM   27  C25 VFQ S1621     -47.901 146.165  10.614  1.00 26.49    -0.074 C 
HETATM   28  C26 VFQ S1621     -48.329 145.357   9.632  1.00 26.49    -0.048 C 
HETATM   29  C27 VFQ S1621     -47.331 144.727   8.722  1.00 26.49     0.009 C 
HETATM   30  C28 VFQ S1621     -46.792 143.533   8.977  1.00 26.49     0.007 C 
HETATM   31  C29 VFQ S1621     -45.796 142.861   8.135  1.00 56.99    -0.062 C 
HETATM   32  C30 VFQ S1621     -45.327 141.719   8.622  1.00 56.99     0.007 C 
HETATM   33  C31 VFQ S1621     -44.366 140.848   7.970  1.00 56.99     0.001 C 
HETATM   34  C32 VFQ S1621     -43.548 140.182   8.770  1.00 56.99     0.007 C 
HETATM   35  C33 VFQ S1621     -42.574 139.227   8.239  1.00 56.99    -0.062 C 
HETATM   36  C34 VFQ S1621     -41.798 138.551   9.095  1.00 56.99     0.007 C 
HETATM   37  C35 VFQ S1621     -40.863 137.551   8.607  1.00 56.99     0.001 C 
HETATM   38  C36 VFQ S1621     -50.095 145.224   7.944  1.00 26.49     0.020 C 
HETATM   39  C37 VFQ S1621     -50.210 143.707   9.888  1.00 26.49     0.020 C 
HETATM   40  C38 VFQ S1621     -46.475 146.617  10.713  1.00 26.49     0.044 C 
HETATM   41  C39 VFQ S1621     -45.348 143.414   6.818  1.00 56.99     0.048 C 
HETATM   42  C40 VFQ S1621     -42.500 138.996   6.762  1.00 56.99     0.048 C 
HETATM   43  O23 VFQ S1621     -50.999 147.747  11.871  1.00 26.49    -0.395 OA
ATOM     44  H23 VFQ S1621     -50.583 148.448  12.361  1.00  0.00     0.210 HD
ENDROOT
TORSDOF 12
BEGIN_RES PHE A  61
REMARK  2 active torsions:
REMARK  status: ('A' for Active; 'I' for Inactive)
REMARK    1  A    between atoms: CA   and  CB  
REMARK    2  A    between atoms: CB   and  CG  
ROOT
ATOM      1  CA  PHE A  61     -36.237 128.293  12.768  1.00 39.40     0.164 C 
ENDROOT
BRANCH   1   2
ATOM      2  CB  PHE A  61     -36.813 128.951  11.509  1.00 39.41     0.058 C 
BRANCH   2   3
ATOM      3  CG  PHE A  61     -37.079 127.995  10.371  1.00 39.01    -0.020 A 
ATOM      4  CD2 PHE A  61     -36.354 126.820  10.245  1.00 40.32    -0.004 A 
ATOM      5  CE2 PHE A  61     -36.598 125.943   9.195  1.00 40.20    -0.000 A 
ATOM      6  CZ  PHE A  61     -37.569 126.228   8.264  1.00 40.34    -0.000 A 
ATOM      7  CE1 PHE A  61     -38.299 127.390   8.376  1.00 41.51    -0.000 A 
ATOM      8  CD1 PHE A  61     -38.052 128.271   9.421  1.00 39.94    -0.004 A 
ENDBRANCH   2   3
ENDBRANCH   1   2
END_RES PHE A  61
BEGIN_RES VAL A 134
REMARK  1 active torsions:
REMARK  status: ('A' for Active; 'I' for Inactive)
REMARK    3  A    between atoms: CA   and  CB  
ROOT
ATOM      9  CA  VAL A 134     -29.766 132.051   9.815  1.00 40.75     0.159 C 
ENDROOT
BRANCH   9  10
ATOM     10  CB  VAL A 134     -30.864 132.765   9.009  1.00 40.76     0.029 C 
ATOM     11  CG1 VAL A 134     -30.846 132.312   7.557  1.00 41.76     0.002 C 
ATOM     12  CG2 VAL A 134     -32.239 132.554   9.624  1.00 40.56     0.002 C 
ENDBRANCH   9  10
END_RES VAL A 134
BEGIN_RES TYR A 338
REMARK  3 active torsions:
REMARK  status: ('A' for Active; 'I' for Inactive)
REMARK    4  A    between atoms: CA   and  CB  
REMARK    5  A    between atoms: CB   and  CG  
REMARK    6  A    between atoms: CZ   and  OH  
ROOT
ATOM     13  CA  TYR A 338     -41.631 124.950   6.058  1.00 38.23     0.164 C 
ENDROOT
BRANCH  13  14
ATOM     14  CB  TYR A 338     -41.621 126.456   6.339  1.00 39.15     0.058 C 
BRANCH  14  15
ATOM     15  CG  TYR A 338     -40.411 127.209   5.837  1.00 39.03    -0.020 A 
ATOM     16  CD2 TYR A 338     -40.244 128.550   6.140  1.00 40.65    -0.002 A 
ATOM     17  CE2 TYR A 338     -39.154 129.275   5.683  1.00 40.91     0.024 A 
ATOM     18  CZ  TYR A 338     -38.198 128.657   4.900  1.00 42.33     0.089 A 
ATOM     19  CE1 TYR A 338     -38.340 127.317   4.587  1.00 40.63     0.024 A 
ATOM     20  CD1 TYR A 338     -39.444 126.612   5.043  1.00 39.27    -0.002 A 
BRANCH  18  21
ATOM     21  OH  TYR A 338     -37.117 129.361   4.447  1.00 43.36    -0.359 OA
ATOM     22  HH  TYR A 338     -36.873 130.183   4.858  1.00  0.00     0.217 HD
ENDBRANCH  18  21
ENDBRANCH  14  15
ENDBRANCH  13  14
END_RES TYR A 338
ENDMDL
