MODEL 1
REMARK VINA RESULT:   -10.390      0.000      0.000
REMARK INTER + INTRA:         -10.678
REMARK INTER:                 -10.390
REMARK INTRA:                  -0.288
REMARK UNBOUND:                -0.288
REMARK  0 active torsions:
REMARK  status: ('A' for Active; 'I' for Inactive)
REMARK       I    between atoms: C3_3  and  O3_21 
REMARK       I    between atoms: C6_6  and  C7_7 
REMARK       I    between atoms: C8_8  and  C9_9 
REMARK       I    between atoms: C10_10  and  C11_11 
REMARK       I    between atoms: C12_12  and  C13_13 
REMARK       I    between atoms: C14_14  and  C15_15 
REMARK       I    between atoms: C23_25  and  O23_43 
REMARK       I    between atoms: C26_28  and  C27_29 
REMARK       I    between atoms: C28_30  and  C29_31 
REMARK       I    between atoms: C30_32  and  C31_33 
REMARK       I    between atoms: C32_34  and  C33_35 
REMARK       I    between atoms: C34_36  and  C35_37 
ROOT
HETATM    1  C1  VFQ N1620     -50.006 144.403  12.179  1.00 57.79    -0.018 C 
HETATM    2  C2  VFQ N1620     -50.953 145.023  13.192  1.00 59.26     0.045 C 
HETATM    3  C3  VFQ N1620     -50.247 145.602  14.397  1.00 62.25     0.123 C 
HETATM    4  C4  VFQ N1620     -49.306 146.687  13.938  1.00 57.83     0.066 C 
HETATM    5  C5  VFQ N1620     -48.378 146.191  12.865  1.00 54.66    -0.074 C 
HETATM    6  C6  VFQ N1620     -48.686 145.158  12.050  1.00 55.29    -0.048 C 
HETATM    7  C7  VFQ N1620     -47.755 144.762  10.960  1.00 55.61     0.009 C 
HETATM    8  C8  VFQ N1620     -46.728 143.932  11.151  1.00 56.19     0.007 C 
HETATM    9  C9  VFQ N1620     -45.814 143.536  10.083  1.00 61.49    -0.062 C 
HETATM   10  C10 VFQ N1620     -44.892 142.642  10.429  1.00 57.47     0.007 C 
HETATM   11  C11 VFQ N1620     -43.894 142.098   9.535  1.00 53.29     0.001 C 
HETATM   12  C12 VFQ N1620     -43.171 141.141  10.084  1.00 52.45     0.007 C 
HETATM   13  C13 VFQ N1620     -42.131 140.434   9.342  1.00 52.04    -0.062 C 
HETATM   14  C14 VFQ N1620     -41.647 139.329   9.906  1.00 54.29     0.007 C 
HETATM   15  C15 VFQ N1620     -40.642 138.500   9.274  1.00 53.12     0.001 C 
HETATM   16  C16 VFQ N1620     -50.798 144.316  10.879  1.00 58.39     0.020 C 
HETATM   17  C17 VFQ N1620     -49.674 142.987  12.624  1.00 64.45     0.020 C 
HETATM   18  C18 VFQ N1620     -47.104 146.980  12.774  1.00 58.11     0.044 C 
HETATM   19  C19 VFQ N1620     -45.908 144.126   8.706  1.00 70.55     0.048 C 
HETATM   20  C20 VFQ N1620     -41.667 140.930   8.010  1.00 53.04     0.048 C 
HETATM   21  O3  VFQ N1620     -51.204 146.187  15.282  1.00 65.91    -0.395 OA
ATOM     22  H3  VFQ N1620     -50.761 146.551  16.040  1.00  0.00     0.210 HD
HETATM   23  C21 VFQ N1620     -34.025 128.110   7.071  1.00 48.43    -0.018 C 
HETATM   24  C22 VFQ N1620     -33.172 127.261   6.140  1.00 44.61     0.045 C 
HETATM   25  C23 VFQ N1620     -31.744 127.727   5.925  1.00 44.41     0.123 C 
HETATM   26  C24 VFQ N1620     -31.687 129.227   5.774  1.00 41.53     0.066 C 
HETATM   27  C25 VFQ N1620     -32.229 129.837   7.028  1.00 37.72    -0.074 C 
HETATM   28  C26 VFQ N1620     -33.379 129.402   7.539  1.00 43.52    -0.048 C 
HETATM   29  C27 VFQ N1620     -34.078 130.141   8.618  1.00 44.60     0.009 C 
HETATM   30  C28 VFQ N1620     -34.853 131.189   8.370  1.00 43.22     0.007 C 
HETATM   31  C29 VFQ N1620     -35.573 131.880   9.448  1.00 71.47    -0.062 C 
HETATM   32  C30 VFQ N1620     -36.463 132.784   9.045  1.00 69.97     0.007 C 
HETATM   33  C31 VFQ N1620     -37.310 133.569   9.921  1.00 65.68     0.001 C 
HETATM   34  C32 VFQ N1620     -37.989 134.514   9.298  1.00 62.75     0.007 C 
HETATM   35  C33 VFQ N1620     -38.928 135.400   9.989  1.00 61.08    -0.062 C 
HETATM   36  C34 VFQ N1620     -39.403 136.442   9.305  1.00 59.90     0.007 C 
HETATM   37  C35 VFQ N1620     -40.370 137.356   9.882  1.00 55.64     0.001 C 
HETATM   38  C36 VFQ N1620     -34.303 127.335   8.345  1.00 47.48     0.020 C 
HETATM   39  C37 VFQ N1620     -35.335 128.351   6.327  1.00 54.25     0.020 C 
HETATM   40  C38 VFQ N1620     -31.424 130.921   7.666  1.00 37.77     0.044 C 
HETATM   41  C39 VFQ N1620     -35.327 131.583  10.894  1.00 74.91     0.048 C 
HETATM   42  C40 VFQ N1620     -39.348 135.112  11.397  1.00 55.73     0.048 C 
HETATM   43  O23 VFQ N1620     -31.234 127.126   4.734  1.00 48.83    -0.395 OA
ATOM     44  H23 VFQ N1620     -31.271 126.182   4.829  1.00  0.00     0.210 HD
ENDROOT
TORSDOF 12
BEGIN_RES PHE A  61
REMARK  2 active torsions:
REMARK  status: ('A' for Active; 'I' for Inactive)
REMARK    1  A    between atoms: CA   and  CB  
REMARK    2  A    between atoms: CB   and  CG  
ROOT
ATOM      1  CA  PHE A  61     -36.237 128.293  12.768  1.00 39.40     0.164 C 
ENDROOT
BRANCH   1   2
ATOM      2  CB  PHE A  61     -36.813 128.951  11.509  1.00 39.41     0.058 C 
BRANCH   2   3
ATOM      3  CG  PHE A  61     -37.017 128.006  10.349  1.00 39.01    -0.020 A 
ATOM      4  CD2 PHE A  61     -36.303 126.821  10.262  1.00 40.32    -0.004 A 
ATOM      5  CE2 PHE A  61     -36.490 125.955   9.192  1.00 40.20    -0.000 A 
ATOM      6  CZ  PHE A  61     -37.395 126.260   8.201  1.00 40.34    -0.000 A 
ATOM      7  CE1 PHE A  61     -38.114 127.433   8.274  1.00 41.51    -0.000 A 
ATOM      8  CD1 PHE A  61     -37.922 128.303   9.340  1.00 39.94    -0.004 A 
ENDBRANCH   2   3
ENDBRANCH   1   2
END_RES PHE A  61
BEGIN_RES VAL A 134
REMARK  1 active torsions:
REMARK  status: ('A' for Active; 'I' for Inactive)
REMARK    3  A    between atoms: CA   and  CB  
ROOT
ATOM      9  CA  VAL A 134     -29.766 132.051   9.815  1.00 40.75     0.159 C 
ENDROOT
BRANCH   9  10
ATOM     10  CB  VAL A 134     -30.864 132.765   9.009  1.00 40.76     0.029 C 
ATOM     11  CG1 VAL A 134     -32.095 133.005   9.871  1.00 41.76     0.002 C 
ATOM     12  CG2 VAL A 134     -30.362 134.069   8.409  1.00 40.56     0.002 C 
ENDBRANCH   9  10
END_RES VAL A 134
BEGIN_RES TYR A 338
REMARK  3 active torsions:
REMARK  status: ('A' for Active; 'I' for Inactive)
REMARK    4  A    between atoms: CA   and  CB  
REMARK    5  A    between atoms: CB   and  CG  
REMARK    6  A    between atoms: CZ   and  OH  
ROOT
ATOM     13  CA  TYR A 338     -41.631 124.950   6.058  1.00 38.23     0.164 C 
ENDROOT
BRANCH  13  14
ATOM     14  CB  TYR A 338     -41.621 126.456   6.339  1.00 39.15     0.058 C 
BRANCH  14  15
ATOM     15  CG  TYR A 338     -40.422 127.213   5.815  1.00 39.03    -0.020 A 
ATOM     16  CD2 TYR A 338     -40.267 128.560   6.096  1.00 40.65    -0.002 A 
ATOM     17  CE2 TYR A 338     -39.188 129.289   5.619  1.00 40.91     0.024 A 
ATOM     18  CZ  TYR A 338     -38.232 128.668   4.837  1.00 42.33     0.089 A 
ATOM     19  CE1 TYR A 338     -38.363 127.322   4.547  1.00 40.63     0.024 A 
ATOM     20  CD1 TYR A 338     -39.456 126.614   5.022  1.00 39.27    -0.002 A 
BRANCH  18  21
ATOM     21  OH  TYR A 338     -37.162 129.376   4.365  1.00 43.36    -0.359 OA
ATOM     22  HH  TYR A 338     -37.161 130.326   4.401  1.00  0.00     0.217 HD
ENDBRANCH  18  21
ENDBRANCH  14  15
ENDBRANCH  13  14
END_RES TYR A 338
ENDMDL
MODEL 2
REMARK VINA RESULT:   -10.386      1.245     16.629
REMARK INTER + INTRA:         -10.673
REMARK INTER:                  -7.875
REMARK INTRA:                  -2.798
REMARK UNBOUND:                -0.288
REMARK  0 active torsions:
REMARK  status: ('A' for Active; 'I' for Inactive)
REMARK       I    between atoms: C3_3  and  O3_21 
REMARK       I    between atoms: C6_6  and  C7_7 
REMARK       I    between atoms: C8_8  and  C9_9 
REMARK       I    between atoms: C10_10  and  C11_11 
REMARK       I    between atoms: C12_12  and  C13_13 
REMARK       I    between atoms: C14_14  and  C15_15 
REMARK       I    between atoms: C23_25  and  O23_43 
REMARK       I    between atoms: C26_28  and  C27_29 
REMARK       I    between atoms: C28_30  and  C29_31 
REMARK       I    between atoms: C30_32  and  C31_33 
REMARK       I    between atoms: C32_34  and  C33_35 
REMARK       I    between atoms: C34_36  and  C35_37 
ROOT
HETATM    1  C1  VFQ N1620     -34.520 126.805   6.139  1.00 57.79    -0.018 C 
HETATM    2  C2  VFQ N1620     -33.814 125.944   5.107  1.00 59.26     0.045 C 
HETATM    3  C3  VFQ N1620     -32.942 126.737   4.159  1.00 62.25     0.123 C 
HETATM    4  C4  VFQ N1620     -31.878 127.450   4.954  1.00 57.83     0.066 C 
HETATM    5  C5  VFQ N1620     -32.477 128.268   6.064  1.00 54.66    -0.074 C 
HETATM    6  C6  VFQ N1620     -33.675 127.982   6.620  1.00 55.29    -0.048 C 
HETATM    7  C7  VFQ N1620     -34.179 128.787   7.764  1.00 55.61     0.009 C 
HETATM    8  C8  VFQ N1620     -34.848 129.930   7.605  1.00 56.19     0.007 C 
HETATM    9  C9  VFQ N1620     -35.350 130.722   8.726  1.00 61.49    -0.062 C 
HETATM   10  C10 VFQ N1620     -36.061 131.793   8.388  1.00 57.47     0.007 C 
HETATM   11  C11 VFQ N1620     -36.665 132.712   9.327  1.00 53.29     0.001 C 
HETATM   12  C12 VFQ N1620     -37.419 133.627   8.748  1.00 52.45     0.007 C 
HETATM   13  C13 VFQ N1620     -38.148 134.630   9.518  1.00 52.04    -0.062 C 
HETATM   14  C14 VFQ N1620     -39.067 135.332   8.858  1.00 54.29     0.007 C 
HETATM   15  C15 VFQ N1620     -39.897 136.334   9.494  1.00 53.12     0.001 C 
HETATM   16  C16 VFQ N1620     -34.938 125.850   7.252  1.00 58.39     0.020 C 
HETATM   17  C17 VFQ N1620     -35.781 127.382   5.514  1.00 64.45     0.020 C 
HETATM   18  C18 VFQ N1620     -31.596 129.400   6.506  1.00 58.11     0.044 C 
HETATM   19  C19 VFQ N1620     -35.052 130.350  10.149  1.00 70.55     0.048 C 
HETATM   20  C20 VFQ N1620     -37.877 134.826  10.975  1.00 53.04     0.048 C 
HETATM   21  O3  VFQ N1620     -32.296 125.851   3.242  1.00 65.91    -0.395 OA
ATOM     22  H3  VFQ N1620     -31.748 126.349   2.647  1.00  0.00     0.210 HD
HETATM   23  C21 VFQ N1620     -49.794 143.860  10.914  1.00 48.43    -0.018 C 
HETATM   24  C22 VFQ N1620     -50.718 144.671  11.811  1.00 44.61     0.045 C 
HETATM   25  C23 VFQ N1620     -50.160 145.978  12.342  1.00 44.41     0.123 C 
HETATM   26  C24 VFQ N1620     -48.720 145.816  12.762  1.00 41.53     0.066 C 
HETATM   27  C25 VFQ N1620     -47.936 145.388  11.562  1.00 37.72    -0.074 C 
HETATM   28  C26 VFQ N1620     -48.377 144.393  10.796  1.00 43.52    -0.048 C 
HETATM   29  C27 VFQ N1620     -47.517 143.768   9.763  1.00 44.60     0.009 C 
HETATM   30  C28 VFQ N1620     -46.621 142.835  10.057  1.00 43.22     0.007 C 
HETATM   31  C29 VFQ N1620     -45.809 142.196   9.013  1.00 71.47    -0.062 C 
HETATM   32  C30 VFQ N1620     -45.096 141.147   9.413  1.00 69.97     0.007 C 
HETATM   33  C31 VFQ N1620     -44.245 140.342   8.559  1.00 65.68     0.001 C 
HETATM   34  C32 VFQ N1620     -43.513 139.461   9.215  1.00 62.75     0.007 C 
HETATM   35  C33 VFQ N1620     -42.609 138.525   8.542  1.00 61.08    -0.062 C 
HETATM   36  C34 VFQ N1620     -41.774 137.823   9.310  1.00 59.90     0.007 C 
HETATM   37  C35 VFQ N1620     -40.867 136.840   8.748  1.00 55.64     0.001 C 
HETATM   38  C36 VFQ N1620     -50.329 143.875   9.495  1.00 47.48     0.020 C 
HETATM   39  C37 VFQ N1620     -49.836 142.434  11.457  1.00 54.25     0.020 C 
HETATM   40  C38 VFQ N1620     -46.672 146.129  11.271  1.00 37.77     0.044 C 
HETATM   41  C39 VFQ N1620     -45.792 142.689   7.599  1.00 74.91     0.048 C 
HETATM   42  C40 VFQ N1620     -42.658 138.357   7.056  1.00 55.73     0.048 C 
HETATM   43  O23 VFQ N1620     -50.926 146.382  13.477  1.00 48.83    -0.395 OA
ATOM     44  H23 VFQ N1620     -51.833 146.484  13.212  1.00  0.00     0.210 HD
ENDROOT
TORSDOF 12
BEGIN_RES PHE A  61
REMARK  2 active torsions:
REMARK  status: ('A' for Active; 'I' for Inactive)
REMARK    1  A    between atoms: CA   and  CB  
REMARK    2  A    between atoms: CB   and  CG  
ROOT
ATOM      1  CA  PHE A  61     -36.237 128.293  12.768  1.00 39.40     0.164 C 
ENDROOT
BRANCH   1   2
ATOM      2  CB  PHE A  61     -36.813 128.951  11.509  1.00 39.41     0.058 C 
BRANCH   2   3
ATOM      3  CG  PHE A  61     -37.041 128.001  10.357  1.00 39.01    -0.020 A 
ATOM      4  CD2 PHE A  61     -36.316 126.825  10.250  1.00 40.32    -0.004 A 
ATOM      5  CE2 PHE A  61     -36.524 125.954   9.189  1.00 40.20    -0.000 A 
ATOM      6  CZ  PHE A  61     -37.462 126.247   8.225  1.00 40.34    -0.000 A 
ATOM      7  CE1 PHE A  61     -38.192 127.411   8.317  1.00 41.51    -0.000 A 
ATOM      8  CD1 PHE A  61     -37.980 128.285   9.375  1.00 39.94    -0.004 A 
ENDBRANCH   2   3
ENDBRANCH   1   2
END_RES PHE A  61
BEGIN_RES VAL A 134
REMARK  1 active torsions:
REMARK  status: ('A' for Active; 'I' for Inactive)
REMARK    3  A    between atoms: CA   and  CB  
ROOT
ATOM      9  CA  VAL A 134     -29.766 132.051   9.815  1.00 40.75     0.159 C 
ENDROOT
BRANCH   9  10
ATOM     10  CB  VAL A 134     -30.864 132.765   9.009  1.00 40.76     0.029 C 
ATOM     11  CG1 VAL A 134     -30.928 132.222   7.589  1.00 41.76     0.002 C 
ATOM     12  CG2 VAL A 134     -32.220 132.658   9.690  1.00 40.56     0.002 C 
ENDBRANCH   9  10
END_RES VAL A 134
BEGIN_RES TYR A 338
REMARK  3 active torsions:
REMARK  status: ('A' for Active; 'I' for Inactive)
REMARK    4  A    between atoms: CA   and  CB  
REMARK    5  A    between atoms: CB   and  CG  
REMARK    6  A    between atoms: CZ   and  OH  
ROOT
ATOM     13  CA  TYR A 338     -41.631 124.950   6.058  1.00 38.23     0.164 C 
ENDROOT
BRANCH  13  14
ATOM     14  CB  TYR A 338     -41.621 126.456   6.339  1.00 39.15     0.058 C 
BRANCH  14  15
ATOM     15  CG  TYR A 338     -40.424 127.214   5.812  1.00 39.03    -0.020 A 
ATOM     16  CD2 TYR A 338     -40.236 128.545   6.144  1.00 40.65    -0.002 A 
ATOM     17  CE2 TYR A 338     -39.158 129.274   5.666  1.00 40.91     0.024 A 
ATOM     18  CZ  TYR A 338     -38.237 128.671   4.831  1.00 42.33     0.089 A 
ATOM     19  CE1 TYR A 338     -38.401 127.340   4.489  1.00 40.63     0.024 A 
ATOM     20  CD1 TYR A 338     -39.492 126.631   4.967  1.00 39.27    -0.002 A 
BRANCH  18  21
ATOM     21  OH  TYR A 338     -37.168 129.380   4.358  1.00 43.36    -0.359 OA
ATOM     22  HH  TYR A 338     -37.256 130.303   4.154  1.00  0.00     0.217 HD
ENDBRANCH  18  21
ENDBRANCH  14  15
ENDBRANCH  13  14
END_RES TYR A 338
ENDMDL
