MODEL 1
REMARK VINA RESULT:    -9.514      0.000      0.000
REMARK INTER + INTRA:         -12.713
REMARK INTER:                  -9.514
REMARK INTRA:                  -3.199
REMARK UNBOUND:                -3.199
REMARK  0 active torsions:
REMARK  status: ('A' for Active; 'I' for Inactive)
REMARK       I    between atoms: C3_3  and  O3_21 
REMARK       I    between atoms: C6_6  and  C7_7 
REMARK       I    between atoms: C8_8  and  C9_9 
REMARK       I    between atoms: C10_10  and  C11_11 
REMARK       I    between atoms: C12_12  and  C13_13 
REMARK       I    between atoms: C14_14  and  C15_15 
REMARK       I    between atoms: C23_25  and  O23_43 
REMARK       I    between atoms: C26_28  and  C27_29 
REMARK       I    between atoms: C28_30  and  C29_31 
REMARK       I    between atoms: C30_32  and  C31_33 
REMARK       I    between atoms: C32_34  and  C33_35 
REMARK       I    between atoms: C34_36  and  C35_37 
ROOT
HETATM    1  C1  VFQ 21621     -34.481 126.958   6.202  1.00 90.34    -0.018 C 
HETATM    2  C2  VFQ 21621     -34.111 126.329   4.863  1.00 90.34     0.045 C 
HETATM    3  C3  VFQ 21621     -32.943 126.928   4.096  1.00 90.34     0.123 C 
HETATM    4  C4  VFQ 21621     -31.887 127.479   5.033  1.00 90.34     0.066 C 
HETATM    5  C5  VFQ 21621     -32.552 128.480   5.931  1.00 90.34    -0.074 C 
HETATM    6  C6  VFQ 21621     -33.654 128.160   6.606  1.00 90.34    -0.048 C 
HETATM    7  C7  VFQ 21621     -34.102 128.947   7.782  1.00 90.34     0.009 C 
HETATM    8  C8  VFQ 21621     -34.768 130.094   7.628  1.00 90.34     0.007 C 
HETATM    9  C9  VFQ 21621     -35.271 130.918   8.735  1.00 90.34    -0.062 C 
HETATM   10  C10 VFQ 21621     -36.170 131.842   8.398  1.00 90.34     0.007 C 
HETATM   11  C11 VFQ 21621     -36.853 132.770   9.284  1.00 90.34     0.001 C 
HETATM   12  C12 VFQ 21621     -37.698 133.588   8.665  1.00 90.34     0.007 C 
HETATM   13  C13 VFQ 21621     -38.510 134.575   9.386  1.00 90.34    -0.062 C 
HETATM   14  C14 VFQ 21621     -39.362 135.331   8.687  1.00 90.34     0.007 C 
HETATM   15  C15 VFQ 21621     -40.229 136.303   9.340  1.00 90.34     0.001 C 
HETATM   16  C16 VFQ 21621     -34.388 125.850   7.244  1.00 90.34     0.020 C 
HETATM   17  C17 VFQ 21621     -35.917 127.438   6.115  1.00 90.34     0.020 C 
HETATM   18  C18 VFQ 21621     -31.498 129.368   6.512  1.00 90.34     0.044 C 
HETATM   19  C19 VFQ 21621     -34.814 130.726  10.148  1.00 90.34     0.048 C 
HETATM   20  C20 VFQ 21621     -38.395 134.712  10.872  1.00 90.34     0.048 C 
HETATM   21  O3  VFQ 21621     -32.351 125.893   3.312  1.00 90.34    -0.395 OA
ATOM     22  H3  VFQ 21621     -31.622 126.267   2.833  1.00  0.00     0.210 HD
HETATM   23  C21 VFQ 21621     -49.966 144.387  11.080  1.00 57.09    -0.018 C 
HETATM   24  C22 VFQ 21621     -50.821 145.237  12.010  1.00 57.09     0.045 C 
HETATM   25  C23 VFQ 21621     -50.099 146.209  12.925  1.00 57.09     0.123 C 
HETATM   26  C24 VFQ 21621     -48.799 145.613  13.415  1.00 57.09     0.066 C 
HETATM   27  C25 VFQ 21621     -47.952 145.265  12.225  1.00 57.09    -0.074 C 
HETATM   28  C26 VFQ 21621     -48.469 144.573  11.203  1.00 57.09    -0.048 C 
HETATM   29  C27 VFQ 21621     -47.604 143.984  10.146  1.00 57.09     0.009 C 
HETATM   30  C28 VFQ 21621     -46.968 142.821  10.321  1.00 57.09     0.007 C 
HETATM   31  C29 VFQ 21621     -46.122 142.195   9.301  1.00 90.34    -0.062 C 
HETATM   32  C30 VFQ 21621     -45.662 140.981   9.594  1.00 90.34     0.007 C 
HETATM   33  C31 VFQ 21621     -44.828 140.166   8.725  1.00 90.34     0.001 C 
HETATM   34  C32 VFQ 21621     -43.907 139.423   9.327  1.00 90.34     0.007 C 
HETATM   35  C33 VFQ 21621     -43.010 138.524   8.592  1.00 90.34    -0.062 C 
HETATM   36  C34 VFQ 21621     -42.026 137.905   9.260  1.00 90.34     0.007 C 
HETATM   37  C35 VFQ 21621     -41.121 136.965   8.609  1.00 90.34     0.001 C 
HETATM   38  C36 VFQ 21621     -50.332 144.765   9.661  1.00 57.09     0.020 C 
HETATM   39  C37 VFQ 21621     -50.353 142.937  11.324  1.00 57.09     0.020 C 
HETATM   40  C38 VFQ 21621     -46.533 145.749  12.235  1.00 57.09     0.044 C 
HETATM   41  C39 VFQ 21621     -45.813 142.869   8.000  1.00 90.34     0.048 C 
HETATM   42  C40 VFQ 21621     -43.231 138.300   7.131  1.00 90.34     0.048 C 
HETATM   43  O23 VFQ 21621     -50.944 146.457  14.049  1.00 57.09    -0.395 OA
ATOM     44  H23 VFQ 21621     -51.761 146.832  13.741  1.00  0.00     0.210 HD
ENDROOT
TORSDOF 12
BEGIN_RES PHE A  61
REMARK  2 active torsions:
REMARK  status: ('A' for Active; 'I' for Inactive)
REMARK    1  A    between atoms: CA   and  CB  
REMARK    2  A    between atoms: CB   and  CG  
ROOT
ATOM      1  CA  PHE A  61     -36.237 128.293  12.768  1.00 39.40     0.164 C 
ENDROOT
BRANCH   1   2
ATOM      2  CB  PHE A  61     -36.813 128.951  11.509  1.00 39.41     0.058 C 
BRANCH   2   3
ATOM      3  CG  PHE A  61     -37.031 128.004  10.354  1.00 39.01    -0.020 A 
ATOM      4  CD2 PHE A  61     -36.277 126.847  10.230  1.00 40.32    -0.004 A 
ATOM      5  CE2 PHE A  61     -36.476 125.978   9.165  1.00 40.20    -0.000 A 
ATOM      6  CZ  PHE A  61     -37.432 126.253   8.214  1.00 40.34    -0.000 A 
ATOM      7  CE1 PHE A  61     -38.191 127.397   8.324  1.00 41.51    -0.000 A 
ATOM      8  CD1 PHE A  61     -37.988 128.269   9.385  1.00 39.94    -0.004 A 
ENDBRANCH   2   3
ENDBRANCH   1   2
END_RES PHE A  61
BEGIN_RES VAL A 134
REMARK  1 active torsions:
REMARK  status: ('A' for Active; 'I' for Inactive)
REMARK    3  A    between atoms: CA   and  CB  
ROOT
ATOM      9  CA  VAL A 134     -29.766 132.051   9.815  1.00 40.75     0.159 C 
ENDROOT
BRANCH   9  10
ATOM     10  CB  VAL A 134     -30.864 132.765   9.009  1.00 40.76     0.029 C 
ATOM     11  CG1 VAL A 134     -31.179 131.999   7.733  1.00 41.76     0.002 C 
ATOM     12  CG2 VAL A 134     -32.122 132.975   9.838  1.00 40.56     0.002 C 
ENDBRANCH   9  10
END_RES VAL A 134
BEGIN_RES TYR A 338
REMARK  3 active torsions:
REMARK  status: ('A' for Active; 'I' for Inactive)
REMARK    4  A    between atoms: CA   and  CB  
REMARK    5  A    between atoms: CB   and  CG  
REMARK    6  A    between atoms: CZ   and  OH  
ROOT
ATOM     13  CA  TYR A 338     -41.631 124.950   6.058  1.00 38.23     0.164 C 
ENDROOT
BRANCH  13  14
ATOM     14  CB  TYR A 338     -41.621 126.456   6.339  1.00 39.15     0.058 C 
BRANCH  14  15
ATOM     15  CG  TYR A 338     -40.424 127.214   5.813  1.00 39.03    -0.020 A 
ATOM     16  CD2 TYR A 338     -40.249 128.552   6.123  1.00 40.65    -0.002 A 
ATOM     17  CE2 TYR A 338     -39.172 129.281   5.646  1.00 40.91     0.024 A 
ATOM     18  CZ  TYR A 338     -38.235 128.670   4.833  1.00 42.33     0.089 A 
ATOM     19  CE1 TYR A 338     -38.385 127.332   4.513  1.00 40.63     0.024 A 
ATOM     20  CD1 TYR A 338     -39.477 126.624   4.990  1.00 39.27    -0.002 A 
BRANCH  18  21
ATOM     21  OH  TYR A 338     -37.166 129.378   4.360  1.00 43.36    -0.359 OA
ATOM     22  HH  TYR A 338     -37.068 129.535   3.428  1.00  0.00     0.217 HD
ENDBRANCH  18  21
ENDBRANCH  14  15
ENDBRANCH  13  14
END_RES TYR A 338
ENDMDL
MODEL 2
REMARK VINA RESULT:    -8.259      1.405     16.738
REMARK INTER + INTRA:         -11.458
REMARK INTER:                  -9.477
REMARK INTRA:                  -1.981
REMARK UNBOUND:                -3.199
REMARK  0 active torsions:
REMARK  status: ('A' for Active; 'I' for Inactive)
REMARK       I    between atoms: C3_3  and  O3_21 
REMARK       I    between atoms: C6_6  and  C7_7 
REMARK       I    between atoms: C8_8  and  C9_9 
REMARK       I    between atoms: C10_10  and  C11_11 
REMARK       I    between atoms: C12_12  and  C13_13 
REMARK       I    between atoms: C14_14  and  C15_15 
REMARK       I    between atoms: C23_25  and  O23_43 
REMARK       I    between atoms: C26_28  and  C27_29 
REMARK       I    between atoms: C28_30  and  C29_31 
REMARK       I    between atoms: C30_32  and  C31_33 
REMARK       I    between atoms: C32_34  and  C33_35 
REMARK       I    between atoms: C34_36  and  C35_37 
ROOT
HETATM    1  C1  VFQ 21621     -48.233 145.465  12.562  1.00 90.34    -0.018 C 
HETATM    2  C2  VFQ 21621     -48.855 145.833  13.906  1.00 90.34     0.045 C 
HETATM    3  C3  VFQ 21621     -48.066 146.751  14.825  1.00 90.34     0.123 C 
HETATM    4  C4  VFQ 21621     -47.232 147.742  14.038  1.00 90.34     0.066 C 
HETATM    5  C5  VFQ 21621     -46.345 146.960  13.116  1.00 90.34    -0.074 C 
HETATM    6  C6  VFQ 21621     -46.854 146.033  12.307  1.00 90.34    -0.048 C 
HETATM    7  C7  VFQ 21621     -46.107 145.537  11.124  1.00 90.34     0.009 C 
HETATM    8  C8  VFQ 21621     -45.149 144.616  11.252  1.00 90.34     0.007 C 
HETATM    9  C9  VFQ 21621     -44.383 144.052  10.133  1.00 90.34    -0.062 C 
HETATM   10  C10 VFQ 21621     -43.706 142.936  10.407  1.00 90.34     0.007 C 
HETATM   11  C11 VFQ 21621     -42.894 142.153   9.491  1.00 90.34     0.001 C 
HETATM   12  C12 VFQ 21621     -42.328 141.086  10.047  1.00 90.34     0.007 C 
HETATM   13  C13 VFQ 21621     -41.498 140.147   9.283  1.00 90.34    -0.062 C 
HETATM   14  C14 VFQ 21621     -41.000 139.080   9.914  1.00 90.34     0.007 C 
HETATM   15  C15 VFQ 21621     -40.201 138.085   9.211  1.00 90.34     0.001 C 
HETATM   16  C16 VFQ 21621     -49.219 145.911  11.490  1.00 90.34     0.020 C 
HETATM   17  C17 VFQ 21621     -48.091 143.956  12.509  1.00 90.34     0.020 C 
HETATM   18  C18 VFQ 21621     -45.207 147.837  12.696  1.00 90.34     0.044 C 
HETATM   19  C19 VFQ 21621     -44.373 144.679   8.773  1.00 90.34     0.048 C 
HETATM   20  C20 VFQ 21621     -41.238 140.375   7.826  1.00 90.34     0.048 C 
HETATM   21  O3  VFQ 21621     -48.995 147.482  15.624  1.00 90.34    -0.395 OA
ATOM     22  H3  VFQ 21621     -48.502 148.056  16.198  1.00  0.00     0.210 HD
HETATM   23  C21 VFQ 21621     -34.375 126.987   6.743  1.00 57.09    -0.018 C 
HETATM   24  C22 VFQ 21621     -33.674 126.059   5.760  1.00 57.09     0.045 C 
HETATM   25  C23 VFQ 21621     -32.507 126.628   4.976  1.00 57.09     0.123 C 
HETATM   26  C24 VFQ 21621     -32.765 128.072   4.610  1.00 57.09     0.066 C 
HETATM   27  C25 VFQ 21621     -32.997 128.852   5.871  1.00 57.09    -0.074 C 
HETATM   28  C26 VFQ 21621     -33.854 128.407   6.797  1.00 57.09    -0.048 C 
HETATM   29  C27 VFQ 21621     -34.308 129.274   7.918  1.00 57.09     0.009 C 
HETATM   30  C28 VFQ 21621     -35.286 130.172   7.765  1.00 57.09     0.007 C 
HETATM   31  C29 VFQ 21621     -35.777 131.032   8.844  1.00 90.34    -0.062 C 
HETATM   32  C30 VFQ 21621     -36.837 131.783   8.552  1.00 90.34     0.007 C 
HETATM   33  C31 VFQ 21621     -37.505 132.689   9.474  1.00 90.34     0.001 C 
HETATM   34  C32 VFQ 21621     -37.982 133.811   8.946  1.00 90.34     0.007 C 
HETATM   35  C33 VFQ 21621     -38.708 134.810   9.738  1.00 90.34    -0.062 C 
HETATM   36  C34 VFQ 21621     -39.046 135.971   9.159  1.00 90.34     0.007 C 
HETATM   37  C35 VFQ 21621     -39.805 136.997   9.865  1.00 90.34     0.001 C 
HETATM   38  C36 VFQ 21621     -34.185 126.404   8.126  1.00 57.09     0.020 C 
HETATM   39  C37 VFQ 21621     -35.855 126.966   6.393  1.00 57.09     0.020 C 
HETATM   40  C38 VFQ 21621     -32.211 130.118   6.043  1.00 57.09     0.044 C 
HETATM   41  C39 VFQ 21621     -35.142 131.048  10.201  1.00 90.34     0.048 C 
HETATM   42  C40 VFQ 21621     -39.075 134.502  11.153  1.00 90.34     0.048 C 
HETATM   43  O23 VFQ 21621     -32.376 125.865   3.776  1.00 57.09    -0.395 OA
ATOM     44  H23 VFQ 21621     -32.213 124.958   4.006  1.00  0.00     0.210 HD
ENDROOT
TORSDOF 12
BEGIN_RES PHE A  61
REMARK  2 active torsions:
REMARK  status: ('A' for Active; 'I' for Inactive)
REMARK    1  A    between atoms: CA   and  CB  
REMARK    2  A    between atoms: CB   and  CG  
ROOT
ATOM      1  CA  PHE A  61     -36.237 128.293  12.768  1.00 39.40     0.164 C 
ENDROOT
BRANCH   1   2
ATOM      2  CB  PHE A  61     -36.813 128.951  11.509  1.00 39.41     0.058 C 
BRANCH   2   3
ATOM      3  CG  PHE A  61     -37.121 127.988  10.387  1.00 39.01    -0.020 A 
ATOM      4  CD2 PHE A  61     -36.492 126.756  10.314  1.00 40.32    -0.004 A 
ATOM      5  CE2 PHE A  61     -36.774 125.872   9.280  1.00 40.20    -0.000 A 
ATOM      6  CZ  PHE A  61     -37.689 126.210   8.309  1.00 40.34    -0.000 A 
ATOM      7  CE1 PHE A  61     -38.324 127.430   8.368  1.00 41.51    -0.000 A 
ATOM      8  CD1 PHE A  61     -38.038 128.316   9.399  1.00 39.94    -0.004 A 
ENDBRANCH   2   3
ENDBRANCH   1   2
END_RES PHE A  61
BEGIN_RES VAL A 134
REMARK  1 active torsions:
REMARK  status: ('A' for Active; 'I' for Inactive)
REMARK    3  A    between atoms: CA   and  CB  
ROOT
ATOM      9  CA  VAL A 134     -29.766 132.051   9.815  1.00 40.75     0.159 C 
ENDROOT
BRANCH   9  10
ATOM     10  CB  VAL A 134     -30.864 132.765   9.009  1.00 40.76     0.029 C 
ATOM     11  CG1 VAL A 134     -31.173 132.003   7.728  1.00 41.76     0.002 C 
ATOM     12  CG2 VAL A 134     -32.125 132.967   9.835  1.00 40.56     0.002 C 
ENDBRANCH   9  10
END_RES VAL A 134
BEGIN_RES TYR A 338
REMARK  3 active torsions:
REMARK  status: ('A' for Active; 'I' for Inactive)
REMARK    4  A    between atoms: CA   and  CB  
REMARK    5  A    between atoms: CB   and  CG  
REMARK    6  A    between atoms: CZ   and  OH  
ROOT
ATOM     13  CA  TYR A 338     -41.631 124.950   6.058  1.00 38.23     0.164 C 
ENDROOT
BRANCH  13  14
ATOM     14  CB  TYR A 338     -41.621 126.456   6.339  1.00 39.15     0.058 C 
BRANCH  14  15
ATOM     15  CG  TYR A 338     -40.410 127.209   5.838  1.00 39.03    -0.020 A 
ATOM     16  CD2 TYR A 338     -40.230 128.543   6.163  1.00 40.65    -0.002 A 
ATOM     17  CE2 TYR A 338     -39.140 129.268   5.708  1.00 40.91     0.024 A 
ATOM     18  CZ  TYR A 338     -38.196 128.657   4.904  1.00 42.33     0.089 A 
ATOM     19  CE1 TYR A 338     -38.351 127.323   4.569  1.00 40.63     0.024 A 
ATOM     20  CD1 TYR A 338     -39.456 126.619   5.024  1.00 39.27    -0.002 A 
BRANCH  18  21
ATOM     21  OH  TYR A 338     -37.115 129.361   4.453  1.00 43.36    -0.359 OA
ATOM     22  HH  TYR A 338     -36.668 129.098   3.657  1.00  0.00     0.217 HD
ENDBRANCH  18  21
ENDBRANCH  14  15
ENDBRANCH  13  14
END_RES TYR A 338
ENDMDL
MODEL 3
REMARK VINA RESULT:    -8.234      1.345     16.779
REMARK INTER + INTRA:         -11.432
REMARK INTER:                 -11.072
REMARK INTRA:                  -0.360
REMARK UNBOUND:                -3.199
REMARK  0 active torsions:
REMARK  status: ('A' for Active; 'I' for Inactive)
REMARK       I    between atoms: C3_3  and  O3_21 
REMARK       I    between atoms: C6_6  and  C7_7 
REMARK       I    between atoms: C8_8  and  C9_9 
REMARK       I    between atoms: C10_10  and  C11_11 
REMARK       I    between atoms: C12_12  and  C13_13 
REMARK       I    between atoms: C14_14  and  C15_15 
REMARK       I    between atoms: C23_25  and  O23_43 
REMARK       I    between atoms: C26_28  and  C27_29 
REMARK       I    between atoms: C28_30  and  C29_31 
REMARK       I    between atoms: C30_32  and  C31_33 
REMARK       I    between atoms: C32_34  and  C33_35 
REMARK       I    between atoms: C34_36  and  C35_37 
ROOT
HETATM    1  C1  VFQ 21621     -49.758 145.434  11.349  1.00 90.34    -0.018 C 
HETATM    2  C2  VFQ 21621     -50.648 145.676  12.564  1.00 90.34     0.045 C 
HETATM    3  C3  VFQ 21621     -50.108 146.562  13.674  1.00 90.34     0.123 C 
HETATM    4  C4  VFQ 21621     -49.200 147.645  13.129  1.00 90.34     0.066 C 
HETATM    5  C5  VFQ 21621     -48.105 146.974  12.353  1.00 90.34    -0.074 C 
HETATM    6  C6  VFQ 21621     -48.392 146.084  11.405  1.00 90.34    -0.048 C 
HETATM    7  C7  VFQ 21621     -47.402 145.710  10.364  1.00 90.34     0.009 C 
HETATM    8  C8  VFQ 21621     -46.433 144.829  10.622  1.00 90.34     0.007 C 
HETATM    9  C9  VFQ 21621     -45.433 144.383   9.642  1.00 90.34    -0.062 C 
HETATM   10  C10 VFQ 21621     -44.756 143.284   9.975  1.00 90.34     0.007 C 
HETATM   11  C11 VFQ 21621     -43.737 142.608   9.191  1.00 90.34     0.001 C 
HETATM   12  C12 VFQ 21621     -43.225 141.532   9.781  1.00 90.34     0.007 C 
HETATM   13  C13 VFQ 21621     -42.208 140.690   9.140  1.00 90.34    -0.062 C 
HETATM   14  C14 VFQ 21621     -41.778 139.605   9.790  1.00 90.34     0.007 C 
HETATM   15  C15 VFQ 21621     -40.799 138.702   9.198  1.00 90.34     0.001 C 
HETATM   16  C16 VFQ 21621     -50.544 145.909  10.133  1.00 90.34     0.020 C 
HETATM   17  C17 VFQ 21621     -49.517 143.942  11.232  1.00 90.34     0.020 C 
HETATM   18  C18 VFQ 21621     -46.964 147.932  12.220  1.00 90.34     0.044 C 
HETATM   19  C19 VFQ 21621     -45.199 145.106   8.352  1.00 90.34     0.048 C 
HETATM   20  C20 VFQ 21621     -41.686 141.034   7.779  1.00 90.34     0.048 C 
HETATM   21  O3  VFQ 21621     -51.217 147.189  14.318  1.00 90.34    -0.395 OA
ATOM     22  H3  VFQ 21621     -50.880 147.742  15.012  1.00  0.00     0.210 HD
HETATM   23  C21 VFQ 21621     -33.947 128.098   7.251  1.00 57.09    -0.018 C 
HETATM   24  C22 VFQ 21621     -33.014 127.277   6.370  1.00 57.09     0.045 C 
HETATM   25  C23 VFQ 21621     -31.754 127.956   5.867  1.00 57.09     0.123 C 
HETATM   26  C24 VFQ 21621     -32.024 129.408   5.546  1.00 57.09     0.066 C 
HETATM   27  C25 VFQ 21621     -32.542 130.084   6.782  1.00 57.09    -0.074 C 
HETATM   28  C26 VFQ 21621     -33.533 129.534   7.493  1.00 57.09    -0.048 C 
HETATM   29  C27 VFQ 21621     -34.246 130.296   8.553  1.00 57.09     0.009 C 
HETATM   30  C28 VFQ 21621     -35.229 131.155   8.266  1.00 57.09     0.007 C 
HETATM   31  C29 VFQ 21621     -35.970 131.911   9.278  1.00 90.34    -0.062 C 
HETATM   32  C30 VFQ 21621     -36.996 132.630   8.830  1.00 90.34     0.007 C 
HETATM   33  C31 VFQ 21621     -37.883 133.436   9.656  1.00 90.34     0.001 C 
HETATM   34  C32 VFQ 21621     -38.316 134.568   9.115  1.00 90.34     0.007 C 
HETATM   35  C33 VFQ 21621     -39.241 135.473   9.808  1.00 90.34    -0.062 C 
HETATM   36  C34 VFQ 21621     -39.530 136.655   9.245  1.00 90.34     0.007 C 
HETATM   37  C35 VFQ 21621     -40.471 137.590   9.850  1.00 90.34     0.001 C 
HETATM   38  C36 VFQ 21621     -33.992 127.428   8.606  1.00 57.09     0.020 C 
HETATM   39  C37 VFQ 21621     -35.327 128.032   6.616  1.00 57.09     0.020 C 
HETATM   40  C38 VFQ 21621     -31.882 131.371   7.182  1.00 57.09     0.044 C 
HETATM   41  C39 VFQ 21621     -35.610 131.860  10.732  1.00 90.34     0.048 C 
HETATM   42  C40 VFQ 21621     -39.854 135.046  11.102  1.00 90.34     0.048 C 
HETATM   43  O23 VFQ 21621     -31.349 127.287   4.672  1.00 57.09    -0.395 OA
ATOM     44  H23 VFQ 21621     -31.179 126.375   4.874  1.00  0.00     0.210 HD
ENDROOT
TORSDOF 12
BEGIN_RES PHE A  61
REMARK  2 active torsions:
REMARK  status: ('A' for Active; 'I' for Inactive)
REMARK    1  A    between atoms: CA   and  CB  
REMARK    2  A    between atoms: CB   and  CG  
ROOT
ATOM      1  CA  PHE A  61     -36.237 128.293  12.768  1.00 39.40     0.164 C 
ENDROOT
BRANCH   1   2
ATOM      2  CB  PHE A  61     -36.813 128.951  11.509  1.00 39.41     0.058 C 
BRANCH   2   3
ATOM      3  CG  PHE A  61     -37.029 128.004  10.353  1.00 39.01    -0.020 A 
ATOM      4  CD2 PHE A  61     -36.317 126.819  10.261  1.00 40.32    -0.004 A 
ATOM      5  CE2 PHE A  61     -36.514 125.950   9.195  1.00 40.20    -0.000 A 
ATOM      6  CZ  PHE A  61     -37.429 126.253   8.213  1.00 40.34    -0.000 A 
ATOM      7  CE1 PHE A  61     -38.147 127.426   8.291  1.00 41.51    -0.000 A 
ATOM      8  CD1 PHE A  61     -37.945 128.298   9.353  1.00 39.94    -0.004 A 
ENDBRANCH   2   3
ENDBRANCH   1   2
END_RES PHE A  61
BEGIN_RES VAL A 134
REMARK  1 active torsions:
REMARK  status: ('A' for Active; 'I' for Inactive)
REMARK    3  A    between atoms: CA   and  CB  
ROOT
ATOM      9  CA  VAL A 134     -29.766 132.051   9.815  1.00 40.75     0.159 C 
ENDROOT
BRANCH   9  10
ATOM     10  CB  VAL A 134     -30.864 132.765   9.009  1.00 40.76     0.029 C 
ATOM     11  CG1 VAL A 134     -32.114 132.958   9.855  1.00 41.76     0.002 C 
ATOM     12  CG2 VAL A 134     -30.378 134.095   8.453  1.00 40.56     0.002 C 
ENDBRANCH   9  10
END_RES VAL A 134
BEGIN_RES TYR A 338
REMARK  3 active torsions:
REMARK  status: ('A' for Active; 'I' for Inactive)
REMARK    4  A    between atoms: CA   and  CB  
REMARK    5  A    between atoms: CB   and  CG  
REMARK    6  A    between atoms: CZ   and  OH  
ROOT
ATOM     13  CA  TYR A 338     -41.631 124.950   6.058  1.00 38.23     0.164 C 
ENDROOT
BRANCH  13  14
ATOM     14  CB  TYR A 338     -41.621 126.456   6.339  1.00 39.15     0.058 C 
BRANCH  14  15
ATOM     15  CG  TYR A 338     -40.412 127.210   5.834  1.00 39.03    -0.020 A 
ATOM     16  CD2 TYR A 338     -40.259 128.557   6.114  1.00 40.65    -0.002 A 
ATOM     17  CE2 TYR A 338     -39.171 129.283   5.653  1.00 40.91     0.024 A 
ATOM     18  CZ  TYR A 338     -38.203 128.658   4.890  1.00 42.33     0.089 A 
ATOM     19  CE1 TYR A 338     -38.331 127.311   4.601  1.00 40.63     0.024 A 
ATOM     20  CD1 TYR A 338     -39.434 126.606   5.059  1.00 39.27    -0.002 A 
BRANCH  18  21
ATOM     21  OH  TYR A 338     -37.124 129.363   4.434  1.00 43.36    -0.359 OA
ATOM     22  HH  TYR A 338     -37.247 130.124   3.878  1.00  0.00     0.217 HD
ENDBRANCH  18  21
ENDBRANCH  14  15
ENDBRANCH  13  14
END_RES TYR A 338
ENDMDL
