MODEL 1
REMARK VINA RESULT:   -12.397      0.000      0.000
REMARK INTER + INTRA:         -12.408
REMARK INTER:                 -12.397
REMARK INTRA:                  -0.011
REMARK UNBOUND:                -0.011
REMARK  0 active torsions:
REMARK  status: ('A' for Active; 'I' for Inactive)
REMARK       I    between atoms: C3_3  and  O3_21 
REMARK       I    between atoms: C6_6  and  C7_7 
REMARK       I    between atoms: C8_8  and  C9_9 
REMARK       I    between atoms: C10_10  and  C11_11 
REMARK       I    between atoms: C12_12  and  C13_13 
REMARK       I    between atoms: C14_14  and  C15_15 
REMARK       I    between atoms: C23_25  and  O23_43 
REMARK       I    between atoms: C26_28  and  C27_29 
REMARK       I    between atoms: C28_30  and  C29_31 
REMARK       I    between atoms: C30_32  and  C31_33 
REMARK       I    between atoms: C32_34  and  C33_35 
REMARK       I    between atoms: C34_36  and  C35_37 
ROOT
HETATM    1  C1  VFQ V1620     -50.093 144.643  10.496  1.00 15.23    -0.018 C 
HETATM    2  C2  VFQ V1620     -50.460 144.407  11.948  1.00 15.23     0.045 C 
HETATM    3  C3  VFQ V1620     -49.466 144.944  12.944  1.00 15.23     0.123 C 
HETATM    4  C4  VFQ V1620     -49.118 146.343  12.533  1.00 15.23     0.066 C 
HETATM    5  C5  VFQ V1620     -48.460 146.344  11.189  1.00 15.23    -0.074 C 
HETATM    6  C6  VFQ V1620     -48.848 145.461  10.266  1.00 15.23    -0.048 C 
HETATM    7  C7  VFQ V1620     -47.960 145.037   9.180  1.00 15.23     0.009 C 
HETATM    8  C8  VFQ V1620     -46.793 144.579   9.641  1.00 15.23     0.007 C 
HETATM    9  C9  VFQ V1620     -45.820 143.908   8.757  1.00 15.23    -0.062 C 
HETATM   10  C10 VFQ V1620     -44.852 143.198   9.351  1.00 15.23     0.007 C 
HETATM   11  C11 VFQ V1620     -43.898 142.371   8.623  1.00 15.23     0.001 C 
HETATM   12  C12 VFQ V1620     -43.145 141.511   9.291  1.00 15.23     0.007 C 
HETATM   13  C13 VFQ V1620     -42.244 140.581   8.598  1.00 15.23    -0.062 C 
HETATM   14  C14 VFQ V1620     -41.690 139.607   9.327  1.00 15.23     0.007 C 
HETATM   15  C15 VFQ V1620     -40.815 138.572   8.786  1.00 15.23     0.001 C 
HETATM   16  C16 VFQ V1620     -51.214 145.474   9.902  1.00 15.23     0.020 C 
HETATM   17  C17 VFQ V1620     -49.992 143.293   9.809  1.00 15.23     0.020 C 
HETATM   18  C18 VFQ V1620     -47.185 147.132  11.125  1.00 15.23     0.044 C 
HETATM   19  C19 VFQ V1620     -45.971 144.000   7.266  1.00 15.23     0.048 C 
HETATM   20  C20 VFQ V1620     -42.028 140.735   7.130  1.00 15.23     0.048 C 
HETATM   21  O3  VFQ V1620     -50.083 145.029  14.224  1.00 15.23    -0.395 OA
ATOM     22  H3  VFQ V1620     -49.456 145.367  14.852  1.00  0.00     0.210 HD
HETATM   23  C21 VFQ V1620     -34.026 128.037   7.191  1.00 21.49    -0.018 C 
HETATM   24  C22 VFQ V1620     -33.235 127.222   6.152  1.00 20.69     0.045 C 
HETATM   25  C23 VFQ V1620     -31.818 127.630   5.755  1.00 22.34     0.123 C 
HETATM   26  C24 VFQ V1620     -31.337 128.987   6.305  1.00 20.89     0.066 C 
HETATM   27  C25 VFQ V1620     -32.131 129.736   7.334  1.00 22.34    -0.074 C 
HETATM   28  C26 VFQ V1620     -33.377 129.344   7.771  1.00 21.76    -0.048 C 
HETATM   29  C27 VFQ V1620     -34.202 130.074   8.777  1.00 21.22     0.009 C 
HETATM   30  C28 VFQ V1620     -34.988 131.168   8.534  1.00 19.00     0.007 C 
HETATM   31  C29 VFQ V1620     -35.769 131.893   9.500  1.00 15.23    -0.062 C 
HETATM   32  C30 VFQ V1620     -36.556 132.852   9.008  1.00 15.23     0.007 C 
HETATM   33  C31 VFQ V1620     -37.433 133.708   9.786  1.00 15.23     0.001 C 
HETATM   34  C32 VFQ V1620     -38.092 134.656   9.132  1.00 15.23     0.007 C 
HETATM   35  C33 VFQ V1620     -38.972 135.607   9.815  1.00 15.23    -0.062 C 
HETATM   36  C34 VFQ V1620     -39.502 136.588   9.072  1.00 15.23     0.007 C 
HETATM   37  C35 VFQ V1620     -40.372 137.629   9.599  1.00 15.23     0.001 C 
HETATM   38  C36 VFQ V1620     -34.379 127.067   8.331  1.00 20.30     0.020 C 
HETATM   39  C37 VFQ V1620     -35.334 128.370   6.436  1.00 19.22     0.020 C 
HETATM   40  C38 VFQ V1620     -31.364 130.921   7.787  1.00 22.01     0.044 C 
HETATM   41  C39 VFQ V1620     -35.693 131.506  10.943  1.00 15.23     0.048 C 
HETATM   42  C40 VFQ V1620     -39.197 135.437  11.281  1.00 15.23     0.048 C 
HETATM   43  O23 VFQ V1620     -31.663 127.580   4.339  1.00 21.61    -0.395 OA
ATOM     44  H23 VFQ V1620     -31.960 126.743   4.000  1.00  0.00     0.210 HD
ENDROOT
TORSDOF 12
BEGIN_RES PHE A  61
REMARK  2 active torsions:
REMARK  status: ('A' for Active; 'I' for Inactive)
REMARK    1  A    between atoms: CA   and  CB  
REMARK    2  A    between atoms: CB   and  CG  
ROOT
ATOM      1  CA  PHE A  61     -36.237 128.293  12.768  1.00 39.40     0.164 C 
ENDROOT
BRANCH   1   2
ATOM      2  CB  PHE A  61     -36.813 128.951  11.509  1.00 39.41     0.058 C 
BRANCH   2   3
ATOM      3  CG  PHE A  61     -37.049 128.000  10.360  1.00 39.01    -0.020 A 
ATOM      4  CD2 PHE A  61     -36.358 126.801  10.275  1.00 40.32    -0.004 A 
ATOM      5  CE2 PHE A  61     -36.574 125.929   9.216  1.00 40.20    -0.000 A 
ATOM      6  CZ  PHE A  61     -37.485 126.243   8.233  1.00 40.34    -0.000 A 
ATOM      7  CE1 PHE A  61     -38.181 127.429   8.304  1.00 41.51    -0.000 A 
ATOM      8  CD1 PHE A  61     -37.960 128.305   9.359  1.00 39.94    -0.004 A 
ENDBRANCH   2   3
ENDBRANCH   1   2
END_RES PHE A  61
BEGIN_RES VAL A 134
REMARK  1 active torsions:
REMARK  status: ('A' for Active; 'I' for Inactive)
REMARK    3  A    between atoms: CA   and  CB  
ROOT
ATOM      9  CA  VAL A 134     -29.766 132.051   9.815  1.00 40.75     0.159 C 
ENDROOT
BRANCH   9  10
ATOM     10  CB  VAL A 134     -30.864 132.765   9.009  1.00 40.76     0.029 C 
ATOM     11  CG1 VAL A 134     -32.107 132.975   9.861  1.00 41.76     0.002 C 
ATOM     12  CG2 VAL A 134     -30.372 134.086   8.437  1.00 40.56     0.002 C 
ENDBRANCH   9  10
END_RES VAL A 134
BEGIN_RES TYR A 338
REMARK  3 active torsions:
REMARK  status: ('A' for Active; 'I' for Inactive)
REMARK    4  A    between atoms: CA   and  CB  
REMARK    5  A    between atoms: CB   and  CG  
REMARK    6  A    between atoms: CZ   and  OH  
ROOT
ATOM     13  CA  TYR A 338     -41.631 124.950   6.058  1.00 38.23     0.164 C 
ENDROOT
BRANCH  13  14
ATOM     14  CB  TYR A 338     -41.621 126.456   6.339  1.00 39.15     0.058 C 
BRANCH  14  15
ATOM     15  CG  TYR A 338     -40.419 127.212   5.822  1.00 39.03    -0.020 A 
ATOM     16  CD2 TYR A 338     -40.267 128.560   6.097  1.00 40.65    -0.002 A 
ATOM     17  CE2 TYR A 338     -39.186 129.288   5.626  1.00 40.91     0.024 A 
ATOM     18  CZ  TYR A 338     -38.222 128.665   4.857  1.00 42.33     0.089 A 
ATOM     19  CE1 TYR A 338     -38.348 127.316   4.572  1.00 40.63     0.024 A 
ATOM     20  CD1 TYR A 338     -39.444 126.609   5.042  1.00 39.27    -0.002 A 
BRANCH  18  21
ATOM     21  OH  TYR A 338     -37.148 129.371   4.390  1.00 43.36    -0.359 OA
ATOM     22  HH  TYR A 338     -36.673 129.959   4.966  1.00  0.00     0.217 HD
ENDBRANCH  18  21
ENDBRANCH  14  15
ENDBRANCH  13  14
END_RES TYR A 338
ENDMDL
MODEL 2
REMARK VINA RESULT:   -11.420      1.013     16.390
REMARK INTER + INTRA:         -11.431
REMARK INTER:                  -9.255
REMARK INTRA:                  -2.176
REMARK UNBOUND:                -0.011
REMARK  0 active torsions:
REMARK  status: ('A' for Active; 'I' for Inactive)
REMARK       I    between atoms: C3_3  and  O3_21 
REMARK       I    between atoms: C6_6  and  C7_7 
REMARK       I    between atoms: C8_8  and  C9_9 
REMARK       I    between atoms: C10_10  and  C11_11 
REMARK       I    between atoms: C12_12  and  C13_13 
REMARK       I    between atoms: C14_14  and  C15_15 
REMARK       I    between atoms: C23_25  and  O23_43 
REMARK       I    between atoms: C26_28  and  C27_29 
REMARK       I    between atoms: C28_30  and  C29_31 
REMARK       I    between atoms: C30_32  and  C31_33 
REMARK       I    between atoms: C32_34  and  C33_35 
REMARK       I    between atoms: C34_36  and  C35_37 
ROOT
HETATM    1  C1  VFQ V1620     -34.275 127.198   6.683  1.00 15.23    -0.018 C 
HETATM    2  C2  VFQ V1620     -34.101 127.260   5.178  1.00 15.23     0.045 C 
HETATM    3  C3  VFQ V1620     -33.230 128.388   4.691  1.00 15.23     0.123 C 
HETATM    4  C4  VFQ V1620     -31.990 128.405   5.535  1.00 15.23     0.066 C 
HETATM    5  C5  VFQ V1620     -32.336 128.683   6.965  1.00 15.23    -0.074 C 
HETATM    6  C6  VFQ V1620     -33.475 128.203   7.471  1.00 15.23    -0.048 C 
HETATM    7  C7  VFQ V1620     -34.136 128.831   8.619  1.00 15.23     0.009 C 
HETATM    8  C8  VFQ V1620     -34.357 130.133   8.416  1.00 15.23     0.007 C 
HETATM    9  C9  VFQ V1620     -35.188 130.930   9.338  1.00 15.23    -0.062 C 
HETATM   10  C10 VFQ V1620     -35.625 132.115   8.890  1.00 15.23     0.007 C 
HETATM   11  C11 VFQ V1620     -36.560 132.958   9.623  1.00 15.23     0.001 C 
HETATM   12  C12 VFQ V1620     -37.134 133.978   9.003  1.00 15.23     0.007 C 
HETATM   13  C13 VFQ V1620     -38.161 134.796   9.662  1.00 15.23    -0.062 C 
HETATM   14  C14 VFQ V1620     -38.839 135.658   8.899  1.00 15.23     0.007 C 
HETATM   15  C15 VFQ V1620     -39.924 136.506   9.382  1.00 15.23     0.001 C 
HETATM   16  C16 VFQ V1620     -33.732 125.850   7.119  1.00 15.23     0.020 C 
HETATM   17  C17 VFQ V1620     -35.756 127.316   6.993  1.00 15.23     0.020 C 
HETATM   18  C18 VFQ V1620     -31.516 129.765   7.601  1.00 15.23     0.044 C 
HETATM   19  C19 VFQ V1620     -35.546 130.384  10.691  1.00 15.23     0.048 C 
HETATM   20  C20 VFQ V1620     -38.428 134.596  11.116  1.00 15.23     0.048 C 
HETATM   21  O3  VFQ V1620     -32.818 128.120   3.355  1.00 15.23    -0.395 OA
ATOM     22  H3  VFQ V1620     -32.269 128.831   3.048  1.00  0.00     0.210 HD
HETATM   23  C21 VFQ V1620     -49.971 144.135  10.088  1.00 21.49    -0.018 C 
HETATM   24  C22 VFQ V1620     -50.997 144.739  11.062  1.00 20.69     0.045 C 
HETATM   25  C23 VFQ V1620     -50.626 145.927  11.948  1.00 22.34     0.123 C 
HETATM   26  C24 VFQ V1620     -49.138 146.328  11.935  1.00 20.89     0.066 C 
HETATM   27  C25 VFQ V1620     -48.178 145.726  10.952  1.00 22.34    -0.074 C 
HETATM   28  C26 VFQ V1620     -48.510 144.710  10.084  1.00 21.76    -0.048 C 
HETATM   29  C27 VFQ V1620     -47.577 144.076   9.107  1.00 21.22     0.009 C 
HETATM   30  C28 VFQ V1620     -46.659 143.101   9.386  1.00 19.00     0.007 C 
HETATM   31  C29 VFQ V1620     -45.739 142.499   8.459  1.00 15.23    -0.062 C 
HETATM   32  C30 VFQ V1620     -45.022 141.477   8.932  1.00 15.23     0.007 C 
HETATM   33  C31 VFQ V1620     -44.040 140.716   8.182  1.00 15.23     0.001 C 
HETATM   34  C32 VFQ V1620     -43.371 139.776   8.839  1.00 15.23     0.007 C 
HETATM   35  C33 VFQ V1620     -42.325 138.973   8.202  1.00 15.23    -0.062 C 
HETATM   36  C34 VFQ V1620     -41.643 138.128   8.986  1.00 15.23     0.007 C 
HETATM   37  C35 VFQ V1620     -40.556 137.280   8.519  1.00 15.23     0.001 C 
HETATM   38  C36 VFQ V1620     -50.588 144.238   8.683  1.00 20.30     0.020 C 
HETATM   39  C37 VFQ V1620     -49.964 142.640  10.488  1.00 19.22     0.020 C 
HETATM   40  C38 VFQ V1620     -46.862 146.400  11.067  1.00 22.01     0.044 C 
HETATM   41  C39 VFQ V1620     -45.682 143.005   7.052  1.00 15.23     0.048 C 
HETATM   42  C40 VFQ V1620     -42.075 139.166   6.742  1.00 15.23     0.048 C 
HETATM   43  O23 VFQ V1620     -51.077 145.714  13.283  1.00 21.61    -0.395 OA
ATOM     44  H23 VFQ V1620     -51.994 145.467  13.290  1.00  0.00     0.210 HD
ENDROOT
TORSDOF 12
BEGIN_RES PHE A  61
REMARK  2 active torsions:
REMARK  status: ('A' for Active; 'I' for Inactive)
REMARK    1  A    between atoms: CA   and  CB  
REMARK    2  A    between atoms: CB   and  CG  
ROOT
ATOM      1  CA  PHE A  61     -36.237 128.293  12.768  1.00 39.40     0.164 C 
ENDROOT
BRANCH   1   2
ATOM      2  CB  PHE A  61     -36.813 128.951  11.509  1.00 39.41     0.058 C 
BRANCH   2   3
ATOM      3  CG  PHE A  61     -37.118 127.989  10.386  1.00 39.01    -0.020 A 
ATOM      4  CD2 PHE A  61     -36.416 126.801  10.256  1.00 40.32    -0.004 A 
ATOM      5  CE2 PHE A  61     -36.695 125.918   9.220  1.00 40.20    -0.000 A 
ATOM      6  CZ  PHE A  61     -37.682 126.211   8.306  1.00 40.34    -0.000 A 
ATOM      7  CE1 PHE A  61     -38.391 127.386   8.423  1.00 41.51    -0.000 A 
ATOM      8  CD1 PHE A  61     -38.107 128.272   9.454  1.00 39.94    -0.004 A 
ENDBRANCH   2   3
ENDBRANCH   1   2
END_RES PHE A  61
BEGIN_RES VAL A 134
REMARK  1 active torsions:
REMARK  status: ('A' for Active; 'I' for Inactive)
REMARK    3  A    between atoms: CA   and  CB  
ROOT
ATOM      9  CA  VAL A 134     -29.766 132.051   9.815  1.00 40.75     0.159 C 
ENDROOT
BRANCH   9  10
ATOM     10  CB  VAL A 134     -30.864 132.765   9.009  1.00 40.76     0.029 C 
ATOM     11  CG1 VAL A 134     -30.973 132.177   7.610  1.00 41.76     0.002 C 
ATOM     12  CG2 VAL A 134     -32.206 132.715   9.722  1.00 40.56     0.002 C 
ENDBRANCH   9  10
END_RES VAL A 134
BEGIN_RES TYR A 338
REMARK  3 active torsions:
REMARK  status: ('A' for Active; 'I' for Inactive)
REMARK    4  A    between atoms: CA   and  CB  
REMARK    5  A    between atoms: CB   and  CG  
REMARK    6  A    between atoms: CZ   and  OH  
ROOT
ATOM     13  CA  TYR A 338     -41.631 124.950   6.058  1.00 38.23     0.164 C 
ENDROOT
BRANCH  13  14
ATOM     14  CB  TYR A 338     -41.621 126.456   6.339  1.00 39.15     0.058 C 
BRANCH  14  15
ATOM     15  CG  TYR A 338     -40.403 127.206   5.851  1.00 39.03    -0.020 A 
ATOM     16  CD2 TYR A 338     -40.232 128.544   6.165  1.00 40.65    -0.002 A 
ATOM     17  CE2 TYR A 338     -39.135 129.267   5.721  1.00 40.91     0.024 A 
ATOM     18  CZ  TYR A 338     -38.176 128.649   4.941  1.00 42.33     0.089 A 
ATOM     19  CE1 TYR A 338     -38.322 127.312   4.618  1.00 40.63     0.024 A 
ATOM     20  CD1 TYR A 338     -39.433 126.610   5.061  1.00 39.27    -0.002 A 
BRANCH  18  21
ATOM     21  OH  TYR A 338     -37.089 129.351   4.502  1.00 43.36    -0.359 OA
ATOM     22  HH  TYR A 338     -36.219 128.972   4.553  1.00  0.00     0.217 HD
ENDBRANCH  18  21
ENDBRANCH  14  15
ENDBRANCH  13  14
END_RES TYR A 338
ENDMDL
