MODEL 1
REMARK VINA RESULT:   -11.981      0.000      0.000
REMARK INTER + INTRA:         -12.154
REMARK INTER:                 -11.981
REMARK INTRA:                  -0.172
REMARK UNBOUND:                -0.172
REMARK  0 active torsions:
REMARK  status: ('A' for Active; 'I' for Inactive)
REMARK       I    between atoms: C3_3  and  O3_21 
REMARK       I    between atoms: C6_6  and  C7_7 
REMARK       I    between atoms: C8_8  and  C9_9 
REMARK       I    between atoms: C10_10  and  C11_11 
REMARK       I    between atoms: C12_12  and  C13_13 
REMARK       I    between atoms: C14_14  and  C15_15 
REMARK       I    between atoms: C23_25  and  O23_43 
REMARK       I    between atoms: C26_28  and  C27_29 
REMARK       I    between atoms: C28_30  and  C29_31 
REMARK       I    between atoms: C30_32  and  C31_33 
REMARK       I    between atoms: C32_34  and  C33_35 
REMARK       I    between atoms: C34_36  and  C35_37 
ROOT
HETATM    1  C1  VFQ X1621     -34.235 128.094   6.945  1.00 31.86    -0.018 C 
HETATM    2  C2  VFQ X1621     -33.643 127.893   5.546  1.00 31.86     0.045 C 
HETATM    3  C3  VFQ X1621     -32.356 128.644   5.227  1.00 31.86     0.123 C 
HETATM    4  C4  VFQ X1621     -31.641 129.103   6.490  1.00 31.86     0.066 C 
HETATM    5  C5  VFQ X1621     -32.630 129.914   7.272  1.00 31.86    -0.074 C 
HETATM    6  C6  VFQ X1621     -33.762 129.336   7.669  1.00 31.86    -0.048 C 
HETATM    7  C7  VFQ X1621     -34.673 129.960   8.651  1.00 31.86     0.009 C 
HETATM    8  C8  VFQ X1621     -34.767 131.292   8.699  1.00 31.86     0.007 C 
HETATM    9  C9  VFQ X1621     -35.848 131.894   9.512  1.00 31.86    -0.062 C 
HETATM   10  C10 VFQ X1621     -36.263 133.126   9.153  1.00 31.86     0.007 C 
HETATM   11  C11 VFQ X1621     -37.426 133.785   9.745  1.00 31.86     0.001 C 
HETATM   12  C12 VFQ X1621     -37.932 134.866   9.156  1.00 31.86     0.007 C 
HETATM   13  C13 VFQ X1621     -39.160 135.518   9.661  1.00 31.86    -0.062 C 
HETATM   14  C14 VFQ X1621     -39.680 136.517   8.917  1.00 31.86     0.007 C 
HETATM   15  C15 VFQ X1621     -40.901 137.248   9.262  1.00 31.86     0.001 C 
HETATM   16  C16 VFQ X1621     -33.812 126.929   7.837  1.00 31.86     0.020 C 
HETATM   17  C17 VFQ X1621     -35.751 128.071   6.821  1.00 31.86     0.020 C 
HETATM   18  C18 VFQ X1621     -31.779 130.728   8.207  1.00 31.86     0.044 C 
HETATM   19  C19 VFQ X1621     -36.494 131.094  10.619  1.00 31.86     0.048 C 
HETATM   20  C20 VFQ X1621     -39.776 135.019  10.944  1.00 31.86     0.048 C 
HETATM   21  O3  VFQ X1621     -31.530 127.735   4.503  1.00 31.86    -0.395 OA
ATOM     22  H3  VFQ X1621     -31.977 127.449   3.715  1.00  0.00     0.210 HD
HETATM   23  C21 VFQ X1621     -50.637 145.542   9.348  1.00 66.61    -0.018 C 
HETATM   24  C22 VFQ X1621     -51.695 146.435   9.984  1.00 66.61     0.045 C 
HETATM   25  C23 VFQ X1621     -51.266 147.372  11.103  1.00 66.61     0.123 C 
HETATM   26  C24 VFQ X1621     -50.139 146.782  11.922  1.00 66.61     0.066 C 
HETATM   27  C25 VFQ X1621     -49.004 146.419  11.009  1.00 66.61    -0.074 C 
HETATM   28  C26 VFQ X1621     -49.227 145.774   9.859  1.00 66.61    -0.048 C 
HETATM   29  C27 VFQ X1621     -48.091 145.282   9.039  1.00 66.61     0.009 C 
HETATM   30  C28 VFQ X1621     -47.544 144.083   9.252  1.00 66.61     0.007 C 
HETATM   31  C29 VFQ X1621     -46.427 143.569   8.444  1.00 31.86    -0.062 C 
HETATM   32  C30 VFQ X1621     -45.918 142.372   8.806  1.00 31.86     0.007 C 
HETATM   33  C31 VFQ X1621     -44.776 141.734   8.152  1.00 31.86     0.001 C 
HETATM   34  C32 VFQ X1621     -44.271 140.620   8.679  1.00 31.86     0.007 C 
HETATM   35  C33 VFQ X1621     -43.070 139.968   8.116  1.00 31.86    -0.062 C 
HETATM   36  C34 VFQ X1621     -42.554 138.939   8.820  1.00 31.86     0.007 C 
HETATM   37  C35 VFQ X1621     -41.341 138.206   8.453  1.00 31.86     0.001 C 
HETATM   38  C36 VFQ X1621     -50.643 145.821   7.853  1.00 66.61     0.020 C 
HETATM   39  C37 VFQ X1621     -51.065 144.096   9.570  1.00 66.61     0.020 C 
HETATM   40  C38 VFQ X1621     -47.631 146.829  11.453  1.00 66.61     0.044 C 
HETATM   41  C39 VFQ X1621     -45.929 144.391   7.282  1.00 31.86     0.048 C 
HETATM   42  C40 VFQ X1621     -42.465 140.506   6.846  1.00 31.86     0.048 C 
HETATM   43  O23 VFQ X1621     -52.388 147.592  11.963  1.00 66.61    -0.395 OA
ATOM     44  H23 VFQ X1621     -53.095 147.963  11.449  1.00  0.00     0.210 HD
ENDROOT
TORSDOF 12
BEGIN_RES PHE A  61
REMARK  2 active torsions:
REMARK  status: ('A' for Active; 'I' for Inactive)
REMARK    1  A    between atoms: CA   and  CB  
REMARK    2  A    between atoms: CB   and  CG  
ROOT
ATOM      1  CA  PHE A  61     -36.237 128.293  12.768  1.00 39.40     0.164 C 
ENDROOT
BRANCH   1   2
ATOM      2  CB  PHE A  61     -36.813 128.951  11.509  1.00 39.41     0.058 C 
BRANCH   2   3
ATOM      3  CG  PHE A  61     -37.052 127.999  10.361  1.00 39.01    -0.020 A 
ATOM      4  CD2 PHE A  61     -36.270 126.866  10.202  1.00 40.32    -0.004 A 
ATOM      5  CE2 PHE A  61     -36.489 125.993   9.144  1.00 40.20    -0.000 A 
ATOM      6  CZ  PHE A  61     -37.493 126.241   8.236  1.00 40.34    -0.000 A 
ATOM      7  CE1 PHE A  61     -38.280 127.362   8.381  1.00 41.51    -0.000 A 
ATOM      8  CD1 PHE A  61     -38.057 128.239   9.435  1.00 39.94    -0.004 A 
ENDBRANCH   2   3
ENDBRANCH   1   2
END_RES PHE A  61
BEGIN_RES VAL A 134
REMARK  1 active torsions:
REMARK  status: ('A' for Active; 'I' for Inactive)
REMARK    3  A    between atoms: CA   and  CB  
ROOT
ATOM      9  CA  VAL A 134     -29.766 132.051   9.815  1.00 40.75     0.159 C 
ENDROOT
BRANCH   9  10
ATOM     10  CB  VAL A 134     -30.864 132.765   9.009  1.00 40.76     0.029 C 
ATOM     11  CG1 VAL A 134     -32.078 133.044   9.883  1.00 41.76     0.002 C 
ATOM     12  CG2 VAL A 134     -30.350 134.047   8.373  1.00 40.56     0.002 C 
ENDBRANCH   9  10
END_RES VAL A 134
BEGIN_RES TYR A 338
REMARK  3 active torsions:
REMARK  status: ('A' for Active; 'I' for Inactive)
REMARK    4  A    between atoms: CA   and  CB  
REMARK    5  A    between atoms: CB   and  CG  
REMARK    6  A    between atoms: CZ   and  OH  
ROOT
ATOM     13  CA  TYR A 338     -41.631 124.950   6.058  1.00 38.23     0.164 C 
ENDROOT
BRANCH  13  14
ATOM     14  CB  TYR A 338     -41.621 126.456   6.339  1.00 39.15     0.058 C 
BRANCH  14  15
ATOM     15  CG  TYR A 338     -40.414 127.210   5.830  1.00 39.03    -0.020 A 
ATOM     16  CD2 TYR A 338     -40.260 128.557   6.111  1.00 40.65    -0.002 A 
ATOM     17  CE2 TYR A 338     -39.174 129.284   5.647  1.00 40.91     0.024 A 
ATOM     18  CZ  TYR A 338     -38.209 128.660   4.879  1.00 42.33     0.089 A 
ATOM     19  CE1 TYR A 338     -38.339 127.314   4.588  1.00 40.63     0.024 A 
ATOM     20  CD1 TYR A 338     -39.439 126.608   5.051  1.00 39.27    -0.002 A 
BRANCH  18  21
ATOM     21  OH  TYR A 338     -37.132 129.366   4.420  1.00 43.36    -0.359 OA
ATOM     22  HH  TYR A 338     -36.611 129.032   3.699  1.00  0.00     0.217 HD
ENDBRANCH  18  21
ENDBRANCH  14  15
ENDBRANCH  13  14
END_RES TYR A 338
ENDMDL
MODEL 2
REMARK VINA RESULT:   -11.855      1.448      1.966
REMARK INTER + INTRA:         -12.027
REMARK INTER:                  -9.530
REMARK INTRA:                  -2.497
REMARK UNBOUND:                -0.172
REMARK  0 active torsions:
REMARK  status: ('A' for Active; 'I' for Inactive)
REMARK       I    between atoms: C3_3  and  O3_21 
REMARK       I    between atoms: C6_6  and  C7_7 
REMARK       I    between atoms: C8_8  and  C9_9 
REMARK       I    between atoms: C10_10  and  C11_11 
REMARK       I    between atoms: C12_12  and  C13_13 
REMARK       I    between atoms: C14_14  and  C15_15 
REMARK       I    between atoms: C23_25  and  O23_43 
REMARK       I    between atoms: C26_28  and  C27_29 
REMARK       I    between atoms: C28_30  and  C29_31 
REMARK       I    between atoms: C30_32  and  C31_33 
REMARK       I    between atoms: C32_34  and  C33_35 
REMARK       I    between atoms: C34_36  and  C35_37 
ROOT
HETATM    1  C1  VFQ X1621     -34.433 127.003   6.421  1.00 31.86    -0.018 C 
HETATM    2  C2  VFQ X1621     -34.244 126.702   4.931  1.00 31.86     0.045 C 
HETATM    3  C3  VFQ X1621     -33.048 127.349   4.242  1.00 31.86     0.123 C 
HETATM    4  C4  VFQ X1621     -31.999 127.811   5.246  1.00 31.86     0.066 C 
HETATM    5  C5  VFQ X1621     -32.700 128.720   6.210  1.00 31.86    -0.074 C 
HETATM    6  C6  VFQ X1621     -33.717 128.238   6.922  1.00 31.86    -0.048 C 
HETATM    7  C7  VFQ X1621     -34.300 128.965   8.070  1.00 31.86     0.009 C 
HETATM    8  C8  VFQ X1621     -34.304 130.301   8.062  1.00 31.86     0.007 C 
HETATM    9  C9  VFQ X1621     -35.096 131.010   9.092  1.00 31.86    -0.062 C 
HETATM   10  C10 VFQ X1621     -35.523 132.251   8.783  1.00 31.86     0.007 C 
HETATM   11  C11 VFQ X1621     -36.450 133.013   9.618  1.00 31.86     0.001 C 
HETATM   12  C12 VFQ X1621     -37.033 134.101   9.119  1.00 31.86     0.007 C 
HETATM   13  C13 VFQ X1621     -38.046 134.857   9.888  1.00 31.86    -0.062 C 
HETATM   14  C14 VFQ X1621     -38.688 135.857   9.248  1.00 31.86     0.007 C 
HETATM   15  C15 VFQ X1621     -39.732 136.684   9.856  1.00 31.86     0.001 C 
HETATM   16  C16 VFQ X1621     -33.854 125.850   7.239  1.00 31.86     0.020 C 
HETATM   17  C17 VFQ X1621     -35.926 127.079   6.700  1.00 31.86     0.020 C 
HETATM   18  C18 VFQ X1621     -31.588 129.513   6.840  1.00 31.86     0.044 C 
HETATM   19  C19 VFQ X1621     -35.470 130.304  10.375  1.00 31.86     0.048 C 
HETATM   20  C20 VFQ X1621     -38.327 134.455  11.315  1.00 31.86     0.048 C 
HETATM   21  O3  VFQ X1621     -32.495 126.355   3.383  1.00 31.86    -0.395 OA
ATOM     22  H3  VFQ X1621     -33.149 126.068   2.757  1.00  0.00     0.210 HD
HETATM   23  C21 VFQ X1621     -48.624 145.625  11.995  1.00 66.61    -0.018 C 
HETATM   24  C22 VFQ X1621     -49.426 146.614  12.832  1.00 66.61     0.045 C 
HETATM   25  C23 VFQ X1621     -48.665 147.566  13.743  1.00 66.61     0.123 C 
HETATM   26  C24 VFQ X1621     -47.396 146.935  14.272  1.00 66.61     0.066 C 
HETATM   27  C25 VFQ X1621     -46.564 146.456  13.117  1.00 66.61    -0.074 C 
HETATM   28  C26 VFQ X1621     -47.119 145.780  12.106  1.00 66.61    -0.048 C 
HETATM   29  C27 VFQ X1621     -46.269 145.177  11.048  1.00 66.61     0.009 C 
HETATM   30  C28 VFQ X1621     -45.752 143.953  11.180  1.00 66.61     0.007 C 
HETATM   31  C29 VFQ X1621     -44.919 143.330  10.140  1.00 31.86    -0.062 C 
HETATM   32  C30 VFQ X1621     -44.400 142.117  10.426  1.00 31.86     0.007 C 
HETATM   33  C31 VFQ X1621     -43.509 141.375   9.536  1.00 31.86     0.001 C 
HETATM   34  C32 VFQ X1621     -42.944 140.252   9.977  1.00 31.86     0.007 C 
HETATM   35  C33 VFQ X1621     -41.973 139.496   9.159  1.00 31.86    -0.062 C 
HETATM   36  C34 VFQ X1621     -41.347 138.465   9.763  1.00 31.86     0.007 C 
HETATM   37  C35 VFQ X1621     -40.316 137.635   9.135  1.00 31.86     0.001 C 
HETATM   38  C36 VFQ X1621     -49.010 145.839  10.540  1.00 66.61     0.020 C 
HETATM   39  C37 VFQ X1621     -49.057 144.222  12.406  1.00 66.61     0.020 C 
HETATM   40  C38 VFQ X1621     -45.102 146.789  13.162  1.00 66.61     0.044 C 
HETATM   41  C39 VFQ X1621     -44.701 144.065   8.842  1.00 31.86     0.048 C 
HETATM   42  C40 VFQ X1621     -41.696 139.937   7.746  1.00 31.86     0.048 C 
HETATM   43  O23 VFQ X1621     -49.505 147.899  14.852  1.00 66.61    -0.395 OA
ATOM     44  H23 VFQ X1621     -50.302 148.295  14.519  1.00  0.00     0.210 HD
ENDROOT
TORSDOF 12
BEGIN_RES PHE A  61
REMARK  2 active torsions:
REMARK  status: ('A' for Active; 'I' for Inactive)
REMARK    1  A    between atoms: CA   and  CB  
REMARK    2  A    between atoms: CB   and  CG  
ROOT
ATOM      1  CA  PHE A  61     -36.237 128.293  12.768  1.00 39.40     0.164 C 
ENDROOT
BRANCH   1   2
ATOM      2  CB  PHE A  61     -36.813 128.951  11.509  1.00 39.41     0.058 C 
BRANCH   2   3
ATOM      3  CG  PHE A  61     -37.099 127.992  10.379  1.00 39.01    -0.020 A 
ATOM      4  CD2 PHE A  61     -36.380 126.814  10.246  1.00 40.32    -0.004 A 
ATOM      5  CE2 PHE A  61     -36.642 125.934   9.203  1.00 40.20    -0.000 A 
ATOM      6  CZ  PHE A  61     -37.627 126.219   8.285  1.00 40.34    -0.000 A 
ATOM      7  CE1 PHE A  61     -38.351 127.384   8.404  1.00 41.51    -0.000 A 
ATOM      8  CD1 PHE A  61     -38.085 128.267   9.443  1.00 39.94    -0.004 A 
ENDBRANCH   2   3
ENDBRANCH   1   2
END_RES PHE A  61
BEGIN_RES VAL A 134
REMARK  1 active torsions:
REMARK  status: ('A' for Active; 'I' for Inactive)
REMARK    3  A    between atoms: CA   and  CB  
ROOT
ATOM      9  CA  VAL A 134     -29.766 132.051   9.815  1.00 40.75     0.159 C 
ENDROOT
BRANCH   9  10
ATOM     10  CB  VAL A 134     -30.864 132.765   9.009  1.00 40.76     0.029 C 
ATOM     11  CG1 VAL A 134     -31.071 132.086   7.663  1.00 41.76     0.002 C 
ATOM     12  CG2 VAL A 134     -32.171 132.839   9.784  1.00 40.56     0.002 C 
ENDBRANCH   9  10
END_RES VAL A 134
BEGIN_RES TYR A 338
REMARK  3 active torsions:
REMARK  status: ('A' for Active; 'I' for Inactive)
REMARK    4  A    between atoms: CA   and  CB  
REMARK    5  A    between atoms: CB   and  CG  
REMARK    6  A    between atoms: CZ   and  OH  
ROOT
ATOM     13  CA  TYR A 338     -41.631 124.950   6.058  1.00 38.23     0.164 C 
ENDROOT
BRANCH  13  14
ATOM     14  CB  TYR A 338     -41.621 126.456   6.339  1.00 39.15     0.058 C 
BRANCH  14  15
ATOM     15  CG  TYR A 338     -40.409 127.208   5.841  1.00 39.03    -0.020 A 
ATOM     16  CD2 TYR A 338     -40.232 128.544   6.161  1.00 40.65    -0.002 A 
ATOM     17  CE2 TYR A 338     -39.140 129.269   5.708  1.00 40.91     0.024 A 
ATOM     18  CZ  TYR A 338     -38.192 128.655   4.911  1.00 42.33     0.089 A 
ATOM     19  CE1 TYR A 338     -38.344 127.320   4.582  1.00 40.63     0.024 A 
ATOM     20  CD1 TYR A 338     -39.450 126.616   5.033  1.00 39.27    -0.002 A 
BRANCH  18  21
ATOM     21  OH  TYR A 338     -37.109 129.359   4.463  1.00 43.36    -0.359 OA
ATOM     22  HH  TYR A 338     -36.617 129.914   5.057  1.00  0.00     0.217 HD
ENDBRANCH  18  21
ENDBRANCH  14  15
ENDBRANCH  13  14
END_RES TYR A 338
ENDMDL
MODEL 3
REMARK VINA RESULT:   -10.320      0.839     16.823
REMARK INTER + INTRA:         -10.492
REMARK INTER:                 -10.162
REMARK INTRA:                  -0.330
REMARK UNBOUND:                -0.172
REMARK  0 active torsions:
REMARK  status: ('A' for Active; 'I' for Inactive)
REMARK       I    between atoms: C3_3  and  O3_21 
REMARK       I    between atoms: C6_6  and  C7_7 
REMARK       I    between atoms: C8_8  and  C9_9 
REMARK       I    between atoms: C10_10  and  C11_11 
REMARK       I    between atoms: C12_12  and  C13_13 
REMARK       I    between atoms: C14_14  and  C15_15 
REMARK       I    between atoms: C23_25  and  O23_43 
REMARK       I    between atoms: C26_28  and  C27_29 
REMARK       I    between atoms: C28_30  and  C29_31 
REMARK       I    between atoms: C30_32  and  C31_33 
REMARK       I    between atoms: C32_34  and  C33_35 
REMARK       I    between atoms: C34_36  and  C35_37 
ROOT
HETATM    1  C1  VFQ X1621     -50.705 145.369  10.555  1.00 31.86    -0.018 C 
HETATM    2  C2  VFQ X1621     -51.366 145.438  11.935  1.00 31.86     0.045 C 
HETATM    3  C3  VFQ X1621     -50.738 146.381  12.955  1.00 31.86     0.123 C 
HETATM    4  C4  VFQ X1621     -49.847 147.420  12.291  1.00 31.86     0.066 C 
HETATM    5  C5  VFQ X1621     -48.841 146.664  11.475  1.00 31.86    -0.074 C 
HETATM    6  C6  VFQ X1621     -49.276 145.863  10.503  1.00 31.86    -0.048 C 
HETATM    7  C7  VFQ X1621     -48.373 145.282   9.488  1.00 31.86     0.009 C 
HETATM    8  C8  VFQ X1621     -47.111 144.996   9.824  1.00 31.86     0.007 C 
HETATM    9  C9  VFQ X1621     -46.293 144.201   8.880  1.00 31.86    -0.062 C 
HETATM   10  C10 VFQ X1621     -45.277 143.488   9.408  1.00 31.86     0.007 C 
HETATM   11  C11 VFQ X1621     -44.486 142.529   8.640  1.00 31.86     0.001 C 
HETATM   12  C12 VFQ X1621     -43.694 141.675   9.285  1.00 31.86     0.007 C 
HETATM   13  C13 VFQ X1621     -42.941 140.624   8.565  1.00 31.86    -0.062 C 
HETATM   14  C14 VFQ X1621     -42.280 139.715   9.312  1.00 31.86     0.007 C 
HETATM   15  C15 VFQ X1621     -41.510 138.600   8.757  1.00 31.86     0.001 C 
HETATM   16  C16 VFQ X1621     -51.472 146.271   9.590  1.00 31.86     0.020 C 
HETATM   17  C17 VFQ X1621     -50.812 143.938  10.053  1.00 31.86     0.020 C 
HETATM   18  C18 VFQ X1621     -47.728 147.651  11.259  1.00 31.86     0.044 C 
HETATM   19  C19 VFQ X1621     -46.673 144.140   7.419  1.00 31.86     0.048 C 
HETATM   20  C20 VFQ X1621     -42.977 140.606   7.057  1.00 31.86     0.048 C 
HETATM   21  O3  VFQ X1621     -51.820 147.024  13.625  1.00 31.86    -0.395 OA
ATOM     22  H3  VFQ X1621     -52.376 146.375  14.040  1.00  0.00     0.210 HD
HETATM   23  C21 VFQ X1621     -33.987 128.346   7.401  1.00 66.61    -0.018 C 
HETATM   24  C22 VFQ X1621     -32.958 127.460   6.709  1.00 66.61     0.045 C 
HETATM   25  C23 VFQ X1621     -31.677 128.107   6.204  1.00 66.61     0.123 C 
HETATM   26  C24 VFQ X1621     -31.911 129.534   5.760  1.00 66.61     0.066 C 
HETATM   27  C25 VFQ X1621     -32.539 130.304   6.886  1.00 66.61    -0.074 C 
HETATM   28  C26 VFQ X1621     -33.551 129.787   7.590  1.00 66.61    -0.048 C 
HETATM   29  C27 VFQ X1621     -34.268 130.613   8.596  1.00 66.61     0.009 C 
HETATM   30  C28 VFQ X1621     -35.300 131.388   8.256  1.00 66.61     0.007 C 
HETATM   31  C29 VFQ X1621     -36.033 132.203   9.237  1.00 31.86    -0.062 C 
HETATM   32  C30 VFQ X1621     -37.013 132.996   8.754  1.00 31.86     0.007 C 
HETATM   33  C31 VFQ X1621     -37.807 133.911   9.574  1.00 31.86     0.001 C 
HETATM   34  C32 VFQ X1621     -38.651 134.747   8.972  1.00 31.86     0.007 C 
HETATM   35  C33 VFQ X1621     -39.425 135.751   9.732  1.00 31.86    -0.062 C 
HETATM   36  C34 VFQ X1621     -40.127 136.648   9.009  1.00 31.86     0.007 C 
HETATM   37  C35 VFQ X1621     -40.908 137.747   9.580  1.00 31.86     0.001 C 
HETATM   38  C36 VFQ X1621     -34.250 127.753   8.776  1.00 66.61     0.020 C 
HETATM   39  C37 VFQ X1621     -35.275 128.270   6.590  1.00 66.61     0.020 C 
HETATM   40  C38 VFQ X1621     -31.961 131.658   7.175  1.00 66.61     0.044 C 
HETATM   41  C39 VFQ X1621     -35.656 132.105  10.694  1.00 31.86     0.048 C 
HETATM   42  C40 VFQ X1621     -39.349 135.758  11.236  1.00 31.86     0.048 C 
HETATM   43  O23 VFQ X1621     -31.201 127.353   5.085  1.00 66.61    -0.395 OA
ATOM     44  H23 VFQ X1621     -31.054 126.457   5.364  1.00  0.00     0.210 HD
ENDROOT
TORSDOF 12
BEGIN_RES PHE A  61
REMARK  2 active torsions:
REMARK  status: ('A' for Active; 'I' for Inactive)
REMARK    1  A    between atoms: CA   and  CB  
REMARK    2  A    between atoms: CB   and  CG  
ROOT
ATOM      1  CA  PHE A  61     -36.237 128.293  12.768  1.00 39.40     0.164 C 
ENDROOT
BRANCH   1   2
ATOM      2  CB  PHE A  61     -36.813 128.951  11.509  1.00 39.41     0.058 C 
BRANCH   2   3
ATOM      3  CG  PHE A  61     -37.030 128.004  10.353  1.00 39.01    -0.020 A 
ATOM      4  CD2 PHE A  61     -36.314 126.821  10.259  1.00 40.32    -0.004 A 
ATOM      5  CE2 PHE A  61     -36.512 125.952   9.193  1.00 40.20    -0.000 A 
ATOM      6  CZ  PHE A  61     -37.430 126.253   8.213  1.00 40.34    -0.000 A 
ATOM      7  CE1 PHE A  61     -38.151 127.424   8.294  1.00 41.51    -0.000 A 
ATOM      8  CD1 PHE A  61     -37.948 128.296   9.355  1.00 39.94    -0.004 A 
ENDBRANCH   2   3
ENDBRANCH   1   2
END_RES PHE A  61
BEGIN_RES VAL A 134
REMARK  1 active torsions:
REMARK  status: ('A' for Active; 'I' for Inactive)
REMARK    3  A    between atoms: CA   and  CB  
ROOT
ATOM      9  CA  VAL A 134     -29.766 132.051   9.815  1.00 40.75     0.159 C 
ENDROOT
BRANCH   9  10
ATOM     10  CB  VAL A 134     -30.864 132.765   9.009  1.00 40.76     0.029 C 
ATOM     11  CG1 VAL A 134     -32.107 132.974   9.861  1.00 41.76     0.002 C 
ATOM     12  CG2 VAL A 134     -30.372 134.086   8.438  1.00 40.56     0.002 C 
ENDBRANCH   9  10
END_RES VAL A 134
BEGIN_RES TYR A 338
REMARK  3 active torsions:
REMARK  status: ('A' for Active; 'I' for Inactive)
REMARK    4  A    between atoms: CA   and  CB  
REMARK    5  A    between atoms: CB   and  CG  
REMARK    6  A    between atoms: CZ   and  OH  
ROOT
ATOM     13  CA  TYR A 338     -41.631 124.950   6.058  1.00 38.23     0.164 C 
ENDROOT
BRANCH  13  14
ATOM     14  CB  TYR A 338     -41.621 126.456   6.339  1.00 39.15     0.058 C 
BRANCH  14  15
ATOM     15  CG  TYR A 338     -40.413 127.210   5.833  1.00 39.03    -0.020 A 
ATOM     16  CD2 TYR A 338     -40.258 128.556   6.115  1.00 40.65    -0.002 A 
ATOM     17  CE2 TYR A 338     -39.171 129.282   5.654  1.00 40.91     0.024 A 
ATOM     18  CZ  TYR A 338     -38.205 128.659   4.887  1.00 42.33     0.089 A 
ATOM     19  CE1 TYR A 338     -38.335 127.313   4.595  1.00 40.63     0.024 A 
ATOM     20  CD1 TYR A 338     -39.436 126.607   5.055  1.00 39.27    -0.002 A 
BRANCH  18  21
ATOM     21  OH  TYR A 338     -37.126 129.364   4.431  1.00 43.36    -0.359 OA
ATOM     22  HH  TYR A 338     -37.052 130.295   4.604  1.00  0.00     0.217 HD
ENDBRANCH  18  21
ENDBRANCH  14  15
ENDBRANCH  13  14
END_RES TYR A 338
ENDMDL
