MODEL 1
REMARK VINA RESULT:    -8.217      0.000      0.000
REMARK INTER + INTRA:         -10.781
REMARK INTER:                  -8.217
REMARK INTRA:                  -2.564
REMARK UNBOUND:                -2.564
REMARK  0 active torsions:
REMARK  status: ('A' for Active; 'I' for Inactive)
REMARK       I    between atoms: C3_3  and  O3_21 
REMARK       I    between atoms: C6_6  and  C7_7 
REMARK       I    between atoms: C8_8  and  C9_9 
REMARK       I    between atoms: C10_10  and  C11_11 
REMARK       I    between atoms: C12_12  and  C13_13 
REMARK       I    between atoms: C14_14  and  C15_15 
REMARK       I    between atoms: C23_25  and  O23_43 
REMARK       I    between atoms: C26_28  and  C27_29 
REMARK       I    between atoms: C28_30  and  C29_31 
REMARK       I    between atoms: C30_32  and  C31_33 
REMARK       I    between atoms: C32_34  and  C33_35 
REMARK       I    between atoms: C34_36  and  C35_37 
ROOT
HETATM    1  C1  VFQ I8620     -34.562 126.941   6.189  1.00 16.69    -0.018 C 
HETATM    2  C2  VFQ I8620     -34.013 126.202   4.958  1.00 15.88     0.045 C 
HETATM    3  C3  VFQ I8620     -32.907 126.864   4.148  1.00 15.19     0.123 C 
HETATM    4  C4  VFQ I8620     -31.963 127.751   4.965  1.00 16.30     0.066 C 
HETATM    5  C5  VFQ I8620     -32.532 128.514   6.118  1.00 15.97    -0.074 C 
HETATM    6  C6  VFQ I8620     -33.729 128.160   6.695  1.00 16.56    -0.048 C 
HETATM    7  C7  VFQ I8620     -34.276 128.932   7.813  1.00 18.44     0.009 C 
HETATM    8  C8  VFQ I8620     -34.909 130.115   7.729  1.00 18.42     0.007 C 
HETATM    9  C9  VFQ I8620     -35.341 130.939   8.845  1.00 20.59    -0.062 C 
HETATM   10  C10 VFQ I8620     -36.055 132.049   8.565  1.00 20.51     0.007 C 
HETATM   11  C11 VFQ I8620     -36.583 132.981   9.512  1.00 21.63     0.001 C 
HETATM   12  C12 VFQ I8620     -37.431 133.934   9.113  1.00 21.98     0.007 C 
HETATM   13  C13 VFQ I8620     -38.102 134.948   9.925  1.00 23.28    -0.062 C 
HETATM   14  C14 VFQ I8620     -39.011 135.728   9.300  1.00 23.72     0.007 C 
HETATM   15  C15 VFQ I8620     -39.859 136.733   9.875  1.00 25.53     0.001 C 
HETATM   16  C16 VFQ I8620     -34.621 125.850   7.273  1.00 15.77     0.020 C 
HETATM   17  C17 VFQ I8620     -36.012 127.353   5.868  1.00 17.40     0.020 C 
HETATM   18  C18 VFQ I8620     -31.602 129.629   6.446  1.00 16.04     0.044 C 
HETATM   19  C19 VFQ I8620     -35.006 130.467  10.237  1.00 19.43     0.048 C 
HETATM   20  C20 VFQ I8620     -37.789 135.000  11.397  1.00 18.80     0.048 C 
HETATM   21  O3  VFQ I8620     -32.166 125.883   3.451  1.00 16.64    -0.395 OA
ATOM     22  H3  VFQ I8620     -31.476 126.297   2.946  1.00  0.00     0.210 HD
HETATM   23  C21 VFQ I8620     -49.397 144.599  12.711  1.00 59.27    -0.018 C 
HETATM   24  C22 VFQ I8620     -49.990 145.404  13.859  1.00 64.60     0.045 C 
HETATM   25  C23 VFQ I8620     -49.527 146.842  13.935  1.00 63.28     0.123 C 
HETATM   26  C24 VFQ I8620     -48.023 146.894  13.973  1.00 61.00     0.066 C 
HETATM   27  C25 VFQ I8620     -47.449 146.184  12.780  1.00 64.87    -0.074 C 
HETATM   28  C26 VFQ I8620     -48.052 145.114  12.221  1.00 63.96    -0.048 C 
HETATM   29  C27 VFQ I8620     -47.438 144.418  11.059  1.00 64.82     0.009 C 
HETATM   30  C28 VFQ I8620     -46.511 143.464  11.195  1.00 58.91     0.007 C 
HETATM   31  C29 VFQ I8620     -45.888 142.741  10.047  1.00 33.65    -0.062 C 
HETATM   32  C30 VFQ I8620     -44.965 141.799  10.335  1.00 30.63     0.007 C 
HETATM   33  C31 VFQ I8620     -44.279 140.939   9.407  1.00 28.70     0.001 C 
HETATM   34  C32 VFQ I8620     -43.339 140.061   9.817  1.00 25.67     0.007 C 
HETATM   35  C33 VFQ I8620     -42.543 139.120   9.028  1.00 24.63    -0.062 C 
HETATM   36  C34 VFQ I8620     -41.629 138.370   9.678  1.00 23.98     0.007 C 
HETATM   37  C35 VFQ I8620     -40.737 137.397   9.114  1.00 25.49     0.001 C 
HETATM   38  C36 VFQ I8620     -50.350 144.670  11.529  1.00 56.55     0.020 C 
HETATM   39  C37 VFQ I8620     -49.337 143.161  13.214  1.00 59.14     0.020 C 
HETATM   40  C38 VFQ I8620     -46.164 146.769  12.267  1.00 61.00     0.044 C 
HETATM   41  C39 VFQ I8620     -46.314 143.101   8.646  1.00 33.66     0.048 C 
HETATM   42  C40 VFQ I8620     -42.778 139.067   7.553  1.00 25.13     0.048 C 
HETATM   43  O23 VFQ I8620     -50.045 147.435  15.128  1.00 73.40    -0.395 OA
ATOM     44  H23 VFQ I8620     -49.754 148.338  15.176  1.00  0.00     0.210 HD
ENDROOT
TORSDOF 12
BEGIN_RES PHE A  61
REMARK  2 active torsions:
REMARK  status: ('A' for Active; 'I' for Inactive)
REMARK    1  A    between atoms: CA   and  CB  
REMARK    2  A    between atoms: CB   and  CG  
ROOT
ATOM      1  CA  PHE A  61     -36.237 128.293  12.768  1.00 39.40     0.164 C 
ENDROOT
BRANCH   1   2
ATOM      2  CB  PHE A  61     -36.813 128.951  11.509  1.00 39.41     0.058 C 
BRANCH   2   3
ATOM      3  CG  PHE A  61     -37.055 127.999  10.362  1.00 39.01    -0.020 A 
ATOM      4  CD2 PHE A  61     -36.335 126.820  10.252  1.00 40.32    -0.004 A 
ATOM      5  CE2 PHE A  61     -36.556 125.946   9.195  1.00 40.20    -0.000 A 
ATOM      6  CZ  PHE A  61     -37.502 126.239   8.239  1.00 40.34    -0.000 A 
ATOM      7  CE1 PHE A  61     -38.228 127.406   8.336  1.00 41.51    -0.000 A 
ATOM      8  CD1 PHE A  61     -38.002 128.283   9.389  1.00 39.94    -0.004 A 
ENDBRANCH   2   3
ENDBRANCH   1   2
END_RES PHE A  61
BEGIN_RES VAL A 134
REMARK  1 active torsions:
REMARK  status: ('A' for Active; 'I' for Inactive)
REMARK    3  A    between atoms: CA   and  CB  
ROOT
ATOM      9  CA  VAL A 134     -29.766 132.051   9.815  1.00 40.75     0.159 C 
ENDROOT
BRANCH   9  10
ATOM     10  CB  VAL A 134     -30.864 132.765   9.009  1.00 40.76     0.029 C 
ATOM     11  CG1 VAL A 134     -30.973 132.177   7.610  1.00 41.76     0.002 C 
ATOM     12  CG2 VAL A 134     -32.206 132.715   9.722  1.00 40.56     0.002 C 
ENDBRANCH   9  10
END_RES VAL A 134
BEGIN_RES TYR A 338
REMARK  3 active torsions:
REMARK  status: ('A' for Active; 'I' for Inactive)
REMARK    4  A    between atoms: CA   and  CB  
REMARK    5  A    between atoms: CB   and  CG  
REMARK    6  A    between atoms: CZ   and  OH  
ROOT
ATOM     13  CA  TYR A 338     -41.631 124.950   6.058  1.00 38.23     0.164 C 
ENDROOT
BRANCH  13  14
ATOM     14  CB  TYR A 338     -41.621 126.456   6.339  1.00 39.15     0.058 C 
BRANCH  14  15
ATOM     15  CG  TYR A 338     -40.430 127.216   5.801  1.00 39.03    -0.020 A 
ATOM     16  CD2 TYR A 338     -40.240 128.546   6.133  1.00 40.65    -0.002 A 
ATOM     17  CE2 TYR A 338     -39.168 129.278   5.646  1.00 40.91     0.024 A 
ATOM     18  CZ  TYR A 338     -38.255 128.677   4.800  1.00 42.33     0.089 A 
ATOM     19  CE1 TYR A 338     -38.421 127.347   4.457  1.00 40.63     0.024 A 
ATOM     20  CD1 TYR A 338     -39.507 126.636   4.945  1.00 39.27    -0.002 A 
BRANCH  18  21
ATOM     21  OH  TYR A 338     -37.192 129.387   4.317  1.00 43.36    -0.359 OA
ATOM     22  HH  TYR A 338     -36.713 129.981   4.884  1.00  0.00     0.217 HD
ENDBRANCH  18  21
ENDBRANCH  14  15
ENDBRANCH  13  14
END_RES TYR A 338
ENDMDL
MODEL 2
REMARK VINA RESULT:    -7.672      1.154     16.960
REMARK INTER + INTRA:         -10.236
REMARK INTER:                  -9.718
REMARK INTRA:                  -0.518
REMARK UNBOUND:                -2.564
REMARK  0 active torsions:
REMARK  status: ('A' for Active; 'I' for Inactive)
REMARK       I    between atoms: C3_3  and  O3_21 
REMARK       I    between atoms: C6_6  and  C7_7 
REMARK       I    between atoms: C8_8  and  C9_9 
REMARK       I    between atoms: C10_10  and  C11_11 
REMARK       I    between atoms: C12_12  and  C13_13 
REMARK       I    between atoms: C14_14  and  C15_15 
REMARK       I    between atoms: C23_25  and  O23_43 
REMARK       I    between atoms: C26_28  and  C27_29 
REMARK       I    between atoms: C28_30  and  C29_31 
REMARK       I    between atoms: C30_32  and  C31_33 
REMARK       I    between atoms: C32_34  and  C33_35 
REMARK       I    between atoms: C34_36  and  C35_37 
ROOT
HETATM    1  C1  VFQ I8620     -50.618 145.004  11.511  1.00 16.69    -0.018 C 
HETATM    2  C2  VFQ I8620     -51.443 145.623  12.651  1.00 15.88     0.045 C 
HETATM    3  C3  VFQ I8620     -50.770 146.636  13.566  1.00 15.19     0.123 C 
HETATM    4  C4  VFQ I8620     -49.683 147.479  12.895  1.00 16.30     0.066 C 
HETATM    5  C5  VFQ I8620     -48.847 146.837  11.835  1.00 15.97    -0.074 C 
HETATM    6  C6  VFQ I8620     -49.256 145.696  11.186  1.00 16.56    -0.048 C 
HETATM    7  C7  VFQ I8620     -48.412 145.074  10.163  1.00 18.44     0.009 C 
HETATM    8  C8  VFQ I8620     -47.330 144.308  10.382  1.00 18.42     0.007 C 
HETATM    9  C9  VFQ I8620     -46.423 143.795   9.370  1.00 20.59    -0.062 C 
HETATM   10  C10 VFQ I8620     -45.447 142.953   9.771  1.00 20.51     0.007 C 
HETATM   11  C11 VFQ I8620     -44.466 142.330   8.939  1.00 21.63     0.001 C 
HETATM   12  C12 VFQ I8620     -43.675 141.374   9.434  1.00 21.98     0.007 C 
HETATM   13  C13 VFQ I8620     -42.647 140.599   8.742  1.00 23.28    -0.062 C 
HETATM   14  C14 VFQ I8620     -42.064 139.598   9.439  1.00 23.72     0.007 C 
HETATM   15  C15 VFQ I8620     -41.096 138.645   8.976  1.00 25.53     0.001 C 
HETATM   16  C16 VFQ I8620     -51.558 145.084  10.295  1.00 15.77     0.020 C 
HETATM   17  C17 VFQ I8620     -50.418 143.513  11.845  1.00 17.40     0.020 C 
HETATM   18  C18 VFQ I8620     -47.600 147.635  11.676  1.00 16.04     0.044 C 
HETATM   19  C19 VFQ I8620     -46.668 144.196   7.938  1.00 19.43     0.048 C 
HETATM   20  C20 VFQ I8620     -42.369 140.919   7.297  1.00 18.80     0.048 C 
HETATM   21  O3  VFQ I8620     -51.743 147.478  14.151  1.00 16.64    -0.395 OA
ATOM     22  H3  VFQ I8620     -51.323 148.110  14.722  1.00  0.00     0.210 HD
HETATM   23  C21 VFQ I8620     -34.064 128.288   6.929  1.00 59.27    -0.018 C 
HETATM   24  C22 VFQ I8620     -33.190 127.618   5.878  1.00 64.60     0.045 C 
HETATM   25  C23 VFQ I8620     -31.711 127.911   5.999  1.00 63.28     0.123 C 
HETATM   26  C24 VFQ I8620     -31.484 129.400   6.007  1.00 61.00     0.066 C 
HETATM   27  C25 VFQ I8620     -32.273 130.040   7.113  1.00 64.87    -0.074 C 
HETATM   28  C26 VFQ I8620     -33.468 129.559   7.515  1.00 63.96    -0.048 C 
HETATM   29  C27 VFQ I8620     -34.235 130.238   8.593  1.00 64.82     0.009 C 
HETATM   30  C28 VFQ I8620     -35.052 131.271   8.360  1.00 58.91     0.007 C 
HETATM   31  C29 VFQ I8620     -35.842 131.962   9.421  1.00 33.65    -0.062 C 
HETATM   32  C30 VFQ I8620     -36.628 132.990   9.038  1.00 30.63     0.007 C 
HETATM   33  C31 VFQ I8620     -37.517 133.762   9.866  1.00 28.70     0.001 C 
HETATM   34  C32 VFQ I8620     -38.221 134.802   9.371  1.00 25.67     0.007 C 
HETATM   35  C33 VFQ I8620     -39.160 135.693  10.053  1.00 24.63    -0.062 C 
HETATM   36  C34 VFQ I8620     -39.710 136.695   9.336  1.00 23.98     0.007 C 
HETATM   37  C35 VFQ I8620     -40.641 137.688   9.793  1.00 25.49     0.001 C 
HETATM   38  C36 VFQ I8620     -34.257 127.321   8.085  1.00 56.55     0.020 C 
HETATM   39  C37 VFQ I8620     -35.408 128.521   6.247  1.00 59.14     0.020 C 
HETATM   40  C38 VFQ I8620     -31.618 131.243   7.729  1.00 61.00     0.044 C 
HETATM   41  C39 VFQ I8620     -35.718 131.482  10.845  1.00 33.66     0.048 C 
HETATM   42  C40 VFQ I8620     -39.431 135.450  11.502  1.00 25.13     0.048 C 
HETATM   43  O23 VFQ I8620     -31.031 127.341   4.878  1.00 73.40    -0.395 OA
ATOM     44  H23 VFQ I8620     -30.102 127.526   4.954  1.00  0.00     0.210 HD
ENDROOT
TORSDOF 12
BEGIN_RES PHE A  61
REMARK  2 active torsions:
REMARK  status: ('A' for Active; 'I' for Inactive)
REMARK    1  A    between atoms: CA   and  CB  
REMARK    2  A    between atoms: CB   and  CG  
ROOT
ATOM      1  CA  PHE A  61     -36.237 128.293  12.768  1.00 39.40     0.164 C 
ENDROOT
BRANCH   1   2
ATOM      2  CB  PHE A  61     -36.813 128.951  11.509  1.00 39.41     0.058 C 
BRANCH   2   3
ATOM      3  CG  PHE A  61     -37.000 128.010  10.343  1.00 39.01    -0.020 A 
ATOM      4  CD2 PHE A  61     -36.268 126.837  10.251  1.00 40.32    -0.004 A 
ATOM      5  CE2 PHE A  61     -36.439 125.973   9.176  1.00 40.20    -0.000 A 
ATOM      6  CZ  PHE A  61     -37.346 126.271   8.184  1.00 40.34    -0.000 A 
ATOM      7  CE1 PHE A  61     -38.083 127.432   8.263  1.00 41.51    -0.000 A 
ATOM      8  CD1 PHE A  61     -37.908 128.298   9.334  1.00 39.94    -0.004 A 
ENDBRANCH   2   3
ENDBRANCH   1   2
END_RES PHE A  61
BEGIN_RES VAL A 134
REMARK  1 active torsions:
REMARK  status: ('A' for Active; 'I' for Inactive)
REMARK    3  A    between atoms: CA   and  CB  
ROOT
ATOM      9  CA  VAL A 134     -29.766 132.051   9.815  1.00 40.75     0.159 C 
ENDROOT
BRANCH   9  10
ATOM     10  CB  VAL A 134     -30.864 132.765   9.009  1.00 40.76     0.029 C 
ATOM     11  CG1 VAL A 134     -32.107 132.975   9.861  1.00 41.76     0.002 C 
ATOM     12  CG2 VAL A 134     -30.372 134.086   8.437  1.00 40.56     0.002 C 
ENDBRANCH   9  10
END_RES VAL A 134
BEGIN_RES TYR A 338
REMARK  3 active torsions:
REMARK  status: ('A' for Active; 'I' for Inactive)
REMARK    4  A    between atoms: CA   and  CB  
REMARK    5  A    between atoms: CB   and  CG  
REMARK    6  A    between atoms: CZ   and  OH  
ROOT
ATOM     13  CA  TYR A 338     -41.631 124.950   6.058  1.00 38.23     0.164 C 
ENDROOT
BRANCH  13  14
ATOM     14  CB  TYR A 338     -41.621 126.456   6.339  1.00 39.15     0.058 C 
BRANCH  14  15
ATOM     15  CG  TYR A 338     -40.422 127.213   5.815  1.00 39.03    -0.020 A 
ATOM     16  CD2 TYR A 338     -40.268 128.560   6.095  1.00 40.65    -0.002 A 
ATOM     17  CE2 TYR A 338     -39.189 129.289   5.618  1.00 40.91     0.024 A 
ATOM     18  CZ  TYR A 338     -38.233 128.668   4.837  1.00 42.33     0.089 A 
ATOM     19  CE1 TYR A 338     -38.363 127.322   4.548  1.00 40.63     0.024 A 
ATOM     20  CD1 TYR A 338     -39.455 126.613   5.024  1.00 39.27    -0.002 A 
BRANCH  18  21
ATOM     21  OH  TYR A 338     -37.163 129.376   4.365  1.00 43.36    -0.359 OA
ATOM     22  HH  TYR A 338     -37.142 130.323   4.441  1.00  0.00     0.217 HD
ENDBRANCH  18  21
ENDBRANCH  14  15
ENDBRANCH  13  14
END_RES TYR A 338
ENDMDL
