MODEL 1
REMARK VINA RESULT:   -11.614      0.000      0.000
REMARK INTER + INTRA:         -14.105
REMARK INTER:                 -11.614
REMARK INTRA:                  -2.491
REMARK UNBOUND:                -2.491
REMARK  0 active torsions:
REMARK  status: ('A' for Active; 'I' for Inactive)
REMARK       I    between atoms: C3_3  and  O3_21 
REMARK       I    between atoms: C6_6  and  C7_7 
REMARK       I    between atoms: C8_8  and  C9_9 
REMARK       I    between atoms: C10_10  and  C11_11 
REMARK       I    between atoms: C12_12  and  C13_13 
REMARK       I    between atoms: C14_14  and  C15_15 
REMARK       I    between atoms: C23_25  and  O23_43 
REMARK       I    between atoms: C26_28  and  C27_29 
REMARK       I    between atoms: C28_30  and  C29_31 
REMARK       I    between atoms: C30_32  and  C31_33 
REMARK       I    between atoms: C32_34  and  C33_35 
REMARK       I    between atoms: C34_36  and  C35_37 
ROOT
HETATM    1  C1  VFQ 1 619     -34.315 126.804   6.469  1.00 34.54    -0.018 C 
HETATM    2  C2  VFQ 1 619     -34.077 126.196   5.086  1.00 34.54     0.045 C 
HETATM    3  C3  VFQ 1 619     -33.086 126.879   4.143  1.00 34.54     0.123 C 
HETATM    4  C4  VFQ 1 619     -32.098 127.787   4.856  1.00 34.54     0.066 C 
HETATM    5  C5  VFQ 1 619     -32.867 128.706   5.762  1.00 34.54    -0.074 C 
HETATM    6  C6  VFQ 1 619     -33.769 128.214   6.618  1.00 34.54    -0.048 C 
HETATM    7  C7  VFQ 1 619     -34.224 129.063   7.744  1.00 34.54     0.009 C 
HETATM    8  C8  VFQ 1 619     -35.262 129.879   7.584  1.00 34.54     0.007 C 
HETATM    9  C9  VFQ 1 619     -35.780 130.771   8.634  1.00 34.54    -0.062 C 
HETATM   10  C10 VFQ 1 619     -36.675 131.665   8.219  1.00 34.54     0.007 C 
HETATM   11  C11 VFQ 1 619     -37.327 132.667   9.044  1.00 34.54     0.001 C 
HETATM   12  C12 VFQ 1 619     -38.183 133.418   8.365  1.00 34.54     0.007 C 
HETATM   13  C13 VFQ 1 619     -38.958 134.508   8.964  1.00 34.54    -0.062 C 
HETATM   14  C14 VFQ 1 619     -39.987 134.999   8.265  1.00 34.54     0.007 C 
HETATM   15  C15 VFQ 1 619     -40.791 136.091   8.790  1.00 34.54     0.001 C 
HETATM   16  C16 VFQ 1 619     -33.718 125.850   7.500  1.00 34.54     0.020 C 
HETATM   17  C17 VFQ 1 619     -35.816 126.864   6.720  1.00 34.54     0.020 C 
HETATM   18  C18 VFQ 1 619     -32.034 129.910   6.097  1.00 34.54     0.044 C 
HETATM   19  C19 VFQ 1 619     -35.334 130.691  10.062  1.00 34.54     0.048 C 
HETATM   20  C20 VFQ 1 619     -38.587 135.059  10.308  1.00 34.54     0.048 C 
HETATM   21  O3  VFQ 1 619     -32.359 125.870   3.436  1.00 34.54    -0.395 OA
ATOM     22  H3  VFQ 1 619     -32.977 125.302   2.991  1.00  0.00     0.210 HD
HETATM   23  C21 VFQ 1 619     -50.742 143.320  12.026  1.00 61.00    -0.018 C 
HETATM   24  C22 VFQ 1 619     -51.565 144.548  12.406  1.00 61.00     0.045 C 
HETATM   25  C23 VFQ 1 619     -51.472 145.775  11.508  1.00 61.00     0.123 C 
HETATM   26  C24 VFQ 1 619     -50.098 145.925  10.895  1.00 61.00     0.066 C 
HETATM   27  C25 VFQ 1 619     -49.690 144.655  10.202  1.00 61.00    -0.074 C 
HETATM   28  C26 VFQ 1 619     -49.959 143.456  10.731  1.00 61.00    -0.048 C 
HETATM   29  C27 VFQ 1 619     -49.505 142.221  10.043  1.00 61.00     0.009 C 
HETATM   30  C28 VFQ 1 619     -48.318 141.672  10.304  1.00 61.00     0.007 C 
HETATM   31  C29 VFQ 1 619     -47.843 140.456   9.651  1.00 34.54    -0.062 C 
HETATM   32  C30 VFQ 1 619     -46.537 140.173   9.689  1.00 34.54     0.007 C 
HETATM   33  C31 VFQ 1 619     -45.977 138.988   9.051  1.00 34.54     0.001 C 
HETATM   34  C32 VFQ 1 619     -44.655 138.867   9.070  1.00 34.54     0.007 C 
HETATM   35  C33 VFQ 1 619     -43.968 137.718   8.462  1.00 34.54    -0.062 C 
HETATM   36  C34 VFQ 1 619     -42.671 137.553   8.732  1.00 34.54     0.007 C 
HETATM   37  C35 VFQ 1 619     -41.908 136.449   8.172  1.00 34.54     0.001 C 
HETATM   38  C36 VFQ 1 619     -51.703 142.150  11.855  1.00 61.00     0.020 C 
HETATM   39  C37 VFQ 1 619     -49.810 143.036  13.197  1.00 61.00     0.020 C 
HETATM   40  C38 VFQ 1 619     -48.982 144.797   8.886  1.00 61.00     0.044 C 
HETATM   41  C39 VFQ 1 619     -48.811 139.554   8.943  1.00 34.54     0.048 C 
HETATM   42  C40 VFQ 1 619     -44.705 136.765   7.567  1.00 34.54     0.048 C 
HETATM   43  O23 VFQ 1 619     -51.734 146.935  12.306  1.00 61.00    -0.395 OA
ATOM     44  H23 VFQ 1 619     -51.677 147.700  11.746  1.00  0.00     0.210 HD
ENDROOT
TORSDOF 12
BEGIN_RES PHE A  61
REMARK  2 active torsions:
REMARK  status: ('A' for Active; 'I' for Inactive)
REMARK    1  A    between atoms: CA   and  CB  
REMARK    2  A    between atoms: CB   and  CG  
ROOT
ATOM      1  CA  PHE A  61     -36.237 128.293  12.768  1.00 39.40     0.164 C 
ENDROOT
BRANCH   1   2
ATOM      2  CB  PHE A  61     -36.813 128.951  11.509  1.00 39.41     0.058 C 
BRANCH   2   3
ATOM      3  CG  PHE A  61     -37.091 127.993  10.376  1.00 39.01    -0.020 A 
ATOM      4  CD2 PHE A  61     -36.343 126.836  10.221  1.00 40.32    -0.004 A 
ATOM      5  CE2 PHE A  61     -36.598 125.957   9.176  1.00 40.20    -0.000 A 
ATOM      6  CZ  PHE A  61     -37.605 126.222   8.277  1.00 40.34    -0.000 A 
ATOM      7  CE1 PHE A  61     -38.360 127.366   8.418  1.00 41.51    -0.000 A 
ATOM      8  CD1 PHE A  61     -38.101 128.248   9.459  1.00 39.94    -0.004 A 
ENDBRANCH   2   3
ENDBRANCH   1   2
END_RES PHE A  61
BEGIN_RES VAL A 134
REMARK  1 active torsions:
REMARK  status: ('A' for Active; 'I' for Inactive)
REMARK    3  A    between atoms: CA   and  CB  
ROOT
ATOM      9  CA  VAL A 134     -29.766 132.051   9.815  1.00 40.75     0.159 C 
ENDROOT
BRANCH   9  10
ATOM     10  CB  VAL A 134     -30.864 132.765   9.009  1.00 40.76     0.029 C 
ATOM     11  CG1 VAL A 134     -30.883 132.271   7.570  1.00 41.76     0.002 C 
ATOM     12  CG2 VAL A 134     -32.231 132.600   9.655  1.00 40.56     0.002 C 
ENDBRANCH   9  10
END_RES VAL A 134
BEGIN_RES TYR A 338
REMARK  3 active torsions:
REMARK  status: ('A' for Active; 'I' for Inactive)
REMARK    4  A    between atoms: CA   and  CB  
REMARK    5  A    between atoms: CB   and  CG  
REMARK    6  A    between atoms: CZ   and  OH  
ROOT
ATOM     13  CA  TYR A 338     -41.631 124.950   6.058  1.00 38.23     0.164 C 
ENDROOT
BRANCH  13  14
ATOM     14  CB  TYR A 338     -41.621 126.456   6.339  1.00 39.15     0.058 C 
BRANCH  14  15
ATOM     15  CG  TYR A 338     -40.398 127.205   5.860  1.00 39.03    -0.020 A 
ATOM     16  CD2 TYR A 338     -40.213 128.534   6.200  1.00 40.65    -0.002 A 
ATOM     17  CE2 TYR A 338     -39.112 129.255   5.766  1.00 40.91     0.024 A 
ATOM     18  CZ  TYR A 338     -38.163 128.645   4.968  1.00 42.33     0.089 A 
ATOM     19  CE1 TYR A 338     -38.323 127.316   4.618  1.00 40.63     0.024 A 
ATOM     20  CD1 TYR A 338     -39.438 126.615   5.052  1.00 39.27    -0.002 A 
BRANCH  18  21
ATOM     21  OH  TYR A 338     -37.071 129.346   4.537  1.00 43.36    -0.359 OA
ATOM     22  HH  TYR A 338     -37.010 130.281   4.689  1.00  0.00     0.217 HD
ENDBRANCH  18  21
ENDBRANCH  14  15
ENDBRANCH  13  14
END_RES TYR A 338
ENDMDL
