MODEL 1
REMARK VINA RESULT:    -9.493      0.000      0.000
REMARK INTER + INTRA:          -9.701
REMARK INTER:                  -9.493
REMARK INTRA:                  -0.207
REMARK UNBOUND:                -0.207
REMARK  0 active torsions:
REMARK  status: ('A' for Active; 'I' for Inactive)
REMARK       I    between atoms: C3_3  and  O3_21 
REMARK       I    between atoms: C6_6  and  C7_7 
REMARK       I    between atoms: C8_8  and  C9_9 
REMARK       I    between atoms: C10_10  and  C11_11 
REMARK       I    between atoms: C12_12  and  C13_13 
REMARK       I    between atoms: C14_14  and  C15_15 
REMARK       I    between atoms: C23_25  and  O23_43 
REMARK       I    between atoms: C26_28  and  C27_29 
REMARK       I    between atoms: C28_30  and  C29_31 
REMARK       I    between atoms: C30_32  and  C31_33 
REMARK       I    between atoms: C32_34  and  C33_35 
REMARK       I    between atoms: C34_36  and  C35_37 
ROOT
HETATM    1  C1  VFQ 1 617     -50.274 144.614  11.217  1.00 38.90    -0.018 C 
HETATM    2  C2  VFQ 1 617     -50.457 144.240  12.686  1.00 38.90     0.045 C 
HETATM    3  C3  VFQ 1 617     -49.628 145.051  13.678  1.00 38.90     0.123 C 
HETATM    4  C4  VFQ 1 617     -49.215 146.374  13.063  1.00 38.90     0.066 C 
HETATM    5  C5  VFQ 1 617     -48.380 146.026  11.866  1.00 38.90    -0.074 C 
HETATM    6  C6  VFQ 1 617     -48.937 145.256  10.927  1.00 38.90    -0.048 C 
HETATM    7  C7  VFQ 1 617     -48.182 144.843   9.732  1.00 38.90     0.009 C 
HETATM    8  C8  VFQ 1 617     -46.963 144.391  10.020  1.00 38.90     0.007 C 
HETATM    9  C9  VFQ 1 617     -46.116 143.746   9.001  1.00 38.90    -0.062 C 
HETATM   10  C10 VFQ 1 617     -45.104 143.006   9.470  1.00 38.90     0.007 C 
HETATM   11  C11 VFQ 1 617     -44.228 142.188   8.637  1.00 38.90     0.001 C 
HETATM   12  C12 VFQ 1 617     -43.408 141.329   9.230  1.00 38.90     0.007 C 
HETATM   13  C13 VFQ 1 617     -42.550 140.407   8.468  1.00 38.90    -0.062 C 
HETATM   14  C14 VFQ 1 617     -41.909 139.469   9.180  1.00 38.90     0.007 C 
HETATM   15  C15 VFQ 1 617     -41.039 138.440   8.622  1.00 38.90     0.001 C 
HETATM   16  C16 VFQ 1 617     -51.331 145.648  10.836  1.00 38.90     0.020 C 
HETATM   17  C17 VFQ 1 617     -50.439 143.380  10.340  1.00 38.90     0.020 C 
HETATM   18  C18 VFQ 1 617     -47.243 146.981  11.591  1.00 38.90     0.044 C 
HETATM   19  C19 VFQ 1 617     -46.431 143.896   7.540  1.00 38.90     0.048 C 
HETATM   20  C20 VFQ 1 617     -42.466 140.542   6.976  1.00 38.90     0.048 C 
HETATM   21  O3  VFQ 1 617     -50.389 145.307  14.861  1.00 38.90    -0.395 OA
ATOM     22  H3  VFQ 1 617     -49.873 145.812  15.478  1.00  0.00     0.210 HD
HETATM   23  C21 VFQ 1 617     -34.050 128.207   7.039  1.00 66.29    -0.018 C 
HETATM   24  C22 VFQ 1 617     -33.072 127.310   6.290  1.00 66.29     0.045 C 
HETATM   25  C23 VFQ 1 617     -31.651 127.814   6.080  1.00 66.29     0.123 C 
HETATM   26  C24 VFQ 1 617     -31.613 129.319   5.930  1.00 66.29     0.066 C 
HETATM   27  C25 VFQ 1 617     -32.275 129.952   7.117  1.00 66.29    -0.074 C 
HETATM   28  C26 VFQ 1 617     -33.442 129.489   7.581  1.00 66.29    -0.048 C 
HETATM   29  C27 VFQ 1 617     -34.167 130.212   8.656  1.00 66.29     0.009 C 
HETATM   30  C28 VFQ 1 617     -35.021 131.201   8.380  1.00 66.29     0.007 C 
HETATM   31  C29 VFQ 1 617     -35.762 131.926   9.423  1.00 38.90    -0.062 C 
HETATM   32  C30 VFQ 1 617     -36.600 132.858   8.955  1.00 38.90     0.007 C 
HETATM   33  C31 VFQ 1 617     -37.447 133.723   9.761  1.00 38.90     0.001 C 
HETATM   34  C32 VFQ 1 617     -38.165 134.621   9.099  1.00 38.90     0.007 C 
HETATM   35  C33 VFQ 1 617     -39.040 135.597   9.765  1.00 38.90    -0.062 C 
HETATM   36  C34 VFQ 1 617     -39.627 136.513   8.975  1.00 38.90     0.007 C 
HETATM   37  C35 VFQ 1 617     -40.506 137.569   9.465  1.00 38.90     0.001 C 
HETATM   38  C36 VFQ 1 617     -34.587 127.411   8.218  1.00 66.29     0.020 C 
HETATM   39  C37 VFQ 1 617     -35.207 128.509   6.095  1.00 66.29     0.020 C 
HETATM   40  C38 VFQ 1 617     -31.557 131.108   7.749  1.00 66.29     0.044 C 
HETATM   41  C39 VFQ 1 617     -35.580 131.584  10.872  1.00 38.90     0.048 C 
HETATM   42  C40 VFQ 1 617     -39.194 135.528  11.254  1.00 38.90     0.048 C 
HETATM   43  O23 VFQ 1 617     -31.132 127.222   4.885  1.00 66.29    -0.395 OA
ATOM     44  H23 VFQ 1 617     -30.245 127.537   4.754  1.00  0.00     0.210 HD
ENDROOT
TORSDOF 12
BEGIN_RES PHE A  61
REMARK  2 active torsions:
REMARK  status: ('A' for Active; 'I' for Inactive)
REMARK    1  A    between atoms: CA   and  CB  
REMARK    2  A    between atoms: CB   and  CG  
ROOT
ATOM      1  CA  PHE A  61     -36.237 128.293  12.768  1.00 39.40     0.164 C 
ENDROOT
BRANCH   1   2
ATOM      2  CB  PHE A  61     -36.813 128.951  11.509  1.00 39.41     0.058 C 
BRANCH   2   3
ATOM      3  CG  PHE A  61     -37.024 128.005  10.351  1.00 39.01    -0.020 A 
ATOM      4  CD2 PHE A  61     -36.320 126.814  10.267  1.00 40.32    -0.004 A 
ATOM      5  CE2 PHE A  61     -36.513 125.946   9.200  1.00 40.20    -0.000 A 
ATOM      6  CZ  PHE A  61     -37.415 126.256   8.208  1.00 40.34    -0.000 A 
ATOM      7  CE1 PHE A  61     -38.125 127.434   8.278  1.00 41.51    -0.000 A 
ATOM      8  CD1 PHE A  61     -37.927 128.306   9.341  1.00 39.94    -0.004 A 
ENDBRANCH   2   3
ENDBRANCH   1   2
END_RES PHE A  61
BEGIN_RES VAL A 134
REMARK  1 active torsions:
REMARK  status: ('A' for Active; 'I' for Inactive)
REMARK    3  A    between atoms: CA   and  CB  
ROOT
ATOM      9  CA  VAL A 134     -29.766 132.051   9.815  1.00 40.75     0.159 C 
ENDROOT
BRANCH   9  10
ATOM     10  CB  VAL A 134     -30.864 132.765   9.009  1.00 40.76     0.029 C 
ATOM     11  CG1 VAL A 134     -32.106 132.977   9.862  1.00 41.76     0.002 C 
ATOM     12  CG2 VAL A 134     -30.371 134.084   8.435  1.00 40.56     0.002 C 
ENDBRANCH   9  10
END_RES VAL A 134
BEGIN_RES TYR A 338
REMARK  3 active torsions:
REMARK  status: ('A' for Active; 'I' for Inactive)
REMARK    4  A    between atoms: CA   and  CB  
REMARK    5  A    between atoms: CB   and  CG  
REMARK    6  A    between atoms: CZ   and  OH  
ROOT
ATOM     13  CA  TYR A 338     -41.631 124.950   6.058  1.00 38.23     0.164 C 
ENDROOT
BRANCH  13  14
ATOM     14  CB  TYR A 338     -41.621 126.456   6.339  1.00 39.15     0.058 C 
BRANCH  14  15
ATOM     15  CG  TYR A 338     -40.423 127.213   5.815  1.00 39.03    -0.020 A 
ATOM     16  CD2 TYR A 338     -40.267 128.560   6.096  1.00 40.65    -0.002 A 
ATOM     17  CE2 TYR A 338     -39.189 129.289   5.618  1.00 40.91     0.024 A 
ATOM     18  CZ  TYR A 338     -38.233 128.669   4.836  1.00 42.33     0.089 A 
ATOM     19  CE1 TYR A 338     -38.364 127.322   4.546  1.00 40.63     0.024 A 
ATOM     20  CD1 TYR A 338     -39.457 126.614   5.022  1.00 39.27    -0.002 A 
BRANCH  18  21
ATOM     21  OH  TYR A 338     -37.163 129.377   4.364  1.00 43.36    -0.359 OA
ATOM     22  HH  TYR A 338     -36.926 130.208   4.757  1.00  0.00     0.217 HD
ENDBRANCH  18  21
ENDBRANCH  14  15
ENDBRANCH  13  14
END_RES TYR A 338
ENDMDL
MODEL 2
REMARK VINA RESULT:    -9.315      1.161     16.467
REMARK INTER + INTRA:          -9.522
REMARK INTER:                  -7.181
REMARK INTRA:                  -2.342
REMARK UNBOUND:                -0.207
REMARK  0 active torsions:
REMARK  status: ('A' for Active; 'I' for Inactive)
REMARK       I    between atoms: C3_3  and  O3_21 
REMARK       I    between atoms: C6_6  and  C7_7 
REMARK       I    between atoms: C8_8  and  C9_9 
REMARK       I    between atoms: C10_10  and  C11_11 
REMARK       I    between atoms: C12_12  and  C13_13 
REMARK       I    between atoms: C14_14  and  C15_15 
REMARK       I    between atoms: C23_25  and  O23_43 
REMARK       I    between atoms: C26_28  and  C27_29 
REMARK       I    between atoms: C28_30  and  C29_31 
REMARK       I    between atoms: C30_32  and  C31_33 
REMARK       I    between atoms: C32_34  and  C33_35 
REMARK       I    between atoms: C34_36  and  C35_37 
ROOT
HETATM    1  C1  VFQ 1 617     -34.218 127.086   6.565  1.00 38.90    -0.018 C 
HETATM    2  C2  VFQ 1 617     -34.228 127.201   5.042  1.00 38.90     0.045 C 
HETATM    3  C3  VFQ 1 617     -33.122 128.065   4.443  1.00 38.90     0.123 C 
HETATM    4  C4  VFQ 1 617     -31.962 128.186   5.413  1.00 38.90     0.066 C 
HETATM    5  C5  VFQ 1 617     -32.520 128.851   6.637  1.00 38.90    -0.074 C 
HETATM    6  C6  VFQ 1 617     -33.549 128.256   7.247  1.00 38.90    -0.048 C 
HETATM    7  C7  VFQ 1 617     -34.176 128.852   8.440  1.00 38.90     0.009 C 
HETATM    8  C8  VFQ 1 617     -34.428 130.152   8.297  1.00 38.90     0.007 C 
HETATM    9  C9  VFQ 1 617     -35.227 130.899   9.285  1.00 38.90    -0.062 C 
HETATM   10  C10 VFQ 1 617     -35.730 132.066   8.864  1.00 38.90     0.007 C 
HETATM   11  C11 VFQ 1 617     -36.646 132.894   9.641  1.00 38.90     0.001 C 
HETATM   12  C12 VFQ 1 617     -37.250 133.911   9.037  1.00 38.90     0.007 C 
HETATM   13  C13 VFQ 1 617     -38.250 134.747   9.719  1.00 38.90    -0.062 C 
HETATM   14  C14 VFQ 1 617     -38.917 135.620   8.949  1.00 38.90     0.007 C 
HETATM   15  C15 VFQ 1 617     -39.969 136.517   9.414  1.00 38.90     0.001 C 
HETATM   16  C16 VFQ 1 617     -33.413 125.850   6.961  1.00 38.90     0.020 C 
HETATM   17  C17 VFQ 1 617     -35.642 126.948   7.087  1.00 38.90     0.020 C 
HETATM   18  C18 VFQ 1 617     -31.564 129.787   7.337  1.00 38.90     0.044 C 
HETATM   19  C19 VFQ 1 617     -35.477 130.329  10.652  1.00 38.90     0.048 C 
HETATM   20  C20 VFQ 1 617     -38.485 134.565  11.189  1.00 38.90     0.048 C 
HETATM   21  O3  VFQ 1 617     -32.649 127.482   3.226  1.00 38.90    -0.395 OA
ATOM     22  H3  VFQ 1 617     -31.960 128.020   2.852  1.00  0.00     0.210 HD
HETATM   23  C21 VFQ 1 617     -49.586 144.474   9.932  1.00 66.29    -0.018 C 
HETATM   24  C22 VFQ 1 617     -50.547 145.428  10.630  1.00 66.29     0.045 C 
HETATM   25  C23 VFQ 1 617     -49.984 146.712  11.221  1.00 66.29     0.123 C 
HETATM   26  C24 VFQ 1 617     -48.568 146.520  11.716  1.00 66.29     0.066 C 
HETATM   27  C25 VFQ 1 617     -47.721 145.983  10.601  1.00 66.29    -0.074 C 
HETATM   28  C26 VFQ 1 617     -48.159 144.984   9.827  1.00 66.29    -0.048 C 
HETATM   29  C27 VFQ 1 617     -47.260 144.355   8.826  1.00 66.29     0.009 C 
HETATM   30  C28 VFQ 1 617     -46.454 143.341   9.150  1.00 66.29     0.007 C 
HETATM   31  C29 VFQ 1 617     -45.562 142.691   8.179  1.00 38.90    -0.062 C 
HETATM   32  C30 VFQ 1 617     -44.858 141.668   8.676  1.00 38.90     0.007 C 
HETATM   33  C31 VFQ 1 617     -43.900 140.856   7.941  1.00 38.90     0.001 C 
HETATM   34  C32 VFQ 1 617     -43.267 139.923   8.640  1.00 38.90     0.007 C 
HETATM   35  C33 VFQ 1 617     -42.240 139.046   8.059  1.00 38.90    -0.062 C 
HETATM   36  C34 VFQ 1 617     -41.608 138.217   8.909  1.00 38.90     0.007 C 
HETATM   37  C35 VFQ 1 617     -40.548 137.296   8.513  1.00 38.90     0.001 C 
HETATM   38  C36 VFQ 1 617     -50.108 144.253   8.521  1.00 66.29     0.020 C 
HETATM   39  C37 VFQ 1 617     -49.637 143.147  10.677  1.00 66.29     0.020 C 
HETATM   40  C38 VFQ 1 617     -46.383 146.632  10.402  1.00 66.29     0.044 C 
HETATM   41  C39 VFQ 1 617     -45.512 143.155   6.753  1.00 38.90     0.048 C 
HETATM   42  C40 VFQ 1 617     -41.948 139.151   6.592  1.00 38.90     0.048 C 
HETATM   43  O23 VFQ 1 617     -50.806 147.102  12.326  1.00 66.29    -0.395 OA
ATOM     44  H23 VFQ 1 617     -50.454 147.904  12.695  1.00  0.00     0.210 HD
ENDROOT
TORSDOF 12
BEGIN_RES PHE A  61
REMARK  2 active torsions:
REMARK  status: ('A' for Active; 'I' for Inactive)
REMARK    1  A    between atoms: CA   and  CB  
REMARK    2  A    between atoms: CB   and  CG  
ROOT
ATOM      1  CA  PHE A  61     -36.237 128.293  12.768  1.00 39.40     0.164 C 
ENDROOT
BRANCH   1   2
ATOM      2  CB  PHE A  61     -36.813 128.951  11.509  1.00 39.41     0.058 C 
BRANCH   2   3
ATOM      3  CG  PHE A  61     -37.106 127.991  10.381  1.00 39.01    -0.020 A 
ATOM      4  CD2 PHE A  61     -36.396 126.808  10.251  1.00 40.32    -0.004 A 
ATOM      5  CE2 PHE A  61     -36.664 125.926   9.211  1.00 40.20    -0.000 A 
ATOM      6  CZ  PHE A  61     -37.648 126.216   8.293  1.00 40.34    -0.000 A 
ATOM      7  CE1 PHE A  61     -38.365 127.386   8.410  1.00 41.51    -0.000 A 
ATOM      8  CD1 PHE A  61     -38.092 128.270   9.446  1.00 39.94    -0.004 A 
ENDBRANCH   2   3
ENDBRANCH   1   2
END_RES PHE A  61
BEGIN_RES VAL A 134
REMARK  1 active torsions:
REMARK  status: ('A' for Active; 'I' for Inactive)
REMARK    3  A    between atoms: CA   and  CB  
ROOT
ATOM      9  CA  VAL A 134     -29.766 132.051   9.815  1.00 40.75     0.159 C 
ENDROOT
BRANCH   9  10
ATOM     10  CB  VAL A 134     -30.864 132.765   9.009  1.00 40.76     0.029 C 
ATOM     11  CG1 VAL A 134     -30.930 132.220   7.590  1.00 41.76     0.002 C 
ATOM     12  CG2 VAL A 134     -32.219 132.661   9.692  1.00 40.56     0.002 C 
ENDBRANCH   9  10
END_RES VAL A 134
BEGIN_RES TYR A 338
REMARK  3 active torsions:
REMARK  status: ('A' for Active; 'I' for Inactive)
REMARK    4  A    between atoms: CA   and  CB  
REMARK    5  A    between atoms: CB   and  CG  
REMARK    6  A    between atoms: CZ   and  OH  
ROOT
ATOM     13  CA  TYR A 338     -41.631 124.950   6.058  1.00 38.23     0.164 C 
ENDROOT
BRANCH  13  14
ATOM     14  CB  TYR A 338     -41.621 126.456   6.339  1.00 39.15     0.058 C 
BRANCH  14  15
ATOM     15  CG  TYR A 338     -40.395 127.203   5.867  1.00 39.03    -0.020 A 
ATOM     16  CD2 TYR A 338     -40.231 128.544   6.171  1.00 40.65    -0.002 A 
ATOM     17  CE2 TYR A 338     -39.127 129.264   5.742  1.00 40.91     0.024 A 
ATOM     18  CZ  TYR A 338     -38.153 128.641   4.985  1.00 42.33     0.089 A 
ATOM     19  CE1 TYR A 338     -38.292 127.300   4.673  1.00 40.63     0.024 A 
ATOM     20  CD1 TYR A 338     -39.410 126.601   5.101  1.00 39.27    -0.002 A 
BRANCH  18  21
ATOM     21  OH  TYR A 338     -37.058 129.340   4.560  1.00 43.36    -0.359 OA
ATOM     22  HH  TYR A 338     -36.183 129.001   4.711  1.00  0.00     0.217 HD
ENDBRANCH  18  21
ENDBRANCH  14  15
ENDBRANCH  13  14
END_RES TYR A 338
ENDMDL
MODEL 3
REMARK VINA RESULT:    -6.962      3.049      4.698
REMARK INTER + INTRA:          -7.169
REMARK INTER:                  -2.854
REMARK INTRA:                  -4.315
REMARK UNBOUND:                -0.207
REMARK  0 active torsions:
REMARK  status: ('A' for Active; 'I' for Inactive)
REMARK       I    between atoms: C3_3  and  O3_21 
REMARK       I    between atoms: C6_6  and  C7_7 
REMARK       I    between atoms: C8_8  and  C9_9 
REMARK       I    between atoms: C10_10  and  C11_11 
REMARK       I    between atoms: C12_12  and  C13_13 
REMARK       I    between atoms: C14_14  and  C15_15 
REMARK       I    between atoms: C23_25  and  O23_43 
REMARK       I    between atoms: C26_28  and  C27_29 
REMARK       I    between atoms: C28_30  and  C29_31 
REMARK       I    between atoms: C30_32  and  C31_33 
REMARK       I    between atoms: C32_34  and  C33_35 
REMARK       I    between atoms: C34_36  and  C35_37 
ROOT
HETATM    1  C1  VFQ 1 617     -49.689 149.942   6.704  1.00 38.90    -0.018 C 
HETATM    2  C2  VFQ 1 617     -50.368 149.400   5.447  1.00 38.90     0.045 C 
HETATM    3  C3  VFQ 1 617     -51.636 148.586   5.686  1.00 38.90     0.123 C 
HETATM    4  C4  VFQ 1 617     -52.237 148.928   7.036  1.00 38.90     0.066 C 
HETATM    5  C5  VFQ 1 617     -51.196 148.559   8.052  1.00 38.90    -0.074 C 
HETATM    6  C6  VFQ 1 617     -49.995 149.133   7.942  1.00 38.90    -0.048 C 
HETATM    7  C7  VFQ 1 617     -48.906 148.809   8.880  1.00 38.90     0.009 C 
HETATM    8  C8  VFQ 1 617     -48.762 147.500   9.073  1.00 38.90     0.007 C 
HETATM    9  C9  VFQ 1 617     -47.613 146.948   9.814  1.00 38.90    -0.062 C 
HETATM   10  C10 VFQ 1 617     -47.369 145.645   9.623  1.00 38.90     0.007 C 
HETATM   11  C11 VFQ 1 617     -46.213 144.938  10.162  1.00 38.90     0.001 C 
HETATM   12  C12 VFQ 1 617     -45.959 143.711   9.724  1.00 38.90     0.007 C 
HETATM   13  C13 VFQ 1 617     -44.769 142.956  10.150  1.00 38.90    -0.062 C 
HETATM   14  C14 VFQ 1 617     -44.532 141.808   9.499  1.00 38.90     0.007 C 
HETATM   15  C15 VFQ 1 617     -43.395 140.926   9.739  1.00 38.90     0.001 C 
HETATM   16  C16 VFQ 1 617     -50.213 151.350   6.979  1.00 38.90     0.020 C 
HETATM   17  C17 VFQ 1 617     -48.181 149.997   6.499  1.00 38.90     0.020 C 
HETATM   18  C18 VFQ 1 617     -51.746 148.022   9.352  1.00 38.90     0.044 C 
HETATM   19  C19 VFQ 1 617     -46.767 147.835  10.682  1.00 38.90     0.048 C 
HETATM   20  C20 VFQ 1 617     -43.895 143.508  11.237  1.00 38.90     0.048 C 
HETATM   21  O3  VFQ 1 617     -52.599 148.867   4.667  1.00 38.90    -0.395 OA
ATOM     22  H3  VFQ 1 617     -53.389 148.360   4.815  1.00  0.00     0.210 HD
HETATM   23  C21 VFQ 1 617     -34.679 132.037   8.691  1.00 66.29    -0.018 C 
HETATM   24  C22 VFQ 1 617     -33.519 131.182   9.184  1.00 66.29     0.045 C 
HETATM   25  C23 VFQ 1 617     -33.773 130.223  10.338  1.00 66.29     0.123 C 
HETATM   26  C24 VFQ 1 617     -34.812 130.767  11.294  1.00 66.29     0.066 C 
HETATM   27  C25 VFQ 1 617     -36.062 131.091  10.533  1.00 66.29    -0.074 C 
HETATM   28  C26 VFQ 1 617     -36.007 131.749   9.369  1.00 66.29    -0.048 C 
HETATM   29  C27 VFQ 1 617     -37.252 132.201   8.698  1.00 66.29     0.009 C 
HETATM   30  C28 VFQ 1 617     -37.813 133.379   8.985  1.00 66.29     0.007 C 
HETATM   31  C29 VFQ 1 617     -39.038 133.858   8.328  1.00 38.90    -0.062 C 
HETATM   32  C30 VFQ 1 617     -39.429 135.077   8.716  1.00 38.90     0.007 C 
HETATM   33  C31 VFQ 1 617     -40.605 135.787   8.235  1.00 38.90     0.001 C 
HETATM   34  C32 VFQ 1 617     -40.844 136.967   8.793  1.00 38.90     0.007 C 
HETATM   35  C33 VFQ 1 617     -42.011 137.793   8.451  1.00 38.90    -0.062 C 
HETATM   36  C34 VFQ 1 617     -42.181 138.917   9.169  1.00 38.90     0.007 C 
HETATM   37  C35 VFQ 1 617     -43.293 139.842   8.984  1.00 38.90     0.001 C 
HETATM   38  C36 VFQ 1 617     -34.846 131.765   7.204  1.00 66.29     0.020 C 
HETATM   39  C37 VFQ 1 617     -34.281 133.496   8.871  1.00 66.29     0.020 C 
HETATM   40  C38 VFQ 1 617     -37.355 130.631  11.140  1.00 66.29     0.044 C 
HETATM   41  C39 VFQ 1 617     -39.731 133.023   7.292  1.00 38.90     0.048 C 
HETATM   42  C40 VFQ 1 617     -42.933 137.324   7.366  1.00 38.90     0.048 C 
HETATM   43  O23 VFQ 1 617     -32.546 130.038  11.053  1.00 66.29    -0.395 OA
ATOM     44  H23 VFQ 1 617     -32.705 129.439  11.773  1.00  0.00     0.210 HD
ENDROOT
TORSDOF 12
BEGIN_RES PHE A  61
REMARK  2 active torsions:
REMARK  status: ('A' for Active; 'I' for Inactive)
REMARK    1  A    between atoms: CA   and  CB  
REMARK    2  A    between atoms: CB   and  CG  
ROOT
ATOM      1  CA  PHE A  61     -36.237 128.293  12.768  1.00 39.40     0.164 C 
ENDROOT
BRANCH   1   2
ATOM      2  CB  PHE A  61     -36.813 128.951  11.509  1.00 39.41     0.058 C 
BRANCH   2   3
ATOM      3  CG  PHE A  61     -36.617 128.153  10.242  1.00 39.01    -0.020 A 
ATOM      4  CD2 PHE A  61     -35.400 127.553   9.960  1.00 40.32    -0.004 A 
ATOM      5  CE2 PHE A  61     -35.221 126.821   8.793  1.00 40.20    -0.000 A 
ATOM      6  CZ  PHE A  61     -36.256 126.678   7.898  1.00 40.34    -0.000 A 
ATOM      7  CE1 PHE A  61     -37.472 127.266   8.164  1.00 41.51    -0.000 A 
ATOM      8  CD1 PHE A  61     -37.650 128.003   9.328  1.00 39.94    -0.004 A 
ENDBRANCH   2   3
ENDBRANCH   1   2
END_RES PHE A  61
BEGIN_RES VAL A 134
REMARK  1 active torsions:
REMARK  status: ('A' for Active; 'I' for Inactive)
REMARK    3  A    between atoms: CA   and  CB  
ROOT
ATOM      9  CA  VAL A 134     -29.766 132.051   9.815  1.00 40.75     0.159 C 
ENDROOT
BRANCH   9  10
ATOM     10  CB  VAL A 134     -30.864 132.765   9.009  1.00 40.76     0.029 C 
ATOM     11  CG1 VAL A 134     -30.485 134.216   8.751  1.00 41.76     0.002 C 
ATOM     12  CG2 VAL A 134     -31.161 132.043   7.703  1.00 40.56     0.002 C 
ENDBRANCH   9  10
END_RES VAL A 134
BEGIN_RES TYR A 338
REMARK  3 active torsions:
REMARK  status: ('A' for Active; 'I' for Inactive)
REMARK    4  A    between atoms: CA   and  CB  
REMARK    5  A    between atoms: CB   and  CG  
REMARK    6  A    between atoms: CZ   and  OH  
ROOT
ATOM     13  CA  TYR A 338     -41.631 124.950   6.058  1.00 38.23     0.164 C 
ENDROOT
BRANCH  13  14
ATOM     14  CB  TYR A 338     -41.621 126.456   6.339  1.00 39.15     0.058 C 
BRANCH  14  15
ATOM     15  CG  TYR A 338     -40.386 127.200   5.886  1.00 39.03    -0.020 A 
ATOM     16  CD2 TYR A 338     -40.207 128.531   6.221  1.00 40.65    -0.002 A 
ATOM     17  CE2 TYR A 338     -39.095 129.248   5.809  1.00 40.91     0.024 A 
ATOM     18  CZ  TYR A 338     -38.127 128.631   5.039  1.00 42.33     0.089 A 
ATOM     19  CE1 TYR A 338     -38.280 127.300   4.695  1.00 40.63     0.024 A 
ATOM     20  CD1 TYR A 338     -39.407 126.604   5.106  1.00 39.27    -0.002 A 
BRANCH  18  21
ATOM     21  OH  TYR A 338     -37.023 129.327   4.631  1.00 43.36    -0.359 OA
ATOM     22  HH  TYR A 338     -37.063 130.270   4.521  1.00  0.00     0.217 HD
ENDBRANCH  18  21
ENDBRANCH  14  15
ENDBRANCH  13  14
END_RES TYR A 338
ENDMDL
