MODEL 1
REMARK VINA RESULT:    -9.335      0.000      0.000
REMARK INTER + INTRA:         -11.984
REMARK INTER:                  -9.335
REMARK INTRA:                  -2.649
REMARK UNBOUND:                -2.649
REMARK  0 active torsions:
REMARK  status: ('A' for Active; 'I' for Inactive)
REMARK       I    between atoms: C3_3  and  O3_21 
REMARK       I    between atoms: C6_6  and  C7_7 
REMARK       I    between atoms: C8_8  and  C9_9 
REMARK       I    between atoms: C10_10  and  C11_11 
REMARK       I    between atoms: C12_12  and  C13_13 
REMARK       I    between atoms: C14_14  and  C15_15 
REMARK       I    between atoms: C23_25  and  O23_43 
REMARK       I    between atoms: C26_28  and  C27_29 
REMARK       I    between atoms: C28_30  and  C29_31 
REMARK       I    between atoms: C30_32  and  C31_33 
REMARK       I    between atoms: C32_34  and  C33_35 
REMARK       I    between atoms: C34_36  and  C35_37 
ROOT
HETATM    1  C1  VFQ 1 316     -34.417 126.945   6.384  1.00 73.24    -0.018 C 
HETATM    2  C2  VFQ 1 316     -33.987 126.347   5.042  1.00 72.84     0.045 C 
HETATM    3  C3  VFQ 1 316     -32.911 127.100   4.270  1.00 72.53     0.123 C 
HETATM    4  C4  VFQ 1 316     -31.828 127.580   5.217  1.00 72.61     0.066 C 
HETATM    5  C5  VFQ 1 316     -32.443 128.468   6.266  1.00 72.68    -0.074 C 
HETATM    6  C6  VFQ 1 316     -33.593 128.133   6.852  1.00 72.79    -0.048 C 
HETATM    7  C7  VFQ 1 316     -34.096 128.940   7.990  1.00 71.90     0.009 C 
HETATM    8  C8  VFQ 1 316     -34.792 130.059   7.772  1.00 71.51     0.007 C 
HETATM    9  C9  VFQ 1 316     -35.322 130.901   8.865  1.00 70.48    -0.062 C 
HETATM   10  C10 VFQ 1 316     -36.060 131.972   8.535  1.00 69.46     0.007 C 
HETATM   11  C11 VFQ 1 316     -36.660 132.897   9.494  1.00 69.85     0.001 C 
HETATM   12  C12 VFQ 1 316     -37.388 133.889   8.982  1.00 72.15     0.007 C 
HETATM   13  C13 VFQ 1 316     -38.088 134.914   9.786  1.00 73.74    -0.062 C 
HETATM   14  C14 VFQ 1 316     -38.984 135.696   9.157  1.00 74.04     0.007 C 
HETATM   15  C15 VFQ 1 316     -39.763 136.730   9.836  1.00 74.62     0.001 C 
HETATM   16  C16 VFQ 1 316     -34.327 125.850   7.439  1.00 72.68     0.020 C 
HETATM   17  C17 VFQ 1 316     -35.864 127.407   6.259  1.00 73.05     0.020 C 
HETATM   18  C18 VFQ 1 316     -31.564 129.531   6.859  1.00 72.13     0.044 C 
HETATM   19  C19 VFQ 1 316     -35.035 130.570  10.299  1.00 70.45     0.048 C 
HETATM   20  C20 VFQ 1 316     -37.803 135.078  11.252  1.00 72.89     0.048 C 
HETATM   21  O3  VFQ 1 316     -32.329 126.228   3.291  1.00 71.04    -0.395 OA
ATOM     22  H3  VFQ 1 316     -33.008 125.928   2.698  1.00  0.00     0.210 HD
HETATM   23  C21 VFQ 1 316     -49.407 144.849  12.057  1.00 73.56    -0.018 C 
HETATM   24  C22 VFQ 1 316     -50.154 145.919  12.857  1.00 73.56     0.045 C 
HETATM   25  C23 VFQ 1 316     -49.432 147.229  13.167  1.00 73.56     0.123 C 
HETATM   26  C24 VFQ 1 316     -47.933 147.020  13.306  1.00 73.56     0.066 C 
HETATM   27  C25 VFQ 1 316     -47.445 146.385  12.032  1.00 73.56    -0.074 C 
HETATM   28  C26 VFQ 1 316     -48.027 145.272  11.573  1.00 73.56    -0.048 C 
HETATM   29  C27 VFQ 1 316     -47.343 144.444  10.549  1.00 73.56     0.009 C 
HETATM   30  C28 VFQ 1 316     -46.434 143.515  10.860  1.00 73.56     0.007 C 
HETATM   31  C29 VFQ 1 316     -45.769 142.703   9.819  1.00 94.72    -0.062 C 
HETATM   32  C30 VFQ 1 316     -44.882 141.783  10.222  1.00 91.32     0.007 C 
HETATM   33  C31 VFQ 1 316     -44.161 140.893   9.315  1.00 87.88     0.001 C 
HETATM   34  C32 VFQ 1 316     -43.233 140.116   9.866  1.00 84.19     0.007 C 
HETATM   35  C33 VFQ 1 316     -42.424 139.135   9.121  1.00 80.79    -0.062 C 
HETATM   36  C34 VFQ 1 316     -41.483 138.442   9.786  1.00 78.84     0.007 C 
HETATM   37  C35 VFQ 1 316     -40.661 137.426   9.134  1.00 76.79     0.001 C 
HETATM   38  C36 VFQ 1 316     -50.228 144.519  10.818  1.00 73.56     0.020 C 
HETATM   39  C37 VFQ 1 316     -49.317 143.601  12.932  1.00 73.56     0.020 C 
HETATM   40  C38 VFQ 1 316     -46.328 147.054  11.283  1.00 73.56     0.044 C 
HETATM   41  C39 VFQ 1 316     -46.084 142.893   8.366  1.00 95.37     0.048 C 
HETATM   42  C40 VFQ 1 316     -42.672 138.905   7.660  1.00 90.13     0.048 C 
HETATM   43  O23 VFQ 1 316     -49.950 147.767  14.390  1.00 73.56    -0.395 OA
ATOM     44  H23 VFQ 1 316     -49.501 148.583  14.582  1.00  0.00     0.210 HD
ENDROOT
TORSDOF 12
BEGIN_RES PHE A  61
REMARK  2 active torsions:
REMARK  status: ('A' for Active; 'I' for Inactive)
REMARK    1  A    between atoms: CA   and  CB  
REMARK    2  A    between atoms: CB   and  CG  
ROOT
ATOM      1  CA  PHE A  61     -36.237 128.293  12.768  1.00 39.40     0.164 C 
ENDROOT
BRANCH   1   2
ATOM      2  CB  PHE A  61     -36.813 128.951  11.509  1.00 39.41     0.058 C 
BRANCH   2   3
ATOM      3  CG  PHE A  61     -37.064 127.997  10.365  1.00 39.01    -0.020 A 
ATOM      4  CD2 PHE A  61     -36.334 126.825  10.243  1.00 40.32    -0.004 A 
ATOM      5  CE2 PHE A  61     -36.563 125.950   9.189  1.00 40.20    -0.000 A 
ATOM      6  CZ  PHE A  61     -37.527 126.235   8.248  1.00 40.34    -0.000 A 
ATOM      7  CE1 PHE A  61     -38.262 127.394   8.356  1.00 41.51    -0.000 A 
ATOM      8  CD1 PHE A  61     -38.028 128.273   9.407  1.00 39.94    -0.004 A 
ENDBRANCH   2   3
ENDBRANCH   1   2
END_RES PHE A  61
BEGIN_RES VAL A 134
REMARK  1 active torsions:
REMARK  status: ('A' for Active; 'I' for Inactive)
REMARK    3  A    between atoms: CA   and  CB  
ROOT
ATOM      9  CA  VAL A 134     -29.766 132.051   9.815  1.00 40.75     0.159 C 
ENDROOT
BRANCH   9  10
ATOM     10  CB  VAL A 134     -30.864 132.765   9.009  1.00 40.76     0.029 C 
ATOM     11  CG1 VAL A 134     -30.920 132.231   7.585  1.00 41.76     0.002 C 
ATOM     12  CG2 VAL A 134     -32.222 132.648   9.684  1.00 40.56     0.002 C 
ENDBRANCH   9  10
END_RES VAL A 134
BEGIN_RES TYR A 338
REMARK  3 active torsions:
REMARK  status: ('A' for Active; 'I' for Inactive)
REMARK    4  A    between atoms: CA   and  CB  
REMARK    5  A    between atoms: CB   and  CG  
REMARK    6  A    between atoms: CZ   and  OH  
ROOT
ATOM     13  CA  TYR A 338     -41.631 124.950   6.058  1.00 38.23     0.164 C 
ENDROOT
BRANCH  13  14
ATOM     14  CB  TYR A 338     -41.621 126.456   6.339  1.00 39.15     0.058 C 
BRANCH  14  15
ATOM     15  CG  TYR A 338     -40.422 127.213   5.817  1.00 39.03    -0.020 A 
ATOM     16  CD2 TYR A 338     -40.247 128.551   6.127  1.00 40.65    -0.002 A 
ATOM     17  CE2 TYR A 338     -39.168 129.280   5.653  1.00 40.91     0.024 A 
ATOM     18  CZ  TYR A 338     -38.230 128.668   4.843  1.00 42.33     0.089 A 
ATOM     19  CE1 TYR A 338     -38.379 127.330   4.523  1.00 40.63     0.024 A 
ATOM     20  CD1 TYR A 338     -39.473 126.622   4.997  1.00 39.27    -0.002 A 
BRANCH  18  21
ATOM     21  OH  TYR A 338     -37.159 129.376   4.373  1.00 43.36    -0.359 OA
ATOM     22  HH  TYR A 338     -36.284 129.195   4.697  1.00  0.00     0.217 HD
ENDBRANCH  18  21
ENDBRANCH  14  15
ENDBRANCH  13  14
END_RES TYR A 338
ENDMDL
MODEL 2
REMARK VINA RESULT:    -6.901      0.979     16.933
REMARK INTER + INTRA:          -9.550
REMARK INTER:                  -9.748
REMARK INTRA:                   0.198
REMARK UNBOUND:                -2.649
REMARK  0 active torsions:
REMARK  status: ('A' for Active; 'I' for Inactive)
REMARK       I    between atoms: C3_3  and  O3_21 
REMARK       I    between atoms: C6_6  and  C7_7 
REMARK       I    between atoms: C8_8  and  C9_9 
REMARK       I    between atoms: C10_10  and  C11_11 
REMARK       I    between atoms: C12_12  and  C13_13 
REMARK       I    between atoms: C14_14  and  C15_15 
REMARK       I    between atoms: C23_25  and  O23_43 
REMARK       I    between atoms: C26_28  and  C27_29 
REMARK       I    between atoms: C28_30  and  C29_31 
REMARK       I    between atoms: C30_32  and  C31_33 
REMARK       I    between atoms: C32_34  and  C33_35 
REMARK       I    between atoms: C34_36  and  C35_37 
ROOT
HETATM    1  C1  VFQ 1 316     -50.254 144.956  12.744  1.00 73.24    -0.018 C 
HETATM    2  C2  VFQ 1 316     -50.710 145.556  14.076  1.00 72.84     0.045 C 
HETATM    3  C3  VFQ 1 316     -49.818 146.631  14.683  1.00 72.53     0.123 C 
HETATM    4  C4  VFQ 1 316     -49.333 147.579  13.603  1.00 72.61     0.066 C 
HETATM    5  C5  VFQ 1 316     -48.581 146.798  12.559  1.00 72.68    -0.074 C 
HETATM    6  C6  VFQ 1 316     -49.048 145.631  12.113  1.00 72.79    -0.048 C 
HETATM    7  C7  VFQ 1 316     -48.374 144.960  10.974  1.00 71.90     0.009 C 
HETATM    8  C8  VFQ 1 316     -47.299 144.197  11.179  1.00 71.51     0.007 C 
HETATM    9  C9  VFQ 1 316     -46.589 143.500  10.086  1.00 70.48    -0.062 C 
HETATM   10  C10 VFQ 1 316     -45.555 142.708  10.409  1.00 69.46     0.007 C 
HETATM   11  C11 VFQ 1 316     -44.756 141.948   9.449  1.00 69.85     0.001 C 
HETATM   12  C12 VFQ 1 316     -43.785 141.190   9.957  1.00 72.15     0.007 C 
HETATM   13  C13 VFQ 1 316     -42.884 140.336   9.155  1.00 73.74    -0.062 C 
HETATM   14  C14 VFQ 1 316     -42.125 139.439   9.811  1.00 74.04     0.007 C 
HETATM   15  C15 VFQ 1 316     -41.210 138.518   9.139  1.00 74.62     0.001 C 
HETATM   16  C16 VFQ 1 316     -51.420 145.040  11.766  1.00 72.68     0.020 C 
HETATM   17  C17 VFQ 1 316     -49.896 143.494  12.976  1.00 73.05     0.020 C 
HETATM   18  C18 VFQ 1 316     -47.504 147.527  11.808  1.00 72.13     0.044 C 
HETATM   19  C19 VFQ 1 316     -47.009 143.681   8.657  1.00 70.45     0.048 C 
HETATM   20  C20 VFQ 1 316     -42.815 140.470   7.660  1.00 72.89     0.048 C 
HETATM   21  O3  VFQ 1 316     -50.563 147.372  15.661  1.00 71.04    -0.395 OA
ATOM     22  H3  VFQ 1 316     -50.866 146.777  16.337  1.00  0.00     0.210 HD
HETATM   23  C21 VFQ 1 316     -34.052 128.067   7.295  1.00 73.56    -0.018 C 
HETATM   24  C22 VFQ 1 316     -33.110 127.163   6.497  1.00 73.56     0.045 C 
HETATM   25  C23 VFQ 1 316     -31.777 127.741   6.026  1.00 73.56     0.123 C 
HETATM   26  C24 VFQ 1 316     -31.882 129.233   5.755  1.00 73.56     0.066 C 
HETATM   27  C25 VFQ 1 316     -32.375 129.887   7.018  1.00 73.56    -0.074 C 
HETATM   28  C26 VFQ 1 316     -33.489 129.445   7.610  1.00 73.56    -0.048 C 
HETATM   29  C27 VFQ 1 316     -34.179 130.287   8.619  1.00 73.56     0.009 C 
HETATM   30  C28 VFQ 1 316     -35.057 131.238   8.289  1.00 73.56     0.007 C 
HETATM   31  C29 VFQ 1 316     -35.730 132.061   9.315  1.00 94.72    -0.062 C 
HETATM   32  C30 VFQ 1 316     -36.609 132.981   8.894  1.00 91.32     0.007 C 
HETATM   33  C31 VFQ 1 316     -37.367 133.854   9.787  1.00 87.88     0.001 C 
HETATM   34  C32 VFQ 1 316     -38.112 134.789   9.205  1.00 84.19     0.007 C 
HETATM   35  C33 VFQ 1 316     -38.967 135.742   9.936  1.00 80.79    -0.062 C 
HETATM   36  C34 VFQ 1 316     -39.636 136.672   9.233  1.00 78.84     0.007 C 
HETATM   37  C35 VFQ 1 316     -40.532 137.633   9.873  1.00 76.79     0.001 C 
HETATM   38  C36 VFQ 1 316     -34.346 127.393   8.629  1.00 73.56     0.020 C 
HETATM   39  C37 VFQ 1 316     -35.356 128.180   6.507  1.00 73.56     0.020 C 
HETATM   40  C38 VFQ 1 316     -31.565 131.009   7.604  1.00 73.56     0.044 C 
HETATM   41  C39 VFQ 1 316     -35.451 131.866  10.774  1.00 95.37     0.048 C 
HETATM   42  C40 VFQ 1 316     -39.099 135.649  11.427  1.00 90.13     0.048 C 
HETATM   43  O23 VFQ 1 316     -31.378 127.070   4.823  1.00 73.56    -0.395 OA
ATOM     44  H23 VFQ 1 316     -30.549 127.430   4.530  1.00  0.00     0.210 HD
ENDROOT
TORSDOF 12
BEGIN_RES PHE A  61
REMARK  2 active torsions:
REMARK  status: ('A' for Active; 'I' for Inactive)
REMARK    1  A    between atoms: CA   and  CB  
REMARK    2  A    between atoms: CB   and  CG  
ROOT
ATOM      1  CA  PHE A  61     -36.237 128.293  12.768  1.00 39.40     0.164 C 
ENDROOT
BRANCH   1   2
ATOM      2  CB  PHE A  61     -36.813 128.951  11.509  1.00 39.41     0.058 C 
BRANCH   2   3
ATOM      3  CG  PHE A  61     -37.063 127.997  10.365  1.00 39.01    -0.020 A 
ATOM      4  CD2 PHE A  61     -36.396 126.784  10.291  1.00 40.32    -0.004 A 
ATOM      5  CE2 PHE A  61     -36.625 125.910   9.237  1.00 40.20    -0.000 A 
ATOM      6  CZ  PHE A  61     -37.524 126.235   8.247  1.00 40.34    -0.000 A 
ATOM      7  CE1 PHE A  61     -38.196 127.436   8.307  1.00 41.51    -0.000 A 
ATOM      8  CD1 PHE A  61     -37.963 128.314   9.358  1.00 39.94    -0.004 A 
ENDBRANCH   2   3
ENDBRANCH   1   2
END_RES PHE A  61
BEGIN_RES VAL A 134
REMARK  1 active torsions:
REMARK  status: ('A' for Active; 'I' for Inactive)
REMARK    3  A    between atoms: CA   and  CB  
ROOT
ATOM      9  CA  VAL A 134     -29.766 132.051   9.815  1.00 40.75     0.159 C 
ENDROOT
BRANCH   9  10
ATOM     10  CB  VAL A 134     -30.864 132.765   9.009  1.00 40.76     0.029 C 
ATOM     11  CG1 VAL A 134     -32.106 132.978   9.862  1.00 41.76     0.002 C 
ATOM     12  CG2 VAL A 134     -30.371 134.084   8.434  1.00 40.56     0.002 C 
ENDBRANCH   9  10
END_RES VAL A 134
BEGIN_RES TYR A 338
REMARK  3 active torsions:
REMARK  status: ('A' for Active; 'I' for Inactive)
REMARK    4  A    between atoms: CA   and  CB  
REMARK    5  A    between atoms: CB   and  CG  
REMARK    6  A    between atoms: CZ   and  OH  
ROOT
ATOM     13  CA  TYR A 338     -41.631 124.950   6.058  1.00 38.23     0.164 C 
ENDROOT
BRANCH  13  14
ATOM     14  CB  TYR A 338     -41.621 126.456   6.339  1.00 39.15     0.058 C 
BRANCH  14  15
ATOM     15  CG  TYR A 338     -40.416 127.211   5.826  1.00 39.03    -0.020 A 
ATOM     16  CD2 TYR A 338     -40.262 128.558   6.106  1.00 40.65    -0.002 A 
ATOM     17  CE2 TYR A 338     -39.179 129.285   5.639  1.00 40.91     0.024 A 
ATOM     18  CZ  TYR A 338     -38.215 128.663   4.868  1.00 42.33     0.089 A 
ATOM     19  CE1 TYR A 338     -38.344 127.316   4.579  1.00 40.63     0.024 A 
ATOM     20  CD1 TYR A 338     -39.443 126.609   5.044  1.00 39.27    -0.002 A 
BRANCH  18  21
ATOM     21  OH  TYR A 338     -37.140 129.369   4.406  1.00 43.36    -0.359 OA
ATOM     22  HH  TYR A 338     -36.317 129.357   4.880  1.00  0.00     0.217 HD
ENDBRANCH  18  21
ENDBRANCH  14  15
ENDBRANCH  13  14
END_RES TYR A 338
ENDMDL
