MODEL 1
REMARK VINA RESULT:    -9.720      0.000      0.000
REMARK INTER + INTRA:         -12.021
REMARK INTER:                  -9.720
REMARK INTRA:                  -2.302
REMARK UNBOUND:                -2.302
REMARK  0 active torsions:
REMARK  status: ('A' for Active; 'I' for Inactive)
REMARK       I    between atoms: C3_3  and  O3_21 
REMARK       I    between atoms: C6_6  and  C7_7 
REMARK       I    between atoms: C8_8  and  C9_9 
REMARK       I    between atoms: C10_10  and  C11_11 
REMARK       I    between atoms: C12_12  and  C13_13 
REMARK       I    between atoms: C14_14  and  C15_15 
REMARK       I    between atoms: C23_25  and  O23_43 
REMARK       I    between atoms: C26_28  and  C27_29 
REMARK       I    between atoms: C28_30  and  C29_31 
REMARK       I    between atoms: C30_32  and  C31_33 
REMARK       I    between atoms: C32_34  and  C33_35 
REMARK       I    between atoms: C34_36  and  C35_37 
ROOT
HETATM    1  C1  VFQ 1 316     -34.355 127.099   6.527  1.00 73.24    -0.018 C 
HETATM    2  C2  VFQ 1 316     -33.855 126.524   5.200  1.00 72.84     0.045 C 
HETATM    3  C3  VFQ 1 316     -32.734 127.285   4.503  1.00 72.53     0.123 C 
HETATM    4  C4  VFQ 1 316     -31.703 127.740   5.517  1.00 72.61     0.066 C 
HETATM    5  C5  VFQ 1 316     -32.371 128.611   6.548  1.00 72.68    -0.074 C 
HETATM    6  C6  VFQ 1 316     -33.553 128.272   7.063  1.00 72.79    -0.048 C 
HETATM    7  C7  VFQ 1 316     -34.114 129.060   8.188  1.00 71.90     0.009 C 
HETATM    8  C8  VFQ 1 316     -34.791 130.187   7.953  1.00 71.51     0.007 C 
HETATM    9  C9  VFQ 1 316     -35.377 131.011   9.032  1.00 70.48    -0.062 C 
HETATM   10  C10 VFQ 1 316     -36.090 132.092   8.682  1.00 69.46     0.007 C 
HETATM   11  C11 VFQ 1 316     -36.737 133.003   9.625  1.00 69.85     0.001 C 
HETATM   12  C12 VFQ 1 316     -37.432 134.009   9.093  1.00 72.15     0.007 C 
HETATM   13  C13 VFQ 1 316     -38.169 135.022   9.877  1.00 73.74    -0.062 C 
HETATM   14  C14 VFQ 1 316     -39.025 135.821   9.215  1.00 74.04     0.007 C 
HETATM   15  C15 VFQ 1 316     -39.836 136.847   9.870  1.00 74.62     0.001 C 
HETATM   16  C16 VFQ 1 316     -34.329 125.982   7.564  1.00 72.68     0.020 C 
HETATM   17  C17 VFQ 1 316     -35.791 127.571   6.332  1.00 73.05     0.020 C 
HETATM   18  C18 VFQ 1 316     -31.520 129.658   7.209  1.00 72.13     0.044 C 
HETATM   19  C19 VFQ 1 316     -35.171 130.651  10.473  1.00 70.45     0.048 C 
HETATM   20  C20 VFQ 1 316     -37.965 135.156  11.360  1.00 72.89     0.048 C 
HETATM   21  O3  VFQ 1 316     -32.103 126.429   3.540  1.00 71.04    -0.395 OA
ATOM     22  H3  VFQ 1 316     -32.750 126.143   2.905  1.00  0.00     0.210 HD
HETATM   23  C21 VFQ 1 316     -49.450 144.797  11.837  1.00 70.34    -0.018 C 
HETATM   24  C22 VFQ 1 316     -50.396 145.846  12.382  1.00 70.34     0.045 C 
HETATM   25  C23 VFQ 1 316     -49.770 146.963  13.200  1.00 70.34     0.123 C 
HETATM   26  C24 VFQ 1 316     -48.503 147.513  12.572  1.00 70.34     0.066 C 
HETATM   27  C25 VFQ 1 316     -47.699 146.568  11.727  1.00 70.34    -0.074 C 
HETATM   28  C26 VFQ 1 316     -48.150 145.377  11.326  1.00 70.34    -0.048 C 
HETATM   29  C27 VFQ 1 316     -47.402 144.586  10.318  1.00 70.34     0.009 C 
HETATM   30  C28 VFQ 1 316     -46.520 143.649  10.650  1.00 70.34     0.007 C 
HETATM   31  C29 VFQ 1 316     -45.803 142.855   9.640  1.00 94.72    -0.062 C 
HETATM   32  C30 VFQ 1 316     -44.944 141.921  10.073  1.00 91.32     0.007 C 
HETATM   33  C31 VFQ 1 316     -44.178 141.045   9.190  1.00 87.88     0.001 C 
HETATM   34  C32 VFQ 1 316     -43.286 140.252   9.776  1.00 84.19     0.007 C 
HETATM   35  C33 VFQ 1 316     -42.442 139.280   9.057  1.00 80.79    -0.062 C 
HETATM   36  C34 VFQ 1 316     -41.542 138.569   9.760  1.00 78.84     0.007 C 
HETATM   37  C35 VFQ 1 316     -40.690 137.561   9.134  1.00 76.79     0.001 C 
HETATM   38  C36 VFQ 1 316     -50.161 144.145  10.658  1.00 70.34     0.020 C 
HETATM   39  C37 VFQ 1 316     -49.204 143.751  12.915  1.00 70.34     0.020 C 
HETATM   40  C38 VFQ 1 316     -46.340 147.077  11.344  1.00 70.34     0.044 C 
HETATM   41  C39 VFQ 1 316     -46.036 143.074   8.176  1.00 95.37     0.048 C 
HETATM   42  C40 VFQ 1 316     -42.610 139.080   7.580  1.00 90.13     0.048 C 
HETATM   43  O23 VFQ 1 316     -49.513 146.546  14.543  1.00 70.34    -0.395 OA
ATOM     44  H23 VFQ 1 316     -49.122 147.245  15.055  1.00  0.00     0.210 HD
ENDROOT
TORSDOF 12
BEGIN_RES PHE A  61
REMARK  2 active torsions:
REMARK  status: ('A' for Active; 'I' for Inactive)
REMARK    1  A    between atoms: CA   and  CB  
REMARK    2  A    between atoms: CB   and  CG  
ROOT
ATOM      1  CA  PHE A  61     -36.237 128.293  12.768  1.00 39.40     0.164 C 
ENDROOT
BRANCH   1   2
ATOM      2  CB  PHE A  61     -36.813 128.951  11.509  1.00 39.41     0.058 C 
BRANCH   2   3
ATOM      3  CG  PHE A  61     -37.078 127.995  10.371  1.00 39.01    -0.020 A 
ATOM      4  CD2 PHE A  61     -36.366 126.811  10.255  1.00 40.32    -0.004 A 
ATOM      5  CE2 PHE A  61     -36.609 125.934   9.206  1.00 40.20    -0.000 A 
ATOM      6  CZ  PHE A  61     -37.567 126.228   8.263  1.00 40.34    -0.000 A 
ATOM      7  CE1 PHE A  61     -38.285 127.399   8.365  1.00 41.51    -0.000 A 
ATOM      8  CD1 PHE A  61     -38.038 128.280   9.410  1.00 39.94    -0.004 A 
ENDBRANCH   2   3
ENDBRANCH   1   2
END_RES PHE A  61
BEGIN_RES VAL A 134
REMARK  1 active torsions:
REMARK  status: ('A' for Active; 'I' for Inactive)
REMARK    3  A    between atoms: CA   and  CB  
ROOT
ATOM      9  CA  VAL A 134     -29.766 132.051   9.815  1.00 40.75     0.159 C 
ENDROOT
BRANCH   9  10
ATOM     10  CB  VAL A 134     -30.864 132.765   9.009  1.00 40.76     0.029 C 
ATOM     11  CG1 VAL A 134     -30.856 132.301   7.560  1.00 41.76     0.002 C 
ATOM     12  CG2 VAL A 134     -32.237 132.566   9.632  1.00 40.56     0.002 C 
ENDBRANCH   9  10
END_RES VAL A 134
BEGIN_RES TYR A 338
REMARK  3 active torsions:
REMARK  status: ('A' for Active; 'I' for Inactive)
REMARK    4  A    between atoms: CA   and  CB  
REMARK    5  A    between atoms: CB   and  CG  
REMARK    6  A    between atoms: CZ   and  OH  
ROOT
ATOM     13  CA  TYR A 338     -41.631 124.950   6.058  1.00 38.23     0.164 C 
ENDROOT
BRANCH  13  14
ATOM     14  CB  TYR A 338     -41.621 126.456   6.339  1.00 39.15     0.058 C 
BRANCH  14  15
ATOM     15  CG  TYR A 338     -40.423 127.213   5.815  1.00 39.03    -0.020 A 
ATOM     16  CD2 TYR A 338     -40.253 128.554   6.118  1.00 40.65    -0.002 A 
ATOM     17  CE2 TYR A 338     -39.175 129.283   5.641  1.00 40.91     0.024 A 
ATOM     18  CZ  TYR A 338     -38.233 128.669   4.838  1.00 42.33     0.089 A 
ATOM     19  CE1 TYR A 338     -38.377 127.329   4.525  1.00 40.63     0.024 A 
ATOM     20  CD1 TYR A 338     -39.470 126.620   5.001  1.00 39.27    -0.002 A 
BRANCH  18  21
ATOM     21  OH  TYR A 338     -37.163 129.377   4.366  1.00 43.36    -0.359 OA
ATOM     22  HH  TYR A 338     -36.328 128.947   4.220  1.00  0.00     0.217 HD
ENDBRANCH  18  21
ENDBRANCH  14  15
ENDBRANCH  13  14
END_RES TYR A 338
ENDMDL
MODEL 2
REMARK VINA RESULT:    -8.644      0.883     16.821
REMARK INTER + INTRA:         -10.946
REMARK INTER:                 -11.103
REMARK INTRA:                   0.157
REMARK UNBOUND:                -2.302
REMARK  0 active torsions:
REMARK  status: ('A' for Active; 'I' for Inactive)
REMARK       I    between atoms: C3_3  and  O3_21 
REMARK       I    between atoms: C6_6  and  C7_7 
REMARK       I    between atoms: C8_8  and  C9_9 
REMARK       I    between atoms: C10_10  and  C11_11 
REMARK       I    between atoms: C12_12  and  C13_13 
REMARK       I    between atoms: C14_14  and  C15_15 
REMARK       I    between atoms: C23_25  and  O23_43 
REMARK       I    between atoms: C26_28  and  C27_29 
REMARK       I    between atoms: C28_30  and  C29_31 
REMARK       I    between atoms: C30_32  and  C31_33 
REMARK       I    between atoms: C32_34  and  C33_35 
REMARK       I    between atoms: C34_36  and  C35_37 
ROOT
HETATM    1  C1  VFQ 1 316     -49.973 144.498  12.871  1.00 73.24    -0.018 C 
HETATM    2  C2  VFQ 1 316     -50.402 145.109  14.207  1.00 72.84     0.045 C 
HETATM    3  C3  VFQ 1 316     -49.507 146.201  14.780  1.00 72.53     0.123 C 
HETATM    4  C4  VFQ 1 316     -49.059 147.140  13.677  1.00 72.61     0.066 C 
HETATM    5  C5  VFQ 1 316     -48.324 146.355  12.624  1.00 72.68    -0.074 C 
HETATM    6  C6  VFQ 1 316     -48.790 145.178  12.203  1.00 72.79    -0.048 C 
HETATM    7  C7  VFQ 1 316     -48.136 144.500  11.057  1.00 71.90     0.009 C 
HETATM    8  C8  VFQ 1 316     -47.048 143.750  11.244  1.00 71.51     0.007 C 
HETATM    9  C9  VFQ 1 316     -46.357 143.048  10.142  1.00 70.48    -0.062 C 
HETATM   10  C10 VFQ 1 316     -45.307 142.271  10.449  1.00 69.46     0.007 C 
HETATM   11  C11 VFQ 1 316     -44.524 141.508   9.479  1.00 69.85     0.001 C 
HETATM   12  C12 VFQ 1 316     -43.533 140.766   9.972  1.00 72.15     0.007 C 
HETATM   13  C13 VFQ 1 316     -42.642 139.912   9.158  1.00 73.74    -0.062 C 
HETATM   14  C14 VFQ 1 316     -41.858 139.031   9.806  1.00 74.04     0.007 C 
HETATM   15  C15 VFQ 1 316     -40.950 138.111   9.123  1.00 74.62     0.001 C 
HETATM   16  C16 VFQ 1 316     -51.162 144.558  11.921  1.00 72.68     0.020 C 
HETATM   17  C17 VFQ 1 316     -49.593 143.042  13.112  1.00 73.05     0.020 C 
HETATM   18  C18 VFQ 1 316     -47.274 147.086  11.838  1.00 72.13     0.044 C 
HETATM   19  C19 VFQ 1 316     -46.814 143.207   8.722  1.00 70.45     0.048 C 
HETATM   20  C20 VFQ 1 316     -42.611 140.029   7.660  1.00 72.89     0.048 C 
HETATM   21  O3  VFQ 1 316     -50.236 146.945  15.766  1.00 71.04    -0.395 OA
ATOM     22  H3  VFQ 1 316     -50.517 146.355  16.457  1.00  0.00     0.210 HD
HETATM   23  C21 VFQ 1 316     -33.911 127.820   7.115  1.00 70.34    -0.018 C 
HETATM   24  C22 VFQ 1 316     -32.980 126.768   6.548  1.00 70.34     0.045 C 
HETATM   25  C23 VFQ 1 316     -31.889 127.263   5.613  1.00 70.34     0.123 C 
HETATM   26  C24 VFQ 1 316     -31.199 128.514   6.125  1.00 70.34     0.066 C 
HETATM   27  C25 VFQ 1 316     -32.012 129.431   6.991  1.00 70.34    -0.074 C 
HETATM   28  C26 VFQ 1 316     -33.198 129.095   7.506  1.00 70.34    -0.048 C 
HETATM   29  C27 VFQ 1 316     -33.849 129.952   8.526  1.00 70.34     0.009 C 
HETATM   30  C28 VFQ 1 316     -34.741 130.886   8.216  1.00 70.34     0.007 C 
HETATM   31  C29 VFQ 1 316     -35.399 131.715   9.241  1.00 94.72    -0.062 C 
HETATM   32  C30 VFQ 1 316     -36.297 132.620   8.830  1.00 91.32     0.007 C 
HETATM   33  C31 VFQ 1 316     -37.042 133.496   9.732  1.00 87.88     0.001 C 
HETATM   34  C32 VFQ 1 316     -37.812 134.416   9.157  1.00 84.19     0.007 C 
HETATM   35  C33 VFQ 1 316     -38.658 135.369   9.898  1.00 80.79    -0.062 C 
HETATM   36  C34 VFQ 1 316     -39.354 136.284   9.200  1.00 78.84     0.007 C 
HETATM   37  C35 VFQ 1 316     -40.244 137.243   9.851  1.00 76.79     0.001 C 
HETATM   38  C36 VFQ 1 316     -34.517 127.223   8.378  1.00 70.34     0.020 C 
HETATM   39  C37 VFQ 1 316     -35.018 128.091   6.106  1.00 70.34     0.020 C 
HETATM   40  C38 VFQ 1 316     -31.376 130.764   7.257  1.00 70.34     0.044 C 
HETATM   41  C39 VFQ 1 316     -35.082 131.540  10.695  1.00 95.37     0.048 C 
HETATM   42  C40 VFQ 1 316     -38.753 135.293  11.392  1.00 90.13     0.048 C 
HETATM   43  O23 VFQ 1 316     -32.391 127.482   4.293  1.00 70.34    -0.395 OA
ATOM     44  H23 VFQ 1 316     -31.708 127.791   3.709  1.00  0.00     0.210 HD
ENDROOT
TORSDOF 12
BEGIN_RES PHE A  61
REMARK  2 active torsions:
REMARK  status: ('A' for Active; 'I' for Inactive)
REMARK    1  A    between atoms: CA   and  CB  
REMARK    2  A    between atoms: CB   and  CG  
ROOT
ATOM      1  CA  PHE A  61     -36.237 128.293  12.768  1.00 39.40     0.164 C 
ENDROOT
BRANCH   1   2
ATOM      2  CB  PHE A  61     -36.813 128.951  11.509  1.00 39.41     0.058 C 
BRANCH   2   3
ATOM      3  CG  PHE A  61     -37.040 128.002  10.357  1.00 39.01    -0.020 A 
ATOM      4  CD2 PHE A  61     -36.436 126.754  10.333  1.00 40.32    -0.004 A 
ATOM      5  CE2 PHE A  61     -36.643 125.883   9.271  1.00 40.20    -0.000 A 
ATOM      6  CZ  PHE A  61     -37.457 126.248   8.223  1.00 40.34    -0.000 A 
ATOM      7  CE1 PHE A  61     -38.066 127.483   8.233  1.00 41.51    -0.000 A 
ATOM      8  CD1 PHE A  61     -37.855 128.357   9.291  1.00 39.94    -0.004 A 
ENDBRANCH   2   3
ENDBRANCH   1   2
END_RES PHE A  61
BEGIN_RES VAL A 134
REMARK  1 active torsions:
REMARK  status: ('A' for Active; 'I' for Inactive)
REMARK    3  A    between atoms: CA   and  CB  
ROOT
ATOM      9  CA  VAL A 134     -29.766 132.051   9.815  1.00 40.75     0.159 C 
ENDROOT
BRANCH   9  10
ATOM     10  CB  VAL A 134     -30.864 132.765   9.009  1.00 40.76     0.029 C 
ATOM     11  CG1 VAL A 134     -32.105 132.979   9.863  1.00 41.76     0.002 C 
ATOM     12  CG2 VAL A 134     -30.370 134.084   8.434  1.00 40.56     0.002 C 
ENDBRANCH   9  10
END_RES VAL A 134
BEGIN_RES TYR A 338
REMARK  3 active torsions:
REMARK  status: ('A' for Active; 'I' for Inactive)
REMARK    4  A    between atoms: CA   and  CB  
REMARK    5  A    between atoms: CB   and  CG  
REMARK    6  A    between atoms: CZ   and  OH  
ROOT
ATOM     13  CA  TYR A 338     -41.631 124.950   6.058  1.00 38.23     0.164 C 
ENDROOT
BRANCH  13  14
ATOM     14  CB  TYR A 338     -41.621 126.456   6.339  1.00 39.15     0.058 C 
BRANCH  14  15
ATOM     15  CG  TYR A 338     -40.414 127.210   5.830  1.00 39.03    -0.020 A 
ATOM     16  CD2 TYR A 338     -40.261 128.558   6.109  1.00 40.65    -0.002 A 
ATOM     17  CE2 TYR A 338     -39.175 129.284   5.645  1.00 40.91     0.024 A 
ATOM     18  CZ  TYR A 338     -38.209 128.661   4.878  1.00 42.33     0.089 A 
ATOM     19  CE1 TYR A 338     -38.338 127.313   4.589  1.00 40.63     0.024 A 
ATOM     20  CD1 TYR A 338     -39.438 126.608   5.052  1.00 39.27    -0.002 A 
BRANCH  18  21
ATOM     21  OH  TYR A 338     -37.132 129.366   4.419  1.00 43.36    -0.359 OA
ATOM     22  HH  TYR A 338     -36.267 129.212   4.781  1.00  0.00     0.217 HD
ENDBRANCH  18  21
ENDBRANCH  14  15
ENDBRANCH  13  14
END_RES TYR A 338
ENDMDL
