MODEL 1
REMARK VINA RESULT:    -9.291      0.000      0.000
REMARK INTER + INTRA:         -12.353
REMARK INTER:                  -9.291
REMARK INTRA:                  -3.062
REMARK UNBOUND:                -3.062
REMARK  0 active torsions:
REMARK  status: ('A' for Active; 'I' for Inactive)
REMARK       I    between atoms: C3_3  and  O3_21 
REMARK       I    between atoms: C6_6  and  C7_7 
REMARK       I    between atoms: C8_8  and  C9_9 
REMARK       I    between atoms: C10_10  and  C11_11 
REMARK       I    between atoms: C12_12  and  C13_13 
REMARK       I    between atoms: C14_14  and  C15_15 
REMARK       I    between atoms: C23_25  and  O23_43 
REMARK       I    between atoms: C26_28  and  C27_29 
REMARK       I    between atoms: C28_30  and  C29_31 
REMARK       I    between atoms: C30_32  and  C31_33 
REMARK       I    between atoms: C32_34  and  C33_35 
REMARK       I    between atoms: C34_36  and  C35_37 
ROOT
HETATM    1  C1  VFQ J9621     -47.833 146.213  12.705  1.00 21.11    -0.018 C 
HETATM    2  C2  VFQ J9621     -48.413 146.763  14.020  1.00 20.11     0.045 C 
HETATM    3  C3  VFQ J9621     -47.733 147.939  14.719  1.00 19.41     0.123 C 
HETATM    4  C4  VFQ J9621     -46.421 148.430  14.090  1.00 18.39     0.066 C 
HETATM    5  C5  VFQ J9621     -45.760 147.700  12.969  1.00 18.34    -0.074 C 
HETATM    6  C6  VFQ J9621     -46.386 146.678  12.292  1.00 19.81    -0.048 C 
HETATM    7  C7  VFQ J9621     -45.815 145.942  11.141  1.00 19.02     0.009 C 
HETATM    8  C8  VFQ J9621     -44.932 144.929  11.234  1.00 17.97     0.007 C 
HETATM    9  C9  VFQ J9621     -44.330 144.158  10.142  1.00 18.85    -0.062 C 
HETATM   10  C10 VFQ J9621     -43.563 143.095  10.480  1.00 18.38     0.007 C 
HETATM   11  C11 VFQ J9621     -42.941 142.144   9.588  1.00 18.57     0.001 C 
HETATM   12  C12 VFQ J9621     -42.263 141.070  10.046  1.00 17.11     0.007 C 
HETATM   13  C13 VFQ J9621     -41.656 139.986   9.258  1.00 20.42    -0.062 C 
HETATM   14  C14 VFQ J9621     -41.050 138.978   9.926  1.00 20.50     0.007 C 
HETATM   15  C15 VFQ J9621     -40.440 137.804   9.350  1.00 20.22     0.001 C 
HETATM   16  C16 VFQ J9621     -48.872 146.641  11.639  1.00 19.56     0.020 C 
HETATM   17  C17 VFQ J9621     -47.894 144.677  12.838  1.00 18.49     0.020 C 
HETATM   18  C18 VFQ J9621     -44.439 148.324  12.706  1.00 16.89     0.044 C 
HETATM   19  C19 VFQ J9621     -44.669 144.558   8.734  1.00 14.61     0.048 C 
HETATM   20  C20 VFQ J9621     -41.779 140.046   7.753  1.00 17.59     0.048 C 
HETATM   21  O3  VFQ J9621     -48.642 149.016  14.861  1.00 18.27    -0.395 OA
ATOM     22  H3  VFQ J9621     -48.219 149.747  15.296  1.00  0.00     0.210 HD
HETATM   23  C21 VFQ J9621     -34.312 126.693   6.380  1.00 19.07    -0.018 C 
HETATM   24  C22 VFQ J9621     -33.784 125.923   5.156  1.00 18.69     0.045 C 
HETATM   25  C23 VFQ J9621     -32.487 126.421   4.523  1.00 19.88     0.123 C 
HETATM   26  C24 VFQ J9621     -32.335 127.950   4.541  1.00 19.59     0.066 C 
HETATM   27  C25 VFQ J9621     -32.894 128.695   5.713  1.00 18.61    -0.074 C 
HETATM   28  C26 VFQ J9621     -33.810 128.149   6.587  1.00 18.29    -0.048 C 
HETATM   29  C27 VFQ J9621     -34.336 128.920   7.734  1.00 19.20     0.009 C 
HETATM   30  C28 VFQ J9621     -35.284 129.891   7.727  1.00 18.47     0.007 C 
HETATM   31  C29 VFQ J9621     -35.682 130.768   8.837  1.00 19.55    -0.062 C 
HETATM   32  C30 VFQ J9621     -36.624 131.712   8.617  1.00 17.66     0.007 C 
HETATM   33  C31 VFQ J9621     -37.127 132.661   9.580  1.00 19.12     0.001 C 
HETATM   34  C32 VFQ J9621     -37.948 133.681   9.235  1.00 19.40     0.007 C 
HETATM   35  C33 VFQ J9621     -38.520 134.748  10.075  1.00 19.31    -0.062 C 
HETATM   36  C34 VFQ J9621     -39.235 135.715   9.463  1.00 17.72     0.007 C 
HETATM   37  C35 VFQ J9621     -39.831 136.869  10.078  1.00 19.92     0.001 C 
HETATM   38  C36 VFQ J9621     -34.019 125.850   7.638  1.00 17.04     0.020 C 
HETATM   39  C37 VFQ J9621     -35.831 126.687   6.127  1.00 20.18     0.020 C 
HETATM   40  C38 VFQ J9621     -32.271 130.043   5.716  1.00 19.93     0.044 C 
HETATM   41  C39 VFQ J9621     -34.954 130.600  10.144  1.00 18.53     0.048 C 
HETATM   42  C40 VFQ J9621     -38.211 134.726  11.548  1.00 15.86     0.048 C 
HETATM   43  O23 VFQ J9621     -32.358 125.923   3.199  1.00 19.51    -0.395 OA
ATOM     44  H23 VFQ J9621     -31.551 126.233   2.805  1.00  0.00     0.210 HD
ENDROOT
TORSDOF 12
BEGIN_RES PHE A  61
REMARK  2 active torsions:
REMARK  status: ('A' for Active; 'I' for Inactive)
REMARK    1  A    between atoms: CA   and  CB  
REMARK    2  A    between atoms: CB   and  CG  
ROOT
ATOM      1  CA  PHE A  61     -36.237 128.293  12.768  1.00 39.40     0.164 C 
ENDROOT
BRANCH   1   2
ATOM      2  CB  PHE A  61     -36.813 128.951  11.509  1.00 39.41     0.058 C 
BRANCH   2   3
ATOM      3  CG  PHE A  61     -37.060 127.998  10.364  1.00 39.01    -0.020 A 
ATOM      4  CD2 PHE A  61     -38.061 128.244   9.437  1.00 40.32    -0.004 A 
ATOM      5  CE2 PHE A  61     -38.289 127.364   8.386  1.00 40.20    -0.000 A 
ATOM      6  CZ  PHE A  61     -37.519 126.232   8.248  1.00 40.34    -0.000 A 
ATOM      7  CE1 PHE A  61     -36.520 125.975   9.161  1.00 41.51    -0.000 A 
ATOM      8  CD1 PHE A  61     -36.295 126.850  10.215  1.00 39.94    -0.004 A 
ENDBRANCH   2   3
ENDBRANCH   1   2
END_RES PHE A  61
BEGIN_RES VAL A 134
REMARK  1 active torsions:
REMARK  status: ('A' for Active; 'I' for Inactive)
REMARK    3  A    between atoms: CA   and  CB  
ROOT
ATOM      9  CA  VAL A 134     -29.766 132.051   9.815  1.00 40.75     0.159 C 
ENDROOT
BRANCH   9  10
ATOM     10  CB  VAL A 134     -30.864 132.765   9.009  1.00 40.76     0.029 C 
ATOM     11  CG1 VAL A 134     -31.214 131.973   7.757  1.00 41.76     0.002 C 
ATOM     12  CG2 VAL A 134     -32.104 133.019   9.852  1.00 40.56     0.002 C 
ENDBRANCH   9  10
END_RES VAL A 134
BEGIN_RES TYR A 338
REMARK  3 active torsions:
REMARK  status: ('A' for Active; 'I' for Inactive)
REMARK    4  A    between atoms: CA   and  CB  
REMARK    5  A    between atoms: CB   and  CG  
REMARK    6  A    between atoms: CZ   and  OH  
ROOT
ATOM     13  CA  TYR A 338     -41.631 124.950   6.058  1.00 38.23     0.164 C 
ENDROOT
BRANCH  13  14
ATOM     14  CB  TYR A 338     -41.621 126.456   6.339  1.00 39.15     0.058 C 
BRANCH  14  15
ATOM     15  CG  TYR A 338     -40.407 127.208   5.844  1.00 39.03    -0.020 A 
ATOM     16  CD2 TYR A 338     -40.218 128.536   6.185  1.00 40.65    -0.002 A 
ATOM     17  CE2 TYR A 338     -39.125 129.261   5.736  1.00 40.91     0.024 A 
ATOM     18  CZ  TYR A 338     -38.187 128.654   4.921  1.00 42.33     0.089 A 
ATOM     19  CE1 TYR A 338     -38.352 127.326   4.570  1.00 40.63     0.024 A 
ATOM     20  CD1 TYR A 338     -39.459 126.622   5.019  1.00 39.27    -0.002 A 
BRANCH  18  21
ATOM     21  OH  TYR A 338     -37.103 129.357   4.476  1.00 43.36    -0.359 OA
ATOM     22  HH  TYR A 338     -36.478 129.720   5.094  1.00  0.00     0.217 HD
ENDBRANCH  18  21
ENDBRANCH  14  15
ENDBRANCH  13  14
END_RES TYR A 338
ENDMDL
MODEL 2
REMARK VINA RESULT:    -8.984      2.028      2.590
REMARK INTER + INTRA:         -12.046
REMARK INTER:                 -11.749
REMARK INTRA:                  -0.298
REMARK UNBOUND:                -3.062
REMARK  0 active torsions:
REMARK  status: ('A' for Active; 'I' for Inactive)
REMARK       I    between atoms: C3_3  and  O3_21 
REMARK       I    between atoms: C6_6  and  C7_7 
REMARK       I    between atoms: C8_8  and  C9_9 
REMARK       I    between atoms: C10_10  and  C11_11 
REMARK       I    between atoms: C12_12  and  C13_13 
REMARK       I    between atoms: C14_14  and  C15_15 
REMARK       I    between atoms: C23_25  and  O23_43 
REMARK       I    between atoms: C26_28  and  C27_29 
REMARK       I    between atoms: C28_30  and  C29_31 
REMARK       I    between atoms: C30_32  and  C31_33 
REMARK       I    between atoms: C32_34  and  C33_35 
REMARK       I    between atoms: C34_36  and  C35_37 
ROOT
HETATM    1  C1  VFQ J9621     -50.755 145.750   9.455  1.00 21.11    -0.018 C 
HETATM    2  C2  VFQ J9621     -51.707 146.223  10.568  1.00 20.11     0.045 C 
HETATM    3  C3  VFQ J9621     -51.363 147.466  11.388  1.00 19.41     0.123 C 
HETATM    4  C4  VFQ J9621     -49.998 148.108  11.098  1.00 18.39     0.066 C 
HETATM    5  C5  VFQ J9621     -48.997 147.464  10.198  1.00 18.34    -0.074 C 
HETATM    6  C6  VFQ J9621     -49.312 146.381   9.410  1.00 19.81    -0.048 C 
HETATM    7  C7  VFQ J9621     -48.390 145.721   8.458  1.00 19.02     0.009 C 
HETATM    8  C8  VFQ J9621     -47.451 144.815   8.794  1.00 17.97     0.007 C 
HETATM    9  C9  VFQ J9621     -46.509 144.124   7.908  1.00 18.85    -0.062 C 
HETATM   10  C10 VFQ J9621     -45.738 143.155   8.454  1.00 18.38     0.007 C 
HETATM   11  C11 VFQ J9621     -44.808 142.286   7.771  1.00 18.57     0.001 C 
HETATM   12  C12 VFQ J9621     -44.152 141.294   8.412  1.00 17.11     0.007 C 
HETATM   13  C13 VFQ J9621     -43.248 140.292   7.828  1.00 20.42    -0.062 C 
HETATM   14  C14 VFQ J9621     -42.721 139.356   8.651  1.00 20.50     0.007 C 
HETATM   15  C15 VFQ J9621     -41.857 138.263   8.276  1.00 20.22     0.001 C 
HETATM   16  C16 VFQ J9621     -51.532 146.062   8.152  1.00 19.56     0.020 C 
HETATM   17  C17 VFQ J9621     -50.675 144.217   9.606  1.00 18.49     0.020 C 
HETATM   18  C18 VFQ J9621     -47.732 148.237  10.261  1.00 16.89     0.044 C 
HETATM   19  C19 VFQ J9621     -46.524 144.490   6.451  1.00 14.61     0.048 C 
HETATM   20  C20 VFQ J9621     -42.992 140.345   6.339  1.00 17.59     0.048 C 
HETATM   21  O3  VFQ J9621     -52.393 148.431  11.269  1.00 18.27    -0.395 OA
ATOM     22  H3  VFQ J9621     -52.179 149.203  11.779  1.00  0.00     0.210 HD
HETATM   23  C21 VFQ J9621     -33.969 127.945   7.216  1.00 19.07    -0.018 C 
HETATM   24  C22 VFQ J9621     -33.066 127.246   6.183  1.00 18.69     0.045 C 
HETATM   25  C23 VFQ J9621     -31.715 127.893   5.885  1.00 19.88     0.123 C 
HETATM   26  C24 VFQ J9621     -31.745 129.429   5.904  1.00 19.59     0.066 C 
HETATM   27  C25 VFQ J9621     -32.663 130.099   6.879  1.00 18.61    -0.074 C 
HETATM   28  C26 VFQ J9621     -33.703 129.447   7.508  1.00 18.29    -0.048 C 
HETATM   29  C27 VFQ J9621     -34.586 130.147   8.466  1.00 19.20     0.009 C 
HETATM   30  C28 VFQ J9621     -35.604 131.002   8.196  1.00 18.47     0.007 C 
HETATM   31  C29 VFQ J9621     -36.366 131.822   9.149  1.00 19.55    -0.062 C 
HETATM   32  C30 VFQ J9621     -37.321 132.653   8.675  1.00 17.66     0.007 C 
HETATM   33  C31 VFQ J9621     -38.155 133.533   9.457  1.00 19.12     0.001 C 
HETATM   34  C32 VFQ J9621     -38.970 134.454   8.892  1.00 19.40     0.007 C 
HETATM   35  C33 VFQ J9621     -39.853 135.444   9.535  1.00 19.31    -0.062 C 
HETATM   36  C34 VFQ J9621     -40.494 136.326   8.739  1.00 17.72     0.007 C 
HETATM   37  C35 VFQ J9621     -41.352 137.400   9.156  1.00 19.92     0.001 C 
HETATM   38  C36 VFQ J9621     -33.911 127.134   8.526  1.00 17.04     0.020 C 
HETATM   39  C37 VFQ J9621     -35.364 127.765   6.588  1.00 20.18     0.020 C 
HETATM   40  C38 VFQ J9621     -32.216 131.509   7.007  1.00 19.93     0.044 C 
HETATM   41  C39 VFQ J9621     -35.978 131.732  10.601  1.00 18.53     0.048 C 
HETATM   42  C40 VFQ J9621     -39.926 135.450  11.039  1.00 15.86     0.048 C 
HETATM   43  O23 VFQ J9621     -31.200 127.420   4.649  1.00 19.51    -0.395 OA
ATOM     44  H23 VFQ J9621     -30.360 127.823   4.465  1.00  0.00     0.210 HD
ENDROOT
TORSDOF 12
BEGIN_RES PHE A  61
REMARK  2 active torsions:
REMARK  status: ('A' for Active; 'I' for Inactive)
REMARK    1  A    between atoms: CA   and  CB  
REMARK    2  A    between atoms: CB   and  CG  
ROOT
ATOM      1  CA  PHE A  61     -36.237 128.293  12.768  1.00 39.40     0.164 C 
ENDROOT
BRANCH   1   2
ATOM      2  CB  PHE A  61     -36.813 128.951  11.509  1.00 39.41     0.058 C 
BRANCH   2   3
ATOM      3  CG  PHE A  61     -37.043 128.001  10.358  1.00 39.01    -0.020 A 
ATOM      4  CD2 PHE A  61     -36.333 126.815  10.262  1.00 40.32    -0.004 A 
ATOM      5  CE2 PHE A  61     -36.543 125.943   9.200  1.00 40.20    -0.000 A 
ATOM      6  CZ  PHE A  61     -37.467 126.246   8.226  1.00 40.34    -0.000 A 
ATOM      7  CE1 PHE A  61     -38.182 127.420   8.309  1.00 41.51    -0.000 A 
ATOM      8  CD1 PHE A  61     -37.968 128.295   9.366  1.00 39.94    -0.004 A 
ENDBRANCH   2   3
ENDBRANCH   1   2
END_RES PHE A  61
BEGIN_RES VAL A 134
REMARK  1 active torsions:
REMARK  status: ('A' for Active; 'I' for Inactive)
REMARK    3  A    between atoms: CA   and  CB  
ROOT
ATOM      9  CA  VAL A 134     -29.766 132.051   9.815  1.00 40.75     0.159 C 
ENDROOT
BRANCH   9  10
ATOM     10  CB  VAL A 134     -30.864 132.765   9.009  1.00 40.76     0.029 C 
ATOM     11  CG1 VAL A 134     -32.140 132.887   9.829  1.00 41.76     0.002 C 
ATOM     12  CG2 VAL A 134     -30.404 134.130   8.520  1.00 40.56     0.002 C 
ENDBRANCH   9  10
END_RES VAL A 134
BEGIN_RES TYR A 338
REMARK  3 active torsions:
REMARK  status: ('A' for Active; 'I' for Inactive)
REMARK    4  A    between atoms: CA   and  CB  
REMARK    5  A    between atoms: CB   and  CG  
REMARK    6  A    between atoms: CZ   and  OH  
ROOT
ATOM     13  CA  TYR A 338     -41.631 124.950   6.058  1.00 38.23     0.164 C 
ENDROOT
BRANCH  13  14
ATOM     14  CB  TYR A 338     -41.621 126.456   6.339  1.00 39.15     0.058 C 
BRANCH  14  15
ATOM     15  CG  TYR A 338     -40.410 127.209   5.838  1.00 39.03    -0.020 A 
ATOM     16  CD2 TYR A 338     -40.248 128.552   6.134  1.00 40.65    -0.002 A 
ATOM     17  CE2 TYR A 338     -39.158 129.277   5.678  1.00 40.91     0.024 A 
ATOM     18  CZ  TYR A 338     -38.197 128.656   4.902  1.00 42.33     0.089 A 
ATOM     19  CE1 TYR A 338     -38.335 127.314   4.596  1.00 40.63     0.024 A 
ATOM     20  CD1 TYR A 338     -39.439 126.610   5.051  1.00 39.27    -0.002 A 
BRANCH  18  21
ATOM     21  OH  TYR A 338     -37.116 129.361   4.450  1.00 43.36    -0.359 OA
ATOM     22  HH  TYR A 338     -36.375 129.523   5.022  1.00  0.00     0.217 HD
ENDBRANCH  18  21
ENDBRANCH  14  15
ENDBRANCH  13  14
END_RES TYR A 338
ENDMDL
MODEL 3
REMARK VINA RESULT:    -7.631      1.780     17.137
REMARK INTER + INTRA:         -10.693
REMARK INTER:                 -10.308
REMARK INTRA:                  -0.385
REMARK UNBOUND:                -3.062
REMARK  0 active torsions:
REMARK  status: ('A' for Active; 'I' for Inactive)
REMARK       I    between atoms: C3_3  and  O3_21 
REMARK       I    between atoms: C6_6  and  C7_7 
REMARK       I    between atoms: C8_8  and  C9_9 
REMARK       I    between atoms: C10_10  and  C11_11 
REMARK       I    between atoms: C12_12  and  C13_13 
REMARK       I    between atoms: C14_14  and  C15_15 
REMARK       I    between atoms: C23_25  and  O23_43 
REMARK       I    between atoms: C26_28  and  C27_29 
REMARK       I    between atoms: C28_30  and  C29_31 
REMARK       I    between atoms: C30_32  and  C31_33 
REMARK       I    between atoms: C32_34  and  C33_35 
REMARK       I    between atoms: C34_36  and  C35_37 
ROOT
HETATM    1  C1  VFQ J9621     -34.086 128.302   7.111  1.00 21.11    -0.018 C 
HETATM    2  C2  VFQ J9621     -33.353 127.688   5.905  1.00 20.11     0.045 C 
HETATM    3  C3  VFQ J9621     -31.914 128.101   5.597  1.00 19.41     0.123 C 
HETATM    4  C4  VFQ J9621     -31.327 129.210   6.482  1.00 18.39     0.066 C 
HETATM    5  C5  VFQ J9621     -32.160 129.958   7.469  1.00 18.34    -0.074 C 
HETATM    6  C6  VFQ J9621     -33.436 129.562   7.799  1.00 19.81    -0.048 C 
HETATM    7  C7  VFQ J9621     -34.302 130.222   8.801  1.00 19.02     0.009 C 
HETATM    8  C8  VFQ J9621     -35.034 131.331   8.579  1.00 17.97     0.007 C 
HETATM    9  C9  VFQ J9621     -35.911 132.034   9.520  1.00 18.85    -0.062 C 
HETATM   10  C10 VFQ J9621     -36.650 133.059   9.035  1.00 18.38     0.007 C 
HETATM   11  C11 VFQ J9621     -37.639 133.838   9.743  1.00 18.57     0.001 C 
HETATM   12  C12 VFQ J9621     -38.378 134.787   9.128  1.00 17.11     0.007 C 
HETATM   13  C13 VFQ J9621     -39.468 135.590   9.702  1.00 20.42    -0.062 C 
HETATM   14  C14 VFQ J9621     -40.105 136.466   8.892  1.00 20.50     0.007 C 
HETATM   15  C15 VFQ J9621     -41.223 137.309   9.242  1.00 20.22     0.001 C 
HETATM   16  C16 VFQ J9621     -34.192 127.124   8.112  1.00 19.56     0.020 C 
HETATM   17  C17 VFQ J9621     -35.507 128.629   6.608  1.00 18.49     0.020 C 
HETATM   18  C18 VFQ J9621     -31.350 131.065   8.034  1.00 16.89     0.044 C 
HETATM   19  C19 VFQ J9621     -35.979 131.519  10.930  1.00 14.61     0.048 C 
HETATM   20  C20 VFQ J9621     -39.833 135.362  11.151  1.00 17.59     0.048 C 
HETATM   21  O3  VFQ J9621     -31.067 126.966   5.606  1.00 18.27    -0.395 OA
ATOM     22  H3  VFQ J9621     -30.173 127.222   5.415  1.00  0.00     0.210 HD
HETATM   23  C21 VFQ J9621     -51.079 145.780  10.197  1.00 19.07    -0.018 C 
HETATM   24  C22 VFQ J9621     -52.007 146.403  11.257  1.00 18.69     0.045 C 
HETATM   25  C23 VFQ J9621     -51.418 147.496  12.146  1.00 19.88     0.123 C 
HETATM   26  C24 VFQ J9621     -49.942 147.268  12.513  1.00 19.59     0.066 C 
HETATM   27  C25 VFQ J9621     -49.060 146.618  11.494  1.00 18.61    -0.074 C 
HETATM   28  C26 VFQ J9621     -49.546 145.922  10.408  1.00 18.29    -0.048 C 
HETATM   29  C27 VFQ J9621     -48.639 145.295   9.423  1.00 19.20     0.009 C 
HETATM   30  C28 VFQ J9621     -47.939 144.139   9.546  1.00 18.47     0.007 C 
HETATM   31  C29 VFQ J9621     -46.913 143.608   8.638  1.00 19.55    -0.062 C 
HETATM   32  C30 VFQ J9621     -46.292 142.451   8.960  1.00 17.66     0.007 C 
HETATM   33  C31 VFQ J9621     -45.260 141.792   8.197  1.00 19.12     0.001 C 
HETATM   34  C32 VFQ J9621     -44.574 140.726   8.672  1.00 19.40     0.007 C 
HETATM   35  C33 VFQ J9621     -43.478 139.963   8.048  1.00 19.31    -0.062 C 
HETATM   36  C34 VFQ J9621     -42.889 138.995   8.781  1.00 17.72     0.007 C 
HETATM   37  C35 VFQ J9621     -41.777 138.173   8.391  1.00 19.92     0.001 C 
HETATM   38  C36 VFQ J9621     -51.477 146.350   8.820  1.00 17.04     0.020 C 
HETATM   39  C37 VFQ J9621     -51.489 144.297  10.251  1.00 20.18     0.020 C 
HETATM   40  C38 VFQ J9621     -47.655 146.889  11.891  1.00 19.93     0.044 C 
HETATM   41  C39 VFQ J9621     -46.566 144.436   7.429  1.00 18.53     0.048 C 
HETATM   42  C40 VFQ J9621     -43.045 140.360   6.662  1.00 15.86     0.048 C 
HETATM   43  O23 VFQ J9621     -52.203 147.660  13.318  1.00 19.51    -0.395 OA
ATOM     44  H23 VFQ J9621     -51.836 148.339  13.870  1.00  0.00     0.210 HD
ENDROOT
TORSDOF 12
BEGIN_RES PHE A  61
REMARK  2 active torsions:
REMARK  status: ('A' for Active; 'I' for Inactive)
REMARK    1  A    between atoms: CA   and  CB  
REMARK    2  A    between atoms: CB   and  CG  
ROOT
ATOM      1  CA  PHE A  61     -36.237 128.293  12.768  1.00 39.40     0.164 C 
ENDROOT
BRANCH   1   2
ATOM      2  CB  PHE A  61     -36.813 128.951  11.509  1.00 39.41     0.058 C 
BRANCH   2   3
ATOM      3  CG  PHE A  61     -37.023 128.005  10.351  1.00 39.01    -0.020 A 
ATOM      4  CD2 PHE A  61     -36.282 126.839  10.241  1.00 40.32    -0.004 A 
ATOM      5  CE2 PHE A  61     -36.474 125.971   9.173  1.00 40.20    -0.000 A 
ATOM      6  CZ  PHE A  61     -37.412 126.257   8.207  1.00 40.34    -0.000 A 
ATOM      7  CE1 PHE A  61     -38.159 127.410   8.304  1.00 41.51    -0.000 A 
ATOM      8  CD1 PHE A  61     -37.962 128.281   9.367  1.00 39.94    -0.004 A 
ENDBRANCH   2   3
ENDBRANCH   1   2
END_RES PHE A  61
BEGIN_RES VAL A 134
REMARK  1 active torsions:
REMARK  status: ('A' for Active; 'I' for Inactive)
REMARK    3  A    between atoms: CA   and  CB  
ROOT
ATOM      9  CA  VAL A 134     -29.766 132.051   9.815  1.00 40.75     0.159 C 
ENDROOT
BRANCH   9  10
ATOM     10  CB  VAL A 134     -30.864 132.765   9.009  1.00 40.76     0.029 C 
ATOM     11  CG1 VAL A 134     -32.100 132.993   9.867  1.00 41.76     0.002 C 
ATOM     12  CG2 VAL A 134     -30.366 134.076   8.420  1.00 40.56     0.002 C 
ENDBRANCH   9  10
END_RES VAL A 134
BEGIN_RES TYR A 338
REMARK  3 active torsions:
REMARK  status: ('A' for Active; 'I' for Inactive)
REMARK    4  A    between atoms: CA   and  CB  
REMARK    5  A    between atoms: CB   and  CG  
REMARK    6  A    between atoms: CZ   and  OH  
ROOT
ATOM     13  CA  TYR A 338     -41.631 124.950   6.058  1.00 38.23     0.164 C 
ENDROOT
BRANCH  13  14
ATOM     14  CB  TYR A 338     -41.621 126.456   6.339  1.00 39.15     0.058 C 
BRANCH  14  15
ATOM     15  CG  TYR A 338     -40.419 127.212   5.820  1.00 39.03    -0.020 A 
ATOM     16  CD2 TYR A 338     -40.269 128.561   6.094  1.00 40.65    -0.002 A 
ATOM     17  CE2 TYR A 338     -39.188 129.289   5.622  1.00 40.91     0.024 A 
ATOM     18  CZ  TYR A 338     -38.224 128.665   4.852  1.00 42.33     0.089 A 
ATOM     19  CE1 TYR A 338     -38.350 127.317   4.569  1.00 40.63     0.024 A 
ATOM     20  CD1 TYR A 338     -39.445 126.609   5.040  1.00 39.27    -0.002 A 
BRANCH  18  21
ATOM     21  OH  TYR A 338     -37.151 129.372   4.385  1.00 43.36    -0.359 OA
ATOM     22  HH  TYR A 338     -36.308 128.950   4.276  1.00  0.00     0.217 HD
ENDBRANCH  18  21
ENDBRANCH  14  15
ENDBRANCH  13  14
END_RES TYR A 338
ENDMDL
MODEL 4
REMARK VINA RESULT:    -7.013      0.880     17.188
REMARK INTER + INTRA:         -10.075
REMARK INTER:                  -7.631
REMARK INTRA:                  -2.444
REMARK UNBOUND:                -3.062
REMARK  0 active torsions:
REMARK  status: ('A' for Active; 'I' for Inactive)
REMARK       I    between atoms: C3_3  and  O3_21 
REMARK       I    between atoms: C6_6  and  C7_7 
REMARK       I    between atoms: C8_8  and  C9_9 
REMARK       I    between atoms: C10_10  and  C11_11 
REMARK       I    between atoms: C12_12  and  C13_13 
REMARK       I    between atoms: C14_14  and  C15_15 
REMARK       I    between atoms: C23_25  and  O23_43 
REMARK       I    between atoms: C26_28  and  C27_29 
REMARK       I    between atoms: C28_30  and  C29_31 
REMARK       I    between atoms: C30_32  and  C31_33 
REMARK       I    between atoms: C32_34  and  C33_35 
REMARK       I    between atoms: C34_36  and  C35_37 
ROOT
HETATM    1  C1  VFQ J9621     -34.634 127.433   6.125  1.00 21.11    -0.018 C 
HETATM    2  C2  VFQ J9621     -34.244 126.842   4.760  1.00 20.11     0.045 C 
HETATM    3  C3  VFQ J9621     -32.844 127.085   4.196  1.00 19.41     0.123 C 
HETATM    4  C4  VFQ J9621     -31.940 128.017   5.015  1.00 18.39     0.066 C 
HETATM    5  C5  VFQ J9621     -32.450 128.776   6.195  1.00 18.34    -0.074 C 
HETATM    6  C6  VFQ J9621     -33.685 128.526   6.748  1.00 19.81    -0.048 C 
HETATM    7  C7  VFQ J9621     -34.236 129.200   7.945  1.00 19.02     0.009 C 
HETATM    8  C8  VFQ J9621     -34.823 130.413   7.946  1.00 17.97     0.007 C 
HETATM    9  C9  VFQ J9621     -35.390 131.138   9.087  1.00 18.85    -0.062 C 
HETATM   10  C10 VFQ J9621     -36.046 132.292   8.828  1.00 18.38     0.007 C 
HETATM   11  C11 VFQ J9621     -36.755 133.128   9.769  1.00 18.57     0.001 C 
HETATM   12  C12 VFQ J9621     -37.446 134.221   9.377  1.00 17.11     0.007 C 
HETATM   13  C13 VFQ J9621     -38.274 135.106  10.209  1.00 20.42    -0.062 C 
HETATM   14  C14 VFQ J9621     -38.915 136.131   9.602  1.00 20.50     0.007 C 
HETATM   15  C15 VFQ J9621     -39.808 137.080  10.223  1.00 20.22     0.001 C 
HETATM   16  C16 VFQ J9621     -34.725 126.193   7.049  1.00 19.56     0.020 C 
HETATM   17  C17 VFQ J9621     -36.060 127.994   5.940  1.00 18.49     0.020 C 
HETATM   18  C18 VFQ J9621     -31.391 129.708   6.656  1.00 16.89     0.044 C 
HETATM   19  C19 VFQ J9621     -35.266 130.508  10.446  1.00 14.61     0.048 C 
HETATM   20  C20 VFQ J9621     -38.388 134.796  11.684  1.00 17.59     0.048 C 
HETATM   21  O3  VFQ J9621     -32.190 125.850   3.962  1.00 18.27    -0.395 OA
ATOM     22  H3  VFQ J9621     -31.320 126.001   3.611  1.00  0.00     0.210 HD
HETATM   23  C21 VFQ J9621     -47.922 146.672  13.683  1.00 19.07    -0.018 C 
HETATM   24  C22 VFQ J9621     -48.528 147.313  14.945  1.00 18.69     0.045 C 
HETATM   25  C23 VFQ J9621     -47.624 148.229  15.766  1.00 19.88     0.123 C 
HETATM   26  C24 VFQ J9621     -46.157 147.773  15.815  1.00 19.59     0.066 C 
HETATM   27  C25 VFQ J9621     -45.592 147.107  14.599  1.00 18.61    -0.074 C 
HETATM   28  C26 VFQ J9621     -46.373 146.586  13.590  1.00 18.29    -0.048 C 
HETATM   29  C27 VFQ J9621     -45.773 145.937  12.405  1.00 19.20     0.009 C 
HETATM   30  C28 VFQ J9621     -45.244 144.691  12.310  1.00 18.47     0.007 C 
HETATM   31  C29 VFQ J9621     -44.500 144.114  11.182  1.00 19.55    -0.062 C 
HETATM   32  C30 VFQ J9621     -44.010 142.860  11.297  1.00 17.66     0.007 C 
HETATM   33  C31 VFQ J9621     -43.252 142.141  10.302  1.00 19.12     0.001 C 
HETATM   34  C32 VFQ J9621     -42.656 140.954  10.560  1.00 19.40     0.007 C 
HETATM   35  C33 VFQ J9621     -41.825 140.112   9.680  1.00 19.31    -0.062 C 
HETATM   36  C34 VFQ J9621     -41.259 139.010  10.216  1.00 17.72     0.007 C 
HETATM   37  C35 VFQ J9621     -40.377 138.086   9.558  1.00 19.92     0.001 C 
HETATM   38  C36 VFQ J9621     -48.484 147.415  12.454  1.00 17.04     0.020 C 
HETATM   39  C37 VFQ J9621     -48.531 145.259  13.723  1.00 20.18     0.020 C 
HETATM   40  C38 VFQ J9621     -44.112 147.150  14.722  1.00 19.93     0.044 C 
HETATM   41  C39 VFQ J9621     -44.269 144.997   9.984  1.00 18.53     0.048 C 
HETATM   42  C40 VFQ J9621     -41.608 140.574   8.264  1.00 15.86     0.048 C 
HETATM   43  O23 VFQ J9621     -48.140 148.388  17.080  1.00 19.51    -0.395 OA
ATOM     44  H23 VFQ J9621     -47.577 148.958  17.591  1.00  0.00     0.210 HD
ENDROOT
TORSDOF 12
BEGIN_RES PHE A  61
REMARK  2 active torsions:
REMARK  status: ('A' for Active; 'I' for Inactive)
REMARK    1  A    between atoms: CA   and  CB  
REMARK    2  A    between atoms: CB   and  CG  
ROOT
ATOM      1  CA  PHE A  61     -36.237 128.293  12.768  1.00 39.40     0.164 C 
ENDROOT
BRANCH   1   2
ATOM      2  CB  PHE A  61     -36.813 128.951  11.509  1.00 39.41     0.058 C 
BRANCH   2   3
ATOM      3  CG  PHE A  61     -37.038 128.002  10.356  1.00 39.01    -0.020 A 
ATOM      4  CD2 PHE A  61     -36.269 126.857  10.216  1.00 40.32    -0.004 A 
ATOM      5  CE2 PHE A  61     -36.476 125.987   9.153  1.00 40.20    -0.000 A 
ATOM      6  CZ  PHE A  61     -37.455 126.248   8.222  1.00 40.34    -0.000 A 
ATOM      7  CE1 PHE A  61     -38.229 127.380   8.348  1.00 41.51    -0.000 A 
ATOM      8  CD1 PHE A  61     -38.018 128.255   9.407  1.00 39.94    -0.004 A 
ENDBRANCH   2   3
ENDBRANCH   1   2
END_RES PHE A  61
BEGIN_RES VAL A 134
REMARK  1 active torsions:
REMARK  status: ('A' for Active; 'I' for Inactive)
REMARK    3  A    between atoms: CA   and  CB  
ROOT
ATOM      9  CA  VAL A 134     -29.766 132.051   9.815  1.00 40.75     0.159 C 
ENDROOT
BRANCH   9  10
ATOM     10  CB  VAL A 134     -30.864 132.765   9.009  1.00 40.76     0.029 C 
ATOM     11  CG1 VAL A 134     -30.905 132.246   7.579  1.00 41.76     0.002 C 
ATOM     12  CG2 VAL A 134     -32.226 132.629   9.673  1.00 40.56     0.002 C 
ENDBRANCH   9  10
END_RES VAL A 134
BEGIN_RES TYR A 338
REMARK  3 active torsions:
REMARK  status: ('A' for Active; 'I' for Inactive)
REMARK    4  A    between atoms: CA   and  CB  
REMARK    5  A    between atoms: CB   and  CG  
REMARK    6  A    between atoms: CZ   and  OH  
ROOT
ATOM     13  CA  TYR A 338     -41.631 124.950   6.058  1.00 38.23     0.164 C 
ENDROOT
BRANCH  13  14
ATOM     14  CB  TYR A 338     -41.621 126.456   6.339  1.00 39.15     0.058 C 
BRANCH  14  15
ATOM     15  CG  TYR A 338     -40.444 127.220   5.778  1.00 39.03    -0.020 A 
ATOM     16  CD2 TYR A 338     -40.274 128.562   6.074  1.00 40.65    -0.002 A 
ATOM     17  CE2 TYR A 338     -39.215 129.298   5.564  1.00 40.91     0.024 A 
ATOM     18  CZ  TYR A 338     -38.294 128.689   4.733  1.00 42.33     0.089 A 
ATOM     19  CE1 TYR A 338     -38.440 127.348   4.426  1.00 40.63     0.024 A 
ATOM     20  CD1 TYR A 338     -39.513 126.633   4.935  1.00 39.27    -0.002 A 
BRANCH  18  21
ATOM     21  OH  TYR A 338     -37.244 129.403   4.228  1.00 43.36    -0.359 OA
ATOM     22  HH  TYR A 338     -36.422 129.450   4.703  1.00  0.00     0.217 HD
ENDBRANCH  18  21
ENDBRANCH  14  15
ENDBRANCH  13  14
END_RES TYR A 338
ENDMDL
