MODEL 1
REMARK VINA RESULT:   -10.359      0.000      0.000
REMARK INTER + INTRA:         -13.083
REMARK INTER:                 -10.359
REMARK INTRA:                  -2.724
REMARK UNBOUND:                -2.724
REMARK  0 active torsions:
REMARK  status: ('A' for Active; 'I' for Inactive)
REMARK       I    between atoms: C3_3  and  O3_21 
REMARK       I    between atoms: C6_6  and  C7_7 
REMARK       I    between atoms: C8_8  and  C9_9 
REMARK       I    between atoms: C10_10  and  C11_11 
REMARK       I    between atoms: C12_12  and  C13_13 
REMARK       I    between atoms: C14_14  and  C15_15 
REMARK       I    between atoms: C23_25  and  O23_43 
REMARK       I    between atoms: C26_28  and  C27_29 
REMARK       I    between atoms: C28_30  and  C29_31 
REMARK       I    between atoms: C30_32  and  C31_33 
REMARK       I    between atoms: C32_34  and  C33_35 
REMARK       I    between atoms: C34_36  and  C35_37 
ROOT
HETATM    1  C1  VFQ y1621     -47.464 145.489  12.687  1.00 37.79    -0.018 C 
HETATM    2  C2  VFQ y1621     -48.378 146.110  13.730  1.00 37.79     0.045 C 
HETATM    3  C3  VFQ y1621     -47.698 146.749  14.918  1.00 37.79     0.123 C 
HETATM    4  C4  VFQ y1621     -46.622 147.684  14.432  1.00 37.79     0.066 C 
HETATM    5  C5  VFQ y1621     -45.671 147.021  13.483  1.00 37.79    -0.074 C 
HETATM    6  C6  VFQ y1621     -46.065 146.068  12.626  1.00 37.79    -0.048 C 
HETATM    7  C7  VFQ y1621     -45.160 145.575  11.552  1.00 37.79     0.009 C 
HETATM    8  C8  VFQ y1621     -44.219 144.646  11.748  1.00 37.79     0.007 C 
HETATM    9  C9  VFQ y1621     -43.350 144.169  10.670  1.00 37.79    -0.062 C 
HETATM   10  C10 VFQ y1621     -42.852 142.941  10.809  1.00 37.79     0.007 C 
HETATM   11  C11 VFQ y1621     -41.989 142.276   9.849  1.00 37.79     0.001 C 
HETATM   12  C12 VFQ y1621     -41.740 141.017  10.172  1.00 37.79     0.007 C 
HETATM   13  C13 VFQ y1621     -40.935 140.066   9.403  1.00 37.79    -0.062 C 
HETATM   14  C14 VFQ y1621     -40.669 138.882   9.958  1.00 37.79     0.007 C 
HETATM   15  C15 VFQ y1621     -39.910 137.879   9.232  1.00 37.79     0.001 C 
HETATM   16  C16 VFQ y1621     -48.208 145.594  11.364  1.00 37.79     0.020 C 
HETATM   17  C17 VFQ y1621     -47.293 144.025  13.012  1.00 37.79     0.020 C 
HETATM   18  C18 VFQ y1621     -44.367 147.745  13.358  1.00 37.79     0.044 C 
HETATM   19  C19 VFQ y1621     -43.040 145.022   9.484  1.00 37.79     0.048 C 
HETATM   20  C20 VFQ y1621     -40.447 140.401   8.029  1.00 37.79     0.048 C 
HETATM   21  O3  VFQ y1621     -48.661 147.543  15.609  1.00 37.79    -0.395 OA
ATOM     22  H3  VFQ y1621     -48.232 147.945  16.356  1.00  0.00     0.210 HD
HETATM   23  C21 VFQ y1621     -34.391 126.718   6.457  1.00 26.19    -0.018 C 
HETATM   24  C22 VFQ y1621     -33.797 125.893   5.322  1.00 26.65     0.045 C 
HETATM   25  C23 VFQ y1621     -32.576 126.457   4.621  1.00 28.07     0.123 C 
HETATM   26  C24 VFQ y1621     -32.675 127.950   4.447  1.00 30.07     0.066 C 
HETATM   27  C25 VFQ y1621     -32.881 128.585   5.784  1.00 28.83    -0.074 C 
HETATM   28  C26 VFQ y1621     -33.821 128.119   6.613  1.00 27.49    -0.048 C 
HETATM   29  C27 VFQ y1621     -34.353 128.941   7.728  1.00 29.45     0.009 C 
HETATM   30  C28 VFQ y1621     -35.190 129.963   7.532  1.00 27.83     0.007 C 
HETATM   31  C29 VFQ y1621     -35.744 130.743   8.635  1.00 37.79    -0.062 C 
HETATM   32  C30 VFQ y1621     -36.739 131.575   8.340  1.00 37.79     0.007 C 
HETATM   33  C31 VFQ y1621     -37.413 132.431   9.298  1.00 37.79     0.001 C 
HETATM   34  C32 VFQ y1621     -37.764 133.612   8.820  1.00 37.79     0.007 C 
HETATM   35  C33 VFQ y1621     -38.466 134.609   9.627  1.00 37.79    -0.062 C 
HETATM   36  C34 VFQ y1621     -38.769 135.786   9.080  1.00 37.79     0.007 C 
HETATM   37  C35 VFQ y1621     -39.492 136.787   9.847  1.00 37.79     0.001 C 
HETATM   38  C36 VFQ y1621     -34.155 125.988   7.772  1.00 26.46     0.020 C 
HETATM   39  C37 VFQ y1621     -35.880 126.773   6.166  1.00 26.61     0.020 C 
HETATM   40  C38 VFQ y1621     -31.987 129.731   6.121  1.00 29.43     0.044 C 
HETATM   41  C39 VFQ y1621     -35.205 130.601  10.021  1.00 37.79     0.048 C 
HETATM   42  C40 VFQ y1621     -38.851 134.287  11.032  1.00 37.79     0.048 C 
HETATM   43  O23 VFQ y1621     -32.463 125.850   3.337  1.00 27.44    -0.395 OA
ATOM     44  H23 VFQ y1621     -31.698 126.203   2.898  1.00  0.00     0.210 HD
ENDROOT
TORSDOF 12
BEGIN_RES PHE A  61
REMARK  2 active torsions:
REMARK  status: ('A' for Active; 'I' for Inactive)
REMARK    1  A    between atoms: CA   and  CB  
REMARK    2  A    between atoms: CB   and  CG  
ROOT
ATOM      1  CA  PHE A  61     -36.237 128.293  12.768  1.00 39.40     0.164 C 
ENDROOT
BRANCH   1   2
ATOM      2  CB  PHE A  61     -36.813 128.951  11.509  1.00 39.41     0.058 C 
BRANCH   2   3
ATOM      3  CG  PHE A  61     -37.087 127.993  10.374  1.00 39.01    -0.020 A 
ATOM      4  CD2 PHE A  61     -36.367 126.816  10.246  1.00 40.32    -0.004 A 
ATOM      5  CE2 PHE A  61     -36.618 125.938   9.200  1.00 40.20    -0.000 A 
ATOM      6  CZ  PHE A  61     -37.595 126.224   8.273  1.00 40.34    -0.000 A 
ATOM      7  CE1 PHE A  61     -38.321 127.388   8.387  1.00 41.51    -0.000 A 
ATOM      8  CD1 PHE A  61     -38.065 128.270   9.430  1.00 39.94    -0.004 A 
ENDBRANCH   2   3
ENDBRANCH   1   2
END_RES PHE A  61
BEGIN_RES VAL A 134
REMARK  1 active torsions:
REMARK  status: ('A' for Active; 'I' for Inactive)
REMARK    3  A    between atoms: CA   and  CB  
ROOT
ATOM      9  CA  VAL A 134     -29.766 132.051   9.815  1.00 40.75     0.159 C 
ENDROOT
BRANCH   9  10
ATOM     10  CB  VAL A 134     -30.864 132.765   9.009  1.00 40.76     0.029 C 
ATOM     11  CG1 VAL A 134     -31.171 132.005   7.727  1.00 41.76     0.002 C 
ATOM     12  CG2 VAL A 134     -32.126 132.964   9.834  1.00 40.56     0.002 C 
ENDBRANCH   9  10
END_RES VAL A 134
BEGIN_RES TYR A 338
REMARK  3 active torsions:
REMARK  status: ('A' for Active; 'I' for Inactive)
REMARK    4  A    between atoms: CA   and  CB  
REMARK    5  A    between atoms: CB   and  CG  
REMARK    6  A    between atoms: CZ   and  OH  
ROOT
ATOM     13  CA  TYR A 338     -41.631 124.950   6.058  1.00 38.23     0.164 C 
ENDROOT
BRANCH  13  14
ATOM     14  CB  TYR A 338     -41.621 126.456   6.339  1.00 39.15     0.058 C 
BRANCH  14  15
ATOM     15  CG  TYR A 338     -40.400 127.205   5.857  1.00 39.03    -0.020 A 
ATOM     16  CD2 TYR A 338     -40.219 128.537   6.189  1.00 40.65    -0.002 A 
ATOM     17  CE2 TYR A 338     -39.119 129.259   5.751  1.00 40.91     0.024 A 
ATOM     18  CZ  TYR A 338     -38.167 128.647   4.958  1.00 42.33     0.089 A 
ATOM     19  CE1 TYR A 338     -38.324 127.315   4.617  1.00 40.63     0.024 A 
ATOM     20  CD1 TYR A 338     -39.437 126.614   5.054  1.00 39.27    -0.002 A 
BRANCH  18  21
ATOM     21  OH  TYR A 338     -37.077 129.348   4.525  1.00 43.36    -0.359 OA
ATOM     22  HH  TYR A 338     -37.001 129.603   3.613  1.00  0.00     0.217 HD
ENDBRANCH  18  21
ENDBRANCH  14  15
ENDBRANCH  13  14
END_RES TYR A 338
ENDMDL
MODEL 2
REMARK VINA RESULT:    -7.420      1.682     16.716
REMARK INTER + INTRA:         -10.144
REMARK INTER:                  -5.194
REMARK INTRA:                  -4.950
REMARK UNBOUND:                -2.724
REMARK  0 active torsions:
REMARK  status: ('A' for Active; 'I' for Inactive)
REMARK       I    between atoms: C3_3  and  O3_21 
REMARK       I    between atoms: C6_6  and  C7_7 
REMARK       I    between atoms: C8_8  and  C9_9 
REMARK       I    between atoms: C10_10  and  C11_11 
REMARK       I    between atoms: C12_12  and  C13_13 
REMARK       I    between atoms: C14_14  and  C15_15 
REMARK       I    between atoms: C23_25  and  O23_43 
REMARK       I    between atoms: C26_28  and  C27_29 
REMARK       I    between atoms: C28_30  and  C29_31 
REMARK       I    between atoms: C30_32  and  C31_33 
REMARK       I    between atoms: C32_34  and  C33_35 
REMARK       I    between atoms: C34_36  and  C35_37 
ROOT
HETATM    1  C1  VFQ y1621     -34.542 127.031   5.465  1.00 37.79    -0.018 C 
HETATM    2  C2  VFQ y1621     -33.871 126.215   4.373  1.00 37.79     0.045 C 
HETATM    3  C3  VFQ y1621     -32.682 126.856   3.696  1.00 37.79     0.123 C 
HETATM    4  C4  VFQ y1621     -31.723 127.359   4.742  1.00 37.79     0.066 C 
HETATM    5  C5  VFQ y1621     -32.388 128.245   5.750  1.00 37.79    -0.074 C 
HETATM    6  C6  VFQ y1621     -33.656 128.055   6.145  1.00 37.79    -0.048 C 
HETATM    7  C7  VFQ y1621     -34.226 128.808   7.295  1.00 37.79     0.009 C 
HETATM    8  C8  VFQ y1621     -34.717 130.048   7.195  1.00 37.79     0.007 C 
HETATM    9  C9  VFQ y1621     -35.285 130.762   8.341  1.00 37.79    -0.062 C 
HETATM   10  C10 VFQ y1621     -36.187 131.702   8.065  1.00 37.79     0.007 C 
HETATM   11  C11 VFQ y1621     -36.882 132.509   9.052  1.00 37.79     0.001 C 
HETATM   12  C12 VFQ y1621     -37.814 133.281   8.518  1.00 37.79     0.007 C 
HETATM   13  C13 VFQ y1621     -38.711 134.186   9.240  1.00 37.79    -0.062 C 
HETATM   14  C14 VFQ y1621     -39.488 134.998   8.520  1.00 37.79     0.007 C 
HETATM   15  C15 VFQ y1621     -40.429 135.892   9.174  1.00 37.79     0.001 C 
HETATM   16  C16 VFQ y1621     -35.136 126.022   6.436  1.00 37.79     0.020 C 
HETATM   17  C17 VFQ y1621     -35.678 127.811   4.848  1.00 37.79     0.020 C 
HETATM   18  C18 VFQ y1621     -31.421 129.115   6.494  1.00 37.79     0.044 C 
HETATM   19  C19 VFQ y1621     -34.868 130.447   9.740  1.00 37.79     0.048 C 
HETATM   20  C20 VFQ y1621     -38.772 134.184  10.734  1.00 37.79     0.048 C 
HETATM   21  O3  VFQ y1621     -31.998 125.850   2.950  1.00 37.79    -0.395 OA
ATOM     22  H3  VFQ y1621     -31.250 126.254   2.524  1.00  0.00     0.210 HD
HETATM   23  C21 VFQ y1621     -49.800 144.419  10.655  1.00 26.19    -0.018 C 
HETATM   24  C22 VFQ y1621     -50.776 145.003  11.669  1.00 26.65     0.045 C 
HETATM   25  C23 VFQ y1621     -50.184 145.727  12.863  1.00 28.07     0.123 C 
HETATM   26  C24 VFQ y1621     -48.947 145.035  13.375  1.00 30.07     0.066 C 
HETATM   27  C25 VFQ y1621     -47.958 144.917  12.261  1.00 28.83    -0.074 C 
HETATM   28  C26 VFQ y1621     -48.337 144.438  11.072  1.00 27.49    -0.048 C 
HETATM   29  C27 VFQ y1621     -47.354 143.905  10.097  1.00 29.45     0.009 C 
HETATM   30  C28 VFQ y1621     -46.752 142.724  10.255  1.00 27.83     0.007 C 
HETATM   31  C29 VFQ y1621     -45.816 142.185   9.273  1.00 37.79    -0.062 C 
HETATM   32  C30 VFQ y1621     -45.463 140.910   9.418  1.00 37.79     0.007 C 
HETATM   33  C31 VFQ y1621     -44.546 140.201   8.545  1.00 37.79     0.001 C 
HETATM   34  C32 VFQ y1621     -43.767 139.332   9.166  1.00 37.79     0.007 C 
HETATM   35  C33 VFQ y1621     -42.787 138.510   8.457  1.00 37.79    -0.062 C 
HETATM   36  C34 VFQ y1621     -42.023 137.670   9.154  1.00 37.79     0.007 C 
HETATM   37  C35 VFQ y1621     -41.059 136.818   8.476  1.00 37.79     0.001 C 
HETATM   38  C36 VFQ y1621     -49.908 145.205   9.357  1.00 26.46     0.020 C 
HETATM   39  C37 VFQ y1621     -50.276 142.994  10.428  1.00 26.61     0.020 C 
HETATM   40  C38 VFQ y1621     -46.565 145.364  12.557  1.00 29.43     0.044 C 
HETATM   41  C39 VFQ y1621     -45.290 143.038   8.165  1.00 37.79     0.048 C 
HETATM   42  C40 VFQ y1621     -42.675 138.607   6.972  1.00 37.79     0.048 C 
HETATM   43  O23 VFQ y1621     -51.155 145.764  13.905  1.00 27.44    -0.395 OA
ATOM     44  H23 VFQ y1621     -50.784 146.218  14.653  1.00  0.00     0.210 HD
ENDROOT
TORSDOF 12
BEGIN_RES PHE A  61
REMARK  2 active torsions:
REMARK  status: ('A' for Active; 'I' for Inactive)
REMARK    1  A    between atoms: CA   and  CB  
REMARK    2  A    between atoms: CB   and  CG  
ROOT
ATOM      1  CA  PHE A  61     -36.237 128.293  12.768  1.00 39.40     0.164 C 
ENDROOT
BRANCH   1   2
ATOM      2  CB  PHE A  61     -36.813 128.951  11.509  1.00 39.41     0.058 C 
BRANCH   2   3
ATOM      3  CG  PHE A  61     -36.888 128.040  10.307  1.00 39.01    -0.020 A 
ATOM      4  CD2 PHE A  61     -37.898 128.182   9.368  1.00 40.32    -0.004 A 
ATOM      5  CE2 PHE A  61     -37.967 127.340   8.265  1.00 40.20    -0.000 A 
ATOM      6  CZ  PHE A  61     -37.027 126.351   8.086  1.00 40.34    -0.000 A 
ATOM      7  CE1 PHE A  61     -36.016 126.199   9.009  1.00 41.51    -0.000 A 
ATOM      8  CD1 PHE A  61     -35.950 127.035  10.116  1.00 39.94    -0.004 A 
ENDBRANCH   2   3
ENDBRANCH   1   2
END_RES PHE A  61
BEGIN_RES VAL A 134
REMARK  1 active torsions:
REMARK  status: ('A' for Active; 'I' for Inactive)
REMARK    3  A    between atoms: CA   and  CB  
ROOT
ATOM      9  CA  VAL A 134     -29.766 132.051   9.815  1.00 40.75     0.159 C 
ENDROOT
BRANCH   9  10
ATOM     10  CB  VAL A 134     -30.864 132.765   9.009  1.00 40.76     0.029 C 
ATOM     11  CG1 VAL A 134     -31.178 131.999   7.732  1.00 41.76     0.002 C 
ATOM     12  CG2 VAL A 134     -32.122 132.974   9.837  1.00 40.56     0.002 C 
ENDBRANCH   9  10
END_RES VAL A 134
BEGIN_RES TYR A 338
REMARK  3 active torsions:
REMARK  status: ('A' for Active; 'I' for Inactive)
REMARK    4  A    between atoms: CA   and  CB  
REMARK    5  A    between atoms: CB   and  CG  
REMARK    6  A    between atoms: CZ   and  OH  
ROOT
ATOM     13  CA  TYR A 338     -41.631 124.950   6.058  1.00 38.23     0.164 C 
ENDROOT
BRANCH  13  14
ATOM     14  CB  TYR A 338     -41.621 126.456   6.339  1.00 39.15     0.058 C 
BRANCH  14  15
ATOM     15  CG  TYR A 338     -40.417 127.211   5.825  1.00 39.03    -0.020 A 
ATOM     16  CD2 TYR A 338     -40.232 128.543   6.154  1.00 40.65    -0.002 A 
ATOM     17  CE2 TYR A 338     -39.148 129.271   5.688  1.00 40.91     0.024 A 
ATOM     18  CZ  TYR A 338     -38.216 128.664   4.868  1.00 42.33     0.089 A 
ATOM     19  CE1 TYR A 338     -38.376 127.332   4.529  1.00 40.63     0.024 A 
ATOM     20  CD1 TYR A 338     -39.474 126.625   4.995  1.00 39.27    -0.002 A 
BRANCH  18  21
ATOM     21  OH  TYR A 338     -37.141 129.370   4.406  1.00 43.36    -0.359 OA
ATOM     22  HH  TYR A 338     -36.258 129.051   4.551  1.00  0.00     0.217 HD
ENDBRANCH  18  21
ENDBRANCH  14  15
ENDBRANCH  13  14
END_RES TYR A 338
ENDMDL
