MODEL 1
REMARK VINA RESULT:   -11.367      0.000      0.000
REMARK INTER + INTRA:         -14.038
REMARK INTER:                 -11.367
REMARK INTRA:                  -2.671
REMARK UNBOUND:                -2.671
REMARK  0 active torsions:
REMARK  status: ('A' for Active; 'I' for Inactive)
REMARK       I    between atoms: C3_3  and  O3_21 
REMARK       I    between atoms: C6_6  and  C7_7 
REMARK       I    between atoms: C8_8  and  C9_9 
REMARK       I    between atoms: C10_10  and  C11_11 
REMARK       I    between atoms: C12_12  and  C13_13 
REMARK       I    between atoms: C14_14  and  C15_15 
REMARK       I    between atoms: C23_25  and  O23_43 
REMARK       I    between atoms: C26_28  and  C27_29 
REMARK       I    between atoms: C28_30  and  C29_31 
REMARK       I    between atoms: C30_32  and  C31_33 
REMARK       I    between atoms: C32_34  and  C33_35 
REMARK       I    between atoms: C34_36  and  C35_37 
ROOT
HETATM    1  C1  VFQ 71621     -34.424 127.008   6.368  1.00 71.39    -0.018 C 
HETATM    2  C2  VFQ 71621     -34.105 126.525   4.959  1.00 71.39     0.045 C 
HETATM    3  C3  VFQ 71621     -32.940 127.178   4.225  1.00 71.39     0.123 C 
HETATM    4  C4  VFQ 71621     -31.880 127.665   5.189  1.00 71.39     0.066 C 
HETATM    5  C5  VFQ 71621     -32.557 128.598   6.147  1.00 71.39    -0.074 C 
HETATM    6  C6  VFQ 71621     -33.665 128.244   6.795  1.00 71.39    -0.048 C 
HETATM    7  C7  VFQ 71621     -34.194 129.027   7.944  1.00 71.39     0.009 C 
HETATM    8  C8  VFQ 71621     -34.951 130.111   7.761  1.00 71.39     0.007 C 
HETATM    9  C9  VFQ 71621     -35.536 130.922   8.843  1.00 71.39    -0.062 C 
HETATM   10  C10 VFQ 71621     -36.425 131.847   8.472  1.00 71.39     0.007 C 
HETATM   11  C11 VFQ 71621     -37.164 132.755   9.343  1.00 71.39     0.001 C 
HETATM   12  C12 VFQ 71621     -38.024 133.545   8.701  1.00 71.39     0.007 C 
HETATM   13  C13 VFQ 71621     -38.914 134.526   9.342  1.00 71.39    -0.062 C 
HETATM   14  C14 VFQ 71621     -39.747 135.222   8.559  1.00 71.39     0.007 C 
HETATM   15  C15 VFQ 71621     -40.695 136.182   9.109  1.00 71.39     0.001 C 
HETATM   16  C16 VFQ 71621     -34.181 125.854   7.333  1.00 71.39     0.020 C 
HETATM   17  C17 VFQ 71621     -35.899 127.351   6.421  1.00 71.39     0.020 C 
HETATM   18  C18 VFQ 71621     -31.603 129.606   6.687  1.00 71.39     0.044 C 
HETATM   19  C19 VFQ 71621     -35.178 130.717  10.281  1.00 71.39     0.048 C 
HETATM   20  C20 VFQ 71621     -38.908 134.721  10.824  1.00 71.39     0.048 C 
HETATM   21  O3  VFQ 71621     -32.334 126.211   3.360  1.00 71.39    -0.395 OA
ATOM     22  H3  VFQ 71621     -32.999 125.905   2.756  1.00  0.00     0.210 HD
HETATM   23  C21 VFQ 71621     -50.337 144.203  10.672  1.00 72.69    -0.018 C 
HETATM   24  C22 VFQ 71621     -51.268 145.111  11.476  1.00 72.50     0.045 C 
HETATM   25  C23 VFQ 71621     -50.634 146.165  12.379  1.00 72.53     0.123 C 
HETATM   26  C24 VFQ 71621     -49.261 145.748  12.879  1.00 73.67     0.066 C 
HETATM   27  C25 VFQ 71621     -48.396 145.364  11.710  1.00 74.71    -0.074 C 
HETATM   28  C26 VFQ 71621     -48.871 144.573  10.750  1.00 74.26    -0.048 C 
HETATM   29  C27 VFQ 71621     -47.962 144.001   9.733  1.00 75.37     0.009 C 
HETATM   30  C28 VFQ 71621     -47.268 142.898  10.016  1.00 77.10     0.007 C 
HETATM   31  C29 VFQ 71621     -46.362 142.272   9.046  1.00 71.39    -0.062 C 
HETATM   32  C30 VFQ 71621     -45.936 141.035   9.318  1.00 71.39     0.007 C 
HETATM   33  C31 VFQ 71621     -45.040 140.277   8.454  1.00 71.39     0.001 C 
HETATM   34  C32 VFQ 71621     -44.196 139.447   9.050  1.00 71.39     0.007 C 
HETATM   35  C33 VFQ 71621     -43.246 138.617   8.302  1.00 71.39    -0.062 C 
HETATM   36  C34 VFQ 71621     -42.404 137.830   8.974  1.00 71.39     0.007 C 
HETATM   37  C35 VFQ 71621     -41.448 136.946   8.321  1.00 71.39     0.001 C 
HETATM   38  C36 VFQ 71621     -50.742 144.268   9.205  1.00 72.40     0.020 C 
HETATM   39  C37 VFQ 71621     -50.511 142.777  11.176  1.00 73.92     0.020 C 
HETATM   40  C38 VFQ 71621     -46.990 145.889  11.651  1.00 74.98     0.044 C 
HETATM   41  C39 VFQ 71621     -45.943 142.999   7.808  1.00 71.39     0.048 C 
HETATM   42  C40 VFQ 71621     -43.248 138.684   6.816  1.00 71.39     0.048 C 
HETATM   43  O23 VFQ 71621     -51.489 146.361  13.512  1.00 71.08    -0.395 OA
ATOM     44  H23 VFQ 71621     -51.094 147.017  14.074  1.00  0.00     0.210 HD
ENDROOT
TORSDOF 12
BEGIN_RES PHE A  61
REMARK  2 active torsions:
REMARK  status: ('A' for Active; 'I' for Inactive)
REMARK    1  A    between atoms: CA   and  CB  
REMARK    2  A    between atoms: CB   and  CG  
ROOT
ATOM      1  CA  PHE A  61     -36.237 128.293  12.768  1.00 39.40     0.164 C 
ENDROOT
BRANCH   1   2
ATOM      2  CB  PHE A  61     -36.813 128.951  11.509  1.00 39.41     0.058 C 
BRANCH   2   3
ATOM      3  CG  PHE A  61     -37.069 127.996  10.367  1.00 39.01    -0.020 A 
ATOM      4  CD2 PHE A  61     -36.321 126.838  10.227  1.00 40.32    -0.004 A 
ATOM      5  CE2 PHE A  61     -36.556 125.962   9.174  1.00 40.20    -0.000 A 
ATOM      6  CZ  PHE A  61     -37.542 126.232   8.254  1.00 40.34    -0.000 A 
ATOM      7  CE1 PHE A  61     -38.295 127.378   8.380  1.00 41.51    -0.000 A 
ATOM      8  CD1 PHE A  61     -38.057 128.258   9.429  1.00 39.94    -0.004 A 
ENDBRANCH   2   3
ENDBRANCH   1   2
END_RES PHE A  61
BEGIN_RES VAL A 134
REMARK  1 active torsions:
REMARK  status: ('A' for Active; 'I' for Inactive)
REMARK    3  A    between atoms: CA   and  CB  
ROOT
ATOM      9  CA  VAL A 134     -29.766 132.051   9.815  1.00 40.75     0.159 C 
ENDROOT
BRANCH   9  10
ATOM     10  CB  VAL A 134     -30.864 132.765   9.009  1.00 40.76     0.029 C 
ATOM     11  CG1 VAL A 134     -30.921 132.230   7.586  1.00 41.76     0.002 C 
ATOM     12  CG2 VAL A 134     -32.222 132.649   9.685  1.00 40.56     0.002 C 
ENDBRANCH   9  10
END_RES VAL A 134
BEGIN_RES TYR A 338
REMARK  3 active torsions:
REMARK  status: ('A' for Active; 'I' for Inactive)
REMARK    4  A    between atoms: CA   and  CB  
REMARK    5  A    between atoms: CB   and  CG  
REMARK    6  A    between atoms: CZ   and  OH  
ROOT
ATOM     13  CA  TYR A 338     -41.631 124.950   6.058  1.00 38.23     0.164 C 
ENDROOT
BRANCH  13  14
ATOM     14  CB  TYR A 338     -41.621 126.456   6.339  1.00 39.15     0.058 C 
BRANCH  14  15
ATOM     15  CG  TYR A 338     -40.419 127.212   5.822  1.00 39.03    -0.020 A 
ATOM     16  CD2 TYR A 338     -40.242 128.548   6.138  1.00 40.65    -0.002 A 
ATOM     17  CE2 TYR A 338     -39.159 129.276   5.669  1.00 40.91     0.024 A 
ATOM     18  CZ  TYR A 338     -38.221 128.665   4.858  1.00 42.33     0.089 A 
ATOM     19  CE1 TYR A 338     -38.374 127.329   4.532  1.00 40.63     0.024 A 
ATOM     20  CD1 TYR A 338     -39.470 126.622   5.001  1.00 39.27    -0.002 A 
BRANCH  18  21
ATOM     21  OH  TYR A 338     -37.148 129.372   4.393  1.00 43.36    -0.359 OA
ATOM     22  HH  TYR A 338     -37.256 130.004   3.692  1.00  0.00     0.217 HD
ENDBRANCH  18  21
ENDBRANCH  14  15
ENDBRANCH  13  14
END_RES TYR A 338
ENDMDL
MODEL 2
REMARK VINA RESULT:    -8.377      1.108     16.761
REMARK INTER + INTRA:         -11.048
REMARK INTER:                 -11.073
REMARK INTRA:                   0.025
REMARK UNBOUND:                -2.671
REMARK  0 active torsions:
REMARK  status: ('A' for Active; 'I' for Inactive)
REMARK       I    between atoms: C3_3  and  O3_21 
REMARK       I    between atoms: C6_6  and  C7_7 
REMARK       I    between atoms: C8_8  and  C9_9 
REMARK       I    between atoms: C10_10  and  C11_11 
REMARK       I    between atoms: C12_12  and  C13_13 
REMARK       I    between atoms: C14_14  and  C15_15 
REMARK       I    between atoms: C23_25  and  O23_43 
REMARK       I    between atoms: C26_28  and  C27_29 
REMARK       I    between atoms: C28_30  and  C29_31 
REMARK       I    between atoms: C30_32  and  C31_33 
REMARK       I    between atoms: C32_34  and  C33_35 
REMARK       I    between atoms: C34_36  and  C35_37 
ROOT
HETATM    1  C1  VFQ 71621     -50.563 144.932  10.377  1.00 71.39    -0.018 C 
HETATM    2  C2  VFQ 71621     -51.291 145.135  11.700  1.00 71.39     0.045 C 
HETATM    3  C3  VFQ 71621     -50.719 146.146  12.685  1.00 71.39     0.123 C 
HETATM    4  C4  VFQ 71621     -49.980 147.259  11.972  1.00 71.39     0.066 C 
HETATM    5  C5  VFQ 71621     -48.925 146.611  11.127  1.00 71.39    -0.074 C 
HETATM    6  C6  VFQ 71621     -49.219 145.619  10.289  1.00 71.39    -0.048 C 
HETATM    7  C7  VFQ 71621     -48.263 145.153   9.249  1.00 71.39     0.009 C 
HETATM    8  C8  VFQ 71621     -47.290 144.285   9.534  1.00 71.39     0.007 C 
HETATM    9  C9  VFQ 71621     -46.323 143.753   8.557  1.00 71.39    -0.062 C 
HETATM   10  C10 VFQ 71621     -45.551 142.748   8.978  1.00 71.39     0.007 C 
HETATM   11  C11 VFQ 71621     -44.542 142.031   8.206  1.00 71.39     0.001 C 
HETATM   12  C12 VFQ 71621     -43.954 141.036   8.869  1.00 71.39     0.007 C 
HETATM   13  C13 VFQ 71621     -42.928 140.139   8.315  1.00 71.39    -0.062 C 
HETATM   14  C14 VFQ 71621     -42.458 139.163   9.101  1.00 71.39     0.007 C 
HETATM   15  C15 VFQ 71621     -41.475 138.199   8.625  1.00 71.39     0.001 C 
HETATM   16  C16 VFQ 71621     -51.485 145.386   9.251  1.00 71.39     0.020 C 
HETATM   17  C17 VFQ 71621     -50.317 143.448  10.202  1.00 71.39     0.020 C 
HETATM   18  C18 VFQ 71621     -47.768 147.524  10.912  1.00 71.39     0.044 C 
HETATM   19  C19 VFQ 71621     -46.216 144.287   7.164  1.00 71.39     0.048 C 
HETATM   20  C20 VFQ 71621     -42.445 140.293   6.909  1.00 71.39     0.048 C 
HETATM   21  O3  VFQ 71621     -51.793 146.736  13.423  1.00 71.39    -0.395 OA
ATOM     22  H3  VFQ 71621     -52.257 146.038  13.870  1.00  0.00     0.210 HD
HETATM   23  C21 VFQ 71621     -33.974 128.103   7.375  1.00 72.69    -0.018 C 
HETATM   24  C22 VFQ 71621     -32.991 127.189   6.643  1.00 72.50     0.045 C 
HETATM   25  C23 VFQ 71621     -31.740 127.822   6.042  1.00 72.53     0.123 C 
HETATM   26  C24 VFQ 71621     -31.956 129.274   5.652  1.00 73.67     0.066 C 
HETATM   27  C25 VFQ 71621     -32.503 130.035   6.829  1.00 74.71    -0.074 C 
HETATM   28  C26 VFQ 71621     -33.497 129.529   7.555  1.00 74.26    -0.048 C 
HETATM   29  C27 VFQ 71621     -34.196 130.367   8.555  1.00 75.37     0.009 C 
HETATM   30  C28 VFQ 71621     -35.172 131.185   8.161  1.00 77.10     0.007 C 
HETATM   31  C29 VFQ 71621     -35.915 132.031   9.105  1.00 71.39    -0.062 C 
HETATM   32  C30 VFQ 71621     -37.041 132.595   8.662  1.00 71.39     0.007 C 
HETATM   33  C31 VFQ 71621     -37.893 133.454   9.476  1.00 71.39     0.001 C 
HETATM   34  C32 VFQ 71621     -38.530 134.431   8.847  1.00 71.39     0.007 C 
HETATM   35  C33 VFQ 71621     -39.424 135.363   9.542  1.00 71.39    -0.062 C 
HETATM   36  C34 VFQ 71621     -40.005 136.343   8.847  1.00 71.39     0.007 C 
HETATM   37  C35 VFQ 71621     -40.934 137.297   9.440  1.00 71.39     0.001 C 
HETATM   38  C36 VFQ 71621     -34.227 127.533   8.765  1.00 72.40     0.020 C 
HETATM   39  C37 VFQ 71621     -35.282 128.117   6.595  1.00 73.92     0.020 C 
HETATM   40  C38 VFQ 71621     -31.906 131.372   7.164  1.00 74.98     0.044 C 
HETATM   41  C39 VFQ 71621     -35.419 132.240  10.500  1.00 71.39     0.048 C 
HETATM   42  C40 VFQ 71621     -39.652 135.189  11.001  1.00 71.39     0.048 C 
HETATM   43  O23 VFQ 71621     -31.383 127.085   4.866  1.00 71.08    -0.395 OA
ATOM     44  H23 VFQ 71621     -30.603 127.479   4.492  1.00  0.00     0.210 HD
ENDROOT
TORSDOF 12
BEGIN_RES PHE A  61
REMARK  2 active torsions:
REMARK  status: ('A' for Active; 'I' for Inactive)
REMARK    1  A    between atoms: CA   and  CB  
REMARK    2  A    between atoms: CB   and  CG  
ROOT
ATOM      1  CA  PHE A  61     -36.237 128.293  12.768  1.00 39.40     0.164 C 
ENDROOT
BRANCH   1   2
ATOM      2  CB  PHE A  61     -36.813 128.951  11.509  1.00 39.41     0.058 C 
BRANCH   2   3
ATOM      3  CG  PHE A  61     -37.050 128.000  10.361  1.00 39.01    -0.020 A 
ATOM      4  CD2 PHE A  61     -36.381 126.788  10.291  1.00 40.32    -0.004 A 
ATOM      5  CE2 PHE A  61     -36.598 125.915   9.232  1.00 40.20    -0.000 A 
ATOM      6  CZ  PHE A  61     -37.488 126.242   8.234  1.00 40.34    -0.000 A 
ATOM      7  CE1 PHE A  61     -38.162 127.442   8.290  1.00 41.51    -0.000 A 
ATOM      8  CD1 PHE A  61     -37.940 128.318   9.345  1.00 39.94    -0.004 A 
ENDBRANCH   2   3
ENDBRANCH   1   2
END_RES PHE A  61
BEGIN_RES VAL A 134
REMARK  1 active torsions:
REMARK  status: ('A' for Active; 'I' for Inactive)
REMARK    3  A    between atoms: CA   and  CB  
ROOT
ATOM      9  CA  VAL A 134     -29.766 132.051   9.815  1.00 40.75     0.159 C 
ENDROOT
BRANCH   9  10
ATOM     10  CB  VAL A 134     -30.864 132.765   9.009  1.00 40.76     0.029 C 
ATOM     11  CG1 VAL A 134     -32.107 132.975   9.862  1.00 41.76     0.002 C 
ATOM     12  CG2 VAL A 134     -30.371 134.085   8.437  1.00 40.56     0.002 C 
ENDBRANCH   9  10
END_RES VAL A 134
BEGIN_RES TYR A 338
REMARK  3 active torsions:
REMARK  status: ('A' for Active; 'I' for Inactive)
REMARK    4  A    between atoms: CA   and  CB  
REMARK    5  A    between atoms: CB   and  CG  
REMARK    6  A    between atoms: CZ   and  OH  
ROOT
ATOM     13  CA  TYR A 338     -41.631 124.950   6.058  1.00 38.23     0.164 C 
ENDROOT
BRANCH  13  14
ATOM     14  CB  TYR A 338     -41.621 126.456   6.339  1.00 39.15     0.058 C 
BRANCH  14  15
ATOM     15  CG  TYR A 338     -40.414 127.210   5.831  1.00 39.03    -0.020 A 
ATOM     16  CD2 TYR A 338     -40.256 128.555   6.118  1.00 40.65    -0.002 A 
ATOM     17  CE2 TYR A 338     -39.170 129.282   5.656  1.00 40.91     0.024 A 
ATOM     18  CZ  TYR A 338     -38.207 128.660   4.884  1.00 42.33     0.089 A 
ATOM     19  CE1 TYR A 338     -38.339 127.315   4.588  1.00 40.63     0.024 A 
ATOM     20  CD1 TYR A 338     -39.440 126.609   5.049  1.00 39.27    -0.002 A 
BRANCH  18  21
ATOM     21  OH  TYR A 338     -37.129 129.365   4.426  1.00 43.36    -0.359 OA
ATOM     22  HH  TYR A 338     -37.211 129.930   3.667  1.00  0.00     0.217 HD
ENDBRANCH  18  21
ENDBRANCH  14  15
ENDBRANCH  13  14
END_RES TYR A 338
ENDMDL
