MODEL 1
REMARK VINA RESULT:   -11.573      0.000      0.000
REMARK INTER + INTRA:         -14.116
REMARK INTER:                 -11.573
REMARK INTRA:                  -2.543
REMARK UNBOUND:                -2.543
REMARK  0 active torsions:
REMARK  status: ('A' for Active; 'I' for Inactive)
REMARK       I    between atoms: C3_3  and  O3_21 
REMARK       I    between atoms: C6_6  and  C7_7 
REMARK       I    between atoms: C8_8  and  C9_9 
REMARK       I    between atoms: C10_10  and  C11_11 
REMARK       I    between atoms: C12_12  and  C13_13 
REMARK       I    between atoms: C14_14  and  C15_15 
REMARK       I    between atoms: C23_25  and  O23_43 
REMARK       I    between atoms: C26_28  and  C27_29 
REMARK       I    between atoms: C28_30  and  C29_31 
REMARK       I    between atoms: C30_32  and  C31_33 
REMARK       I    between atoms: C32_34  and  C33_35 
REMARK       I    between atoms: C34_36  and  C35_37 
ROOT
HETATM    1  C1  VFQ 71621     -34.263 127.410   6.645  1.00 71.39    -0.018 C 
HETATM    2  C2  VFQ 71621     -33.787 126.993   5.259  1.00 71.39     0.045 C 
HETATM    3  C3  VFQ 71621     -32.536 127.659   4.700  1.00 71.39     0.123 C 
HETATM    4  C4  VFQ 71621     -31.589 128.077   5.805  1.00 71.39     0.066 C 
HETATM    5  C5  VFQ 71621     -32.361 128.973   6.726  1.00 71.39    -0.074 C 
HETATM    6  C6  VFQ 71621     -33.542 128.608   7.221  1.00 71.39    -0.048 C 
HETATM    7  C7  VFQ 71621     -34.192 129.342   8.340  1.00 71.39     0.009 C 
HETATM    8  C8  VFQ 71621     -34.907 130.449   8.127  1.00 71.39     0.007 C 
HETATM    9  C9  VFQ 71621     -35.604 131.215   9.175  1.00 71.39    -0.062 C 
HETATM   10  C10 VFQ 71621     -36.431 132.176   8.752  1.00 71.39     0.007 C 
HETATM   11  C11 VFQ 71621     -37.255 133.052   9.578  1.00 71.39     0.001 C 
HETATM   12  C12 VFQ 71621     -38.023 133.890   8.882  1.00 71.39     0.007 C 
HETATM   13  C13 VFQ 71621     -38.968 134.854   9.466  1.00 71.39    -0.062 C 
HETATM   14  C14 VFQ 71621     -39.695 135.605   8.630  1.00 71.39     0.007 C 
HETATM   15  C15 VFQ 71621     -40.688 136.554   9.115  1.00 71.39     0.001 C 
HETATM   16  C16 VFQ 71621     -34.150 126.205   7.570  1.00 71.39     0.020 C 
HETATM   17  C17 VFQ 71621     -35.728 127.779   6.543  1.00 71.39     0.020 C 
HETATM   18  C18 VFQ 71621     -31.464 129.934   7.425  1.00 71.39     0.044 C 
HETATM   19  C19 VFQ 71621     -35.419 130.932  10.632  1.00 71.39     0.048 C 
HETATM   20  C20 VFQ 71621     -39.134 134.975  10.947  1.00 71.39     0.048 C 
HETATM   21  O3  VFQ 71621     -31.846 126.726   3.863  1.00 71.39    -0.395 OA
ATOM     22  H3  VFQ 71621     -32.440 126.463   3.170  1.00  0.00     0.210 HD
HETATM   23  C21 VFQ 71621     -50.308 144.508  10.143  1.00 33.25    -0.018 C 
HETATM   24  C22 VFQ 71621     -51.325 145.465  10.747  1.00 33.25     0.045 C 
HETATM   25  C23 VFQ 71621     -50.787 146.711  11.427  1.00 33.25     0.123 C 
HETATM   26  C24 VFQ 71621     -49.487 146.432  12.123  1.00 33.25     0.066 C 
HETATM   27  C25 VFQ 71621     -48.499 145.894  11.150  1.00 33.25    -0.074 C 
HETATM   28  C26 VFQ 71621     -48.871 144.994  10.243  1.00 33.25    -0.048 C 
HETATM   29  C27 VFQ 71621     -47.869 144.465   9.301  1.00 33.25     0.009 C 
HETATM   30  C28 VFQ 71621     -47.228 143.344   9.592  1.00 33.25     0.007 C 
HETATM   31  C29 VFQ 71621     -46.227 142.748   8.712  1.00 71.39    -0.062 C 
HETATM   32  C30 VFQ 71621     -45.852 141.492   8.967  1.00 71.39     0.007 C 
HETATM   33  C31 VFQ 71621     -44.871 140.760   8.175  1.00 71.39     0.001 C 
HETATM   34  C32 VFQ 71621     -44.114 139.885   8.820  1.00 71.39     0.007 C 
HETATM   35  C33 VFQ 71621     -43.094 139.076   8.145  1.00 71.39    -0.062 C 
HETATM   36  C34 VFQ 71621     -42.348 138.240   8.869  1.00 71.39     0.007 C 
HETATM   37  C35 VFQ 71621     -41.333 137.371   8.286  1.00 71.39     0.001 C 
HETATM   38  C36 VFQ 71621     -50.649 144.364   8.670  1.00 33.25     0.020 C 
HETATM   39  C37 VFQ 71621     -50.521 143.158  10.819  1.00 33.25     0.020 C 
HETATM   40  C38 VFQ 71621     -47.109 146.438  11.262  1.00 33.25     0.044 C 
HETATM   41  C39 VFQ 71621     -45.656 143.528   7.571  1.00 71.39     0.048 C 
HETATM   42  C40 VFQ 71621     -42.922 139.218   6.675  1.00 71.39     0.048 C 
HETATM   43  O23 VFQ 71621     -51.709 147.134  12.431  1.00 33.25    -0.395 OA
ATOM     44  H23 VFQ 71621     -51.373 147.914  12.856  1.00  0.00     0.210 HD
ENDROOT
TORSDOF 12
BEGIN_RES PHE A  61
REMARK  2 active torsions:
REMARK  status: ('A' for Active; 'I' for Inactive)
REMARK    1  A    between atoms: CA   and  CB  
REMARK    2  A    between atoms: CB   and  CG  
ROOT
ATOM      1  CA  PHE A  61     -36.237 128.293  12.768  1.00 39.40     0.164 C 
ENDROOT
BRANCH   1   2
ATOM      2  CB  PHE A  61     -36.813 128.951  11.509  1.00 39.41     0.058 C 
BRANCH   2   3
ATOM      3  CG  PHE A  61     -37.065 127.997  10.366  1.00 39.01    -0.020 A 
ATOM      4  CD2 PHE A  61     -36.338 126.823  10.245  1.00 40.32    -0.004 A 
ATOM      5  CE2 PHE A  61     -36.569 125.948   9.191  1.00 40.20    -0.000 A 
ATOM      6  CZ  PHE A  61     -37.531 126.234   8.250  1.00 40.34    -0.000 A 
ATOM      7  CE1 PHE A  61     -38.264 127.396   8.357  1.00 41.51    -0.000 A 
ATOM      8  CD1 PHE A  61     -38.029 128.274   9.406  1.00 39.94    -0.004 A 
ENDBRANCH   2   3
ENDBRANCH   1   2
END_RES PHE A  61
BEGIN_RES VAL A 134
REMARK  1 active torsions:
REMARK  status: ('A' for Active; 'I' for Inactive)
REMARK    3  A    between atoms: CA   and  CB  
ROOT
ATOM      9  CA  VAL A 134     -29.766 132.051   9.815  1.00 40.75     0.159 C 
ENDROOT
BRANCH   9  10
ATOM     10  CB  VAL A 134     -30.864 132.765   9.009  1.00 40.76     0.029 C 
ATOM     11  CG1 VAL A 134     -30.858 132.299   7.561  1.00 41.76     0.002 C 
ATOM     12  CG2 VAL A 134     -32.237 132.568   9.634  1.00 40.56     0.002 C 
ENDBRANCH   9  10
END_RES VAL A 134
BEGIN_RES TYR A 338
REMARK  3 active torsions:
REMARK  status: ('A' for Active; 'I' for Inactive)
REMARK    4  A    between atoms: CA   and  CB  
REMARK    5  A    between atoms: CB   and  CG  
REMARK    6  A    between atoms: CZ   and  OH  
ROOT
ATOM     13  CA  TYR A 338     -41.631 124.950   6.058  1.00 38.23     0.164 C 
ENDROOT
BRANCH  13  14
ATOM     14  CB  TYR A 338     -41.621 126.456   6.339  1.00 39.15     0.058 C 
BRANCH  14  15
ATOM     15  CG  TYR A 338     -40.419 127.212   5.821  1.00 39.03    -0.020 A 
ATOM     16  CD2 TYR A 338     -40.258 128.556   6.112  1.00 40.65    -0.002 A 
ATOM     17  CE2 TYR A 338     -39.176 129.284   5.641  1.00 40.91     0.024 A 
ATOM     18  CZ  TYR A 338     -38.222 128.665   4.856  1.00 42.33     0.089 A 
ATOM     19  CE1 TYR A 338     -38.358 127.321   4.556  1.00 40.63     0.024 A 
ATOM     20  CD1 TYR A 338     -39.454 126.614   5.026  1.00 39.27    -0.002 A 
BRANCH  18  21
ATOM     21  OH  TYR A 338     -37.149 129.372   4.390  1.00 43.36    -0.359 OA
ATOM     22  HH  TYR A 338     -36.266 129.045   4.518  1.00  0.00     0.217 HD
ENDBRANCH  18  21
ENDBRANCH  14  15
ENDBRANCH  13  14
END_RES TYR A 338
ENDMDL
