MODEL 1
REMARK VINA RESULT:    -8.576      0.000      0.000
REMARK INTER + INTRA:         -11.668
REMARK INTER:                  -8.576
REMARK INTRA:                  -3.092
REMARK UNBOUND:                -3.092
REMARK  0 active torsions:
REMARK  status: ('A' for Active; 'I' for Inactive)
REMARK       I    between atoms: C3_3  and  O3_21 
REMARK       I    between atoms: C6_6  and  C7_7 
REMARK       I    between atoms: C8_8  and  C9_9 
REMARK       I    between atoms: C10_10  and  C11_11 
REMARK       I    between atoms: C12_12  and  C13_13 
REMARK       I    between atoms: C14_14  and  C15_15 
REMARK       I    between atoms: C23_25  and  O23_43 
REMARK       I    between atoms: C26_28  and  C27_29 
REMARK       I    between atoms: C28_30  and  C29_31 
REMARK       I    between atoms: C30_32  and  C31_33 
REMARK       I    between atoms: C32_34  and  C33_35 
REMARK       I    between atoms: C34_36  and  C35_37 
ROOT
HETATM    1  C1  VFQ 3 621     -48.247 145.439  12.774  1.00 19.54    -0.018 C 
HETATM    2  C2  VFQ 3 621     -48.846 146.212  13.946  1.00 19.54     0.045 C 
HETATM    3  C3  VFQ 3 621     -47.923 147.037  14.820  1.00 19.54     0.123 C 
HETATM    4  C4  VFQ 3 621     -46.971 147.822  13.953  1.00 19.54     0.066 C 
HETATM    5  C5  VFQ 3 621     -46.255 146.920  12.980  1.00 19.54    -0.074 C 
HETATM    6  C6  VFQ 3 621     -46.864 145.899  12.353  1.00 19.54    -0.048 C 
HETATM    7  C7  VFQ 3 621     -46.215 145.224  11.189  1.00 19.54     0.009 C 
HETATM    8  C8  VFQ 3 621     -45.334 144.222  11.306  1.00 19.54     0.007 C 
HETATM    9  C9  VFQ 3 621     -44.691 143.546  10.161  1.00 19.54    -0.062 C 
HETATM   10  C10 VFQ 3 621     -43.842 142.546  10.440  1.00 19.54     0.007 C 
HETATM   11  C11 VFQ 3 621     -43.110 141.752   9.458  1.00 19.54     0.001 C 
HETATM   12  C12 VFQ 3 621     -42.262 140.865   9.970  1.00 19.54     0.007 C 
HETATM   13  C13 VFQ 3 621     -41.439 139.944   9.168  1.00 19.54    -0.062 C 
HETATM   14  C14 VFQ 3 621     -40.973 138.849   9.787  1.00 19.54     0.007 C 
HETATM   15  C15 VFQ 3 621     -40.169 137.832   9.120  1.00 19.54     0.001 C 
HETATM   16  C16 VFQ 3 621     -49.264 145.549  11.644  1.00 19.54     0.020 C 
HETATM   17  C17 VFQ 3 621     -48.118 143.974  13.165  1.00 19.54     0.020 C 
HETATM   18  C18 VFQ 3 621     -45.019 147.558  12.428  1.00 19.54     0.044 C 
HETATM   19  C19 VFQ 3 621     -44.964 143.974   8.751  1.00 19.54     0.048 C 
HETATM   20  C20 VFQ 3 621     -41.133 140.218   7.726  1.00 19.54     0.048 C 
HETATM   21  O3  VFQ 3 621     -48.711 147.964  15.570  1.00 19.54    -0.395 OA
ATOM     22  H3  VFQ 3 621     -48.133 148.481  16.119  1.00  0.00     0.210 HD
HETATM   23  C21 VFQ 3 621     -34.672 127.111   6.089  1.00 98.50    -0.018 C 
HETATM   24  C22 VFQ 3 621     -34.212 126.566   4.752  1.00 95.05     0.045 C 
HETATM   25  C23 VFQ 3 621     -32.721 126.322   4.727  1.00 91.19     0.123 C 
HETATM   26  C24 VFQ 3 621     -31.962 127.607   4.990  1.00 95.39     0.066 C 
HETATM   27  C25 VFQ 3 621     -32.631 128.543   5.962  1.00 94.24    -0.074 C 
HETATM   28  C26 VFQ 3 621     -33.808 128.273   6.569  1.00 98.17    -0.048 C 
HETATM   29  C27 VFQ 3 621     -34.291 129.052   7.747  1.00 96.30     0.009 C 
HETATM   30  C28 VFQ 3 621     -34.964 130.202   7.639  1.00 99.74     0.007 C 
HETATM   31  C29 VFQ 3 621     -35.473 130.971   8.766  1.00 19.54    -0.062 C 
HETATM   32  C30 VFQ 3 621     -36.499 131.795   8.547  1.00 19.54     0.007 C 
HETATM   33  C31 VFQ 3 621     -37.124 132.624   9.569  1.00 19.54     0.001 C 
HETATM   34  C32 VFQ 3 621     -37.819 133.644   9.088  1.00 19.54     0.007 C 
HETATM   35  C33 VFQ 3 621     -38.565 134.639   9.871  1.00 19.54    -0.062 C 
HETATM   36  C34 VFQ 3 621     -39.051 135.688   9.193  1.00 19.54     0.007 C 
HETATM   37  C35 VFQ 3 621     -39.830 136.749   9.816  1.00 19.54     0.001 C 
HETATM   38  C36 VFQ 3 621     -34.579 126.035   7.152  1.00 90.00     0.020 C 
HETATM   39  C37 VFQ 3 621     -36.147 127.435   5.902  1.00 93.85     0.020 C 
HETATM   40  C38 VFQ 3 621     -31.870 129.814   6.161  1.00 91.76     0.044 C 
HETATM   41  C39 VFQ 3 621     -34.868 130.842  10.124  1.00 19.54     0.048 C 
HETATM   42  C40 VFQ 3 621     -38.767 134.474  11.345  1.00 19.54     0.048 C 
HETATM   43  O23 VFQ 3 621     -32.350 125.852   3.431  1.00 92.07    -0.395 OA
ATOM     44  H23 VFQ 3 621     -31.413 125.700   3.416  1.00  0.00     0.210 HD
ENDROOT
TORSDOF 12
BEGIN_RES PHE A  61
REMARK  2 active torsions:
REMARK  status: ('A' for Active; 'I' for Inactive)
REMARK    1  A    between atoms: CA   and  CB  
REMARK    2  A    between atoms: CB   and  CG  
ROOT
ATOM      1  CA  PHE A  61     -36.237 128.293  12.768  1.00 39.40     0.164 C 
ENDROOT
BRANCH   1   2
ATOM      2  CB  PHE A  61     -36.813 128.951  11.509  1.00 39.41     0.058 C 
BRANCH   2   3
ATOM      3  CG  PHE A  61     -37.027 128.004  10.352  1.00 39.01    -0.020 A 
ATOM      4  CD2 PHE A  61     -36.277 126.845  10.233  1.00 40.32    -0.004 A 
ATOM      5  CE2 PHE A  61     -36.473 125.976   9.167  1.00 40.20    -0.000 A 
ATOM      6  CZ  PHE A  61     -37.423 126.255   8.211  1.00 40.34    -0.000 A 
ATOM      7  CE1 PHE A  61     -38.178 127.401   8.316  1.00 41.51    -0.000 A 
ATOM      8  CD1 PHE A  61     -37.978 128.273   9.378  1.00 39.94    -0.004 A 
ENDBRANCH   2   3
ENDBRANCH   1   2
END_RES PHE A  61
BEGIN_RES VAL A 134
REMARK  1 active torsions:
REMARK  status: ('A' for Active; 'I' for Inactive)
REMARK    3  A    between atoms: CA   and  CB  
ROOT
ATOM      9  CA  VAL A 134     -29.766 132.051   9.815  1.00 40.75     0.159 C 
ENDROOT
BRANCH   9  10
ATOM     10  CB  VAL A 134     -30.864 132.765   9.009  1.00 40.76     0.029 C 
ATOM     11  CG1 VAL A 134     -31.184 131.995   7.736  1.00 41.76     0.002 C 
ATOM     12  CG2 VAL A 134     -32.120 132.981   9.840  1.00 40.56     0.002 C 
ENDBRANCH   9  10
END_RES VAL A 134
BEGIN_RES TYR A 338
REMARK  3 active torsions:
REMARK  status: ('A' for Active; 'I' for Inactive)
REMARK    4  A    between atoms: CA   and  CB  
REMARK    5  A    between atoms: CB   and  CG  
REMARK    6  A    between atoms: CZ   and  OH  
ROOT
ATOM     13  CA  TYR A 338     -41.631 124.950   6.058  1.00 38.23     0.164 C 
ENDROOT
BRANCH  13  14
ATOM     14  CB  TYR A 338     -41.621 126.456   6.339  1.00 39.15     0.058 C 
BRANCH  14  15
ATOM     15  CG  TYR A 338     -40.430 127.216   5.803  1.00 39.03    -0.020 A 
ATOM     16  CD2 TYR A 338     -40.245 128.549   6.127  1.00 40.65    -0.002 A 
ATOM     17  CE2 TYR A 338     -39.172 129.280   5.640  1.00 40.91     0.024 A 
ATOM     18  CZ  TYR A 338     -38.252 128.676   4.804  1.00 42.33     0.089 A 
ATOM     19  CE1 TYR A 338     -38.413 127.343   4.470  1.00 40.63     0.024 A 
ATOM     20  CD1 TYR A 338     -39.499 126.632   4.956  1.00 39.27    -0.002 A 
BRANCH  18  21
ATOM     21  OH  TYR A 338     -37.188 129.386   4.322  1.00 43.36    -0.359 OA
ATOM     22  HH  TYR A 338     -37.070 129.499   3.386  1.00  0.00     0.217 HD
ENDBRANCH  18  21
ENDBRANCH  14  15
ENDBRANCH  13  14
END_RES TYR A 338
ENDMDL
MODEL 2
REMARK VINA RESULT:    -8.471      1.556      1.911
REMARK INTER + INTRA:         -11.563
REMARK INTER:                 -10.943
REMARK INTRA:                  -0.621
REMARK UNBOUND:                -3.092
REMARK  0 active torsions:
REMARK  status: ('A' for Active; 'I' for Inactive)
REMARK       I    between atoms: C3_3  and  O3_21 
REMARK       I    between atoms: C6_6  and  C7_7 
REMARK       I    between atoms: C8_8  and  C9_9 
REMARK       I    between atoms: C10_10  and  C11_11 
REMARK       I    between atoms: C12_12  and  C13_13 
REMARK       I    between atoms: C14_14  and  C15_15 
REMARK       I    between atoms: C23_25  and  O23_43 
REMARK       I    between atoms: C26_28  and  C27_29 
REMARK       I    between atoms: C28_30  and  C29_31 
REMARK       I    between atoms: C30_32  and  C31_33 
REMARK       I    between atoms: C32_34  and  C33_35 
REMARK       I    between atoms: C34_36  and  C35_37 
ROOT
HETATM    1  C1  VFQ 3 621     -50.364 145.364  10.498  1.00 19.54    -0.018 C 
HETATM    2  C2  VFQ 3 621     -51.253 146.075  11.516  1.00 19.54     0.045 C 
HETATM    3  C3  VFQ 3 621     -50.601 146.976  12.546  1.00 19.54     0.123 C 
HETATM    4  C4  VFQ 3 621     -49.568 147.848  11.876  1.00 19.54     0.066 C 
HETATM    5  C5  VFQ 3 621     -48.594 147.018  11.079  1.00 19.54    -0.074 C 
HETATM    6  C6  VFQ 3 621     -48.971 145.950  10.356  1.00 19.54    -0.048 C 
HETATM    7  C7  VFQ 3 621     -48.044 145.341   9.355  1.00 19.54     0.009 C 
HETATM    8  C8  VFQ 3 621     -47.118 144.422   9.660  1.00 19.54     0.007 C 
HETATM    9  C9  VFQ 3 621     -46.202 143.812   8.676  1.00 19.54    -0.062 C 
HETATM   10  C10 VFQ 3 621     -45.340 142.891   9.134  1.00 19.54     0.007 C 
HETATM   11  C11 VFQ 3 621     -44.357 142.171   8.329  1.00 19.54     0.001 C 
HETATM   12  C12 VFQ 3 621     -43.554 141.362   9.012  1.00 19.54     0.007 C 
HETATM   13  C13 VFQ 3 621     -42.508 140.522   8.404  1.00 19.54    -0.062 C 
HETATM   14  C14 VFQ 3 621     -42.080 139.471   9.118  1.00 19.54     0.007 C 
HETATM   15  C15 VFQ 3 621     -41.071 138.535   8.640  1.00 19.54     0.001 C 
HETATM   16  C16 VFQ 3 621     -51.139 145.387   9.186  1.00 19.54     0.020 C 
HETATM   17  C17 VFQ 3 621     -50.185 143.915  10.927  1.00 19.54     0.020 C 
HETATM   18  C18 VFQ 3 621     -47.335 147.768  10.776  1.00 19.54     0.044 C 
HETATM   19  C19 VFQ 3 621     -46.223 144.220   7.234  1.00 19.54     0.048 C 
HETATM   20  C20 VFQ 3 621     -41.944 140.829   7.049  1.00 19.54     0.048 C 
HETATM   21  O3  VFQ 3 621     -51.603 147.824  13.110  1.00 19.54    -0.395 OA
ATOM     22  H3  VFQ 3 621     -51.195 148.389  13.756  1.00  0.00     0.210 HD
HETATM   23  C21 VFQ 3 621     -34.141 128.367   6.919  1.00 98.50    -0.018 C 
HETATM   24  C22 VFQ 3 621     -33.376 127.871   5.709  1.00 95.05     0.045 C 
HETATM   25  C23 VFQ 3 621     -31.894 127.764   5.986  1.00 91.19     0.123 C 
HETATM   26  C24 VFQ 3 621     -31.322 129.111   6.378  1.00 95.39     0.066 C 
HETATM   27  C25 VFQ 3 621     -32.253 129.978   7.183  1.00 94.24    -0.074 C 
HETATM   28  C26 VFQ 3 621     -33.499 129.600   7.546  1.00 98.17    -0.048 C 
HETATM   29  C27 VFQ 3 621     -34.276 130.327   8.593  1.00 96.30     0.009 C 
HETATM   30  C28 VFQ 3 621     -35.014 131.412   8.336  1.00 99.74     0.007 C 
HETATM   31  C29 VFQ 3 621     -35.805 132.127   9.328  1.00 19.54    -0.062 C 
HETATM   32  C30 VFQ 3 621     -36.836 132.855   8.897  1.00 19.54     0.007 C 
HETATM   33  C31 VFQ 3 621     -37.724 133.621   9.761  1.00 19.54     0.001 C 
HETATM   34  C32 VFQ 3 621     -38.398 134.576   9.137  1.00 19.54     0.007 C 
HETATM   35  C33 VFQ 3 621     -39.371 135.495   9.741  1.00 19.54    -0.062 C 
HETATM   36  C34 VFQ 3 621     -39.803 136.500   8.965  1.00 19.54     0.007 C 
HETATM   37  C35 VFQ 3 621     -40.782 137.484   9.405  1.00 19.54     0.001 C 
HETATM   38  C36 VFQ 3 621     -34.168 127.299   7.994  1.00 90.00     0.020 C 
HETATM   39  C37 VFQ 3 621     -35.572 128.557   6.436  1.00 93.85     0.020 C 
HETATM   40  C38 VFQ 3 621     -31.664 131.312   7.513  1.00 91.76     0.044 C 
HETATM   41  C39 VFQ 3 621     -35.476 132.047  10.781  1.00 19.54     0.048 C 
HETATM   42  C40 VFQ 3 621     -39.849 135.307  11.147  1.00 19.54     0.048 C 
HETATM   43  O23 VFQ 3 621     -31.231 127.335   4.797  1.00 92.07    -0.395 OA
ATOM     44  H23 VFQ 3 621     -30.300 127.267   4.972  1.00  0.00     0.210 HD
ENDROOT
TORSDOF 12
BEGIN_RES PHE A  61
REMARK  2 active torsions:
REMARK  status: ('A' for Active; 'I' for Inactive)
REMARK    1  A    between atoms: CA   and  CB  
REMARK    2  A    between atoms: CB   and  CG  
ROOT
ATOM      1  CA  PHE A  61     -36.237 128.293  12.768  1.00 39.40     0.164 C 
ENDROOT
BRANCH   1   2
ATOM      2  CB  PHE A  61     -36.813 128.951  11.509  1.00 39.41     0.058 C 
BRANCH   2   3
ATOM      3  CG  PHE A  61     -36.997 128.011  10.342  1.00 39.01    -0.020 A 
ATOM      4  CD2 PHE A  61     -36.220 126.870  10.218  1.00 40.32    -0.004 A 
ATOM      5  CE2 PHE A  61     -36.389 126.007   9.142  1.00 40.20    -0.000 A 
ATOM      6  CZ  PHE A  61     -37.338 126.273   8.182  1.00 40.34    -0.000 A 
ATOM      7  CE1 PHE A  61     -38.120 127.401   8.292  1.00 41.51    -0.000 A 
ATOM      8  CD1 PHE A  61     -37.947 128.268   9.364  1.00 39.94    -0.004 A 
ENDBRANCH   2   3
ENDBRANCH   1   2
END_RES PHE A  61
BEGIN_RES VAL A 134
REMARK  1 active torsions:
REMARK  status: ('A' for Active; 'I' for Inactive)
REMARK    3  A    between atoms: CA   and  CB  
ROOT
ATOM      9  CA  VAL A 134     -29.766 132.051   9.815  1.00 40.75     0.159 C 
ENDROOT
BRANCH   9  10
ATOM     10  CB  VAL A 134     -30.864 132.765   9.009  1.00 40.76     0.029 C 
ATOM     11  CG1 VAL A 134     -32.106 132.978   9.862  1.00 41.76     0.002 C 
ATOM     12  CG2 VAL A 134     -30.371 134.084   8.435  1.00 40.56     0.002 C 
ENDBRANCH   9  10
END_RES VAL A 134
BEGIN_RES TYR A 338
REMARK  3 active torsions:
REMARK  status: ('A' for Active; 'I' for Inactive)
REMARK    4  A    between atoms: CA   and  CB  
REMARK    5  A    between atoms: CB   and  CG  
REMARK    6  A    between atoms: CZ   and  OH  
ROOT
ATOM     13  CA  TYR A 338     -41.631 124.950   6.058  1.00 38.23     0.164 C 
ENDROOT
BRANCH  13  14
ATOM     14  CB  TYR A 338     -41.621 126.456   6.339  1.00 39.15     0.058 C 
BRANCH  14  15
ATOM     15  CG  TYR A 338     -40.426 127.214   5.810  1.00 39.03    -0.020 A 
ATOM     16  CD2 TYR A 338     -40.266 128.559   6.096  1.00 40.65    -0.002 A 
ATOM     17  CE2 TYR A 338     -39.190 129.289   5.615  1.00 40.91     0.024 A 
ATOM     18  CZ  TYR A 338     -38.241 128.671   4.822  1.00 42.33     0.089 A 
ATOM     19  CE1 TYR A 338     -38.376 127.327   4.526  1.00 40.63     0.024 A 
ATOM     20  CD1 TYR A 338     -39.466 126.617   5.006  1.00 39.27    -0.002 A 
BRANCH  18  21
ATOM     21  OH  TYR A 338     -37.174 129.380   4.345  1.00 43.36    -0.359 OA
ATOM     22  HH  TYR A 338     -36.817 129.191   3.485  1.00  0.00     0.217 HD
ENDBRANCH  18  21
ENDBRANCH  14  15
ENDBRANCH  13  14
END_RES TYR A 338
ENDMDL
MODEL 3
REMARK VINA RESULT:    -7.563      1.200     16.810
REMARK INTER + INTRA:         -10.655
REMARK INTER:                  -7.354
REMARK INTRA:                  -3.301
REMARK UNBOUND:                -3.092
REMARK  0 active torsions:
REMARK  status: ('A' for Active; 'I' for Inactive)
REMARK       I    between atoms: C3_3  and  O3_21 
REMARK       I    between atoms: C6_6  and  C7_7 
REMARK       I    between atoms: C8_8  and  C9_9 
REMARK       I    between atoms: C10_10  and  C11_11 
REMARK       I    between atoms: C12_12  and  C13_13 
REMARK       I    between atoms: C14_14  and  C15_15 
REMARK       I    between atoms: C23_25  and  O23_43 
REMARK       I    between atoms: C26_28  and  C27_29 
REMARK       I    between atoms: C28_30  and  C29_31 
REMARK       I    between atoms: C30_32  and  C31_33 
REMARK       I    between atoms: C32_34  and  C33_35 
REMARK       I    between atoms: C34_36  and  C35_37 
ROOT
HETATM    1  C1  VFQ 3 621     -34.388 126.883   6.106  1.00 19.54    -0.018 C 
HETATM    2  C2  VFQ 3 621     -33.758 126.107   4.953  1.00 19.54     0.045 C 
HETATM    3  C3  VFQ 3 621     -32.788 126.826   4.037  1.00 19.54     0.123 C 
HETATM    4  C4  VFQ 3 621     -31.825 127.645   4.860  1.00 19.54     0.066 C 
HETATM    5  C5  VFQ 3 621     -32.562 128.553   5.811  1.00 19.54    -0.074 C 
HETATM    6  C6  VFQ 3 621     -33.670 128.170   6.470  1.00 19.54    -0.048 C 
HETATM    7  C7  VFQ 3 621     -34.194 128.977   7.613  1.00 19.54     0.009 C 
HETATM    8  C8  VFQ 3 621     -35.015 130.025   7.469  1.00 19.54     0.007 C 
HETATM    9  C9  VFQ 3 621     -35.541 130.825   8.593  1.00 19.54    -0.062 C 
HETATM   10  C10 VFQ 3 621     -36.369 131.836   8.289  1.00 19.54     0.007 C 
HETATM   11  C11 VFQ 3 621     -36.997 132.740   9.248  1.00 19.54     0.001 C 
HETATM   12  C12 VFQ 3 621     -37.717 133.720   8.710  1.00 19.54     0.007 C 
HETATM   13  C13 VFQ 3 621     -38.456 134.730   9.486  1.00 19.54    -0.062 C 
HETATM   14  C14 VFQ 3 621     -39.453 135.370   8.858  1.00 19.54     0.007 C 
HETATM   15  C15 VFQ 3 621     -40.291 136.374   9.501  1.00 19.54     0.001 C 
HETATM   16  C16 VFQ 3 621     -34.452 125.906   7.275  1.00 19.54     0.020 C 
HETATM   17  C17 VFQ 3 621     -35.808 127.271   5.723  1.00 19.54     0.020 C 
HETATM   18  C18 VFQ 3 621     -31.696 129.667   6.310  1.00 19.54     0.044 C 
HETATM   19  C19 VFQ 3 621     -35.151 130.529  10.009  1.00 19.54     0.048 C 
HETATM   20  C20 VFQ 3 621     -38.108 135.032  10.913  1.00 19.54     0.048 C 
HETATM   21  O3  VFQ 3 621     -32.036 125.850   3.311  1.00 19.54    -0.395 OA
ATOM     22  H3  VFQ 3 621     -31.428 126.301   2.737  1.00  0.00     0.210 HD
HETATM   23  C21 VFQ 3 621     -49.746 143.895  12.399  1.00 98.50    -0.018 C 
HETATM   24  C22 VFQ 3 621     -50.176 144.498  13.720  1.00 95.05     0.045 C 
HETATM   25  C23 VFQ 3 621     -50.135 146.008  13.689  1.00 91.19     0.123 C 
HETATM   26  C24 VFQ 3 621     -48.735 146.502  13.386  1.00 95.39     0.066 C 
HETATM   27  C25 VFQ 3 621     -47.956 145.634  12.434  1.00 94.24    -0.074 C 
HETATM   28  C26 VFQ 3 621     -48.451 144.507  11.876  1.00 98.17    -0.048 C 
HETATM   29  C27 VFQ 3 621     -47.793 143.843  10.712  1.00 96.30     0.009 C 
HETATM   30  C28 VFQ 3 621     -46.788 142.970  10.837  1.00 99.74     0.007 C 
HETATM   31  C29 VFQ 3 621     -46.146 142.285   9.724  1.00 19.54    -0.062 C 
HETATM   32  C30 VFQ 3 621     -45.525 141.131   9.977  1.00 19.54     0.007 C 
HETATM   33  C31 VFQ 3 621     -44.843 140.325   8.974  1.00 19.54     0.001 C 
HETATM   34  C32 VFQ 3 621     -43.964 139.468   9.474  1.00 19.54     0.007 C 
HETATM   35  C33 VFQ 3 621     -43.139 138.521   8.713  1.00 19.54    -0.062 C 
HETATM   36  C34 VFQ 3 621     -42.189 137.872   9.401  1.00 19.54     0.007 C 
HETATM   37  C35 VFQ 3 621     -41.301 136.886   8.801  1.00 19.54     0.001 C 
HETATM   38  C36 VFQ 3 621     -50.802 144.149  11.341  1.00 90.00     0.020 C 
HETATM   39  C37 VFQ 3 621     -49.702 142.393  12.641  1.00 93.85     0.020 C 
HETATM   40  C38 VFQ 3 621     -46.568 146.135  12.196  1.00 91.76     0.044 C 
HETATM   41  C39 VFQ 3 621     -46.179 142.852   8.345  1.00 19.54     0.048 C 
HETATM   42  C40 VFQ 3 621     -43.360 138.299   7.249  1.00 19.54     0.048 C 
HETATM   43  O23 VFQ 3 621     -50.508 146.508  14.973  1.00 92.07    -0.395 OA
ATOM     44  H23 VFQ 3 621     -50.482 147.457  14.953  1.00  0.00     0.210 HD
ENDROOT
TORSDOF 12
BEGIN_RES PHE A  61
REMARK  2 active torsions:
REMARK  status: ('A' for Active; 'I' for Inactive)
REMARK    1  A    between atoms: CA   and  CB  
REMARK    2  A    between atoms: CB   and  CG  
ROOT
ATOM      1  CA  PHE A  61     -36.237 128.293  12.768  1.00 39.40     0.164 C 
ENDROOT
BRANCH   1   2
ATOM      2  CB  PHE A  61     -36.813 128.951  11.509  1.00 39.41     0.058 C 
BRANCH   2   3
ATOM      3  CG  PHE A  61     -37.010 128.008  10.347  1.00 39.01    -0.020 A 
ATOM      4  CD2 PHE A  61     -36.215 126.882  10.200  1.00 40.32    -0.004 A 
ATOM      5  CE2 PHE A  61     -36.396 126.017   9.129  1.00 40.20    -0.000 A 
ATOM      6  CZ  PHE A  61     -37.375 126.265   8.194  1.00 40.34    -0.000 A 
ATOM      7  CE1 PHE A  61     -38.175 127.378   8.326  1.00 41.51    -0.000 A 
ATOM      8  CD1 PHE A  61     -37.991 128.247   9.394  1.00 39.94    -0.004 A 
ENDBRANCH   2   3
ENDBRANCH   1   2
END_RES PHE A  61
BEGIN_RES VAL A 134
REMARK  1 active torsions:
REMARK  status: ('A' for Active; 'I' for Inactive)
REMARK    3  A    between atoms: CA   and  CB  
ROOT
ATOM      9  CA  VAL A 134     -29.766 132.051   9.815  1.00 40.75     0.159 C 
ENDROOT
BRANCH   9  10
ATOM     10  CB  VAL A 134     -30.864 132.765   9.009  1.00 40.76     0.029 C 
ATOM     11  CG1 VAL A 134     -30.916 132.235   7.584  1.00 41.76     0.002 C 
ATOM     12  CG2 VAL A 134     -32.223 132.643   9.681  1.00 40.56     0.002 C 
ENDBRANCH   9  10
END_RES VAL A 134
BEGIN_RES TYR A 338
REMARK  3 active torsions:
REMARK  status: ('A' for Active; 'I' for Inactive)
REMARK    4  A    between atoms: CA   and  CB  
REMARK    5  A    between atoms: CB   and  CG  
REMARK    6  A    between atoms: CZ   and  OH  
ROOT
ATOM     13  CA  TYR A 338     -41.631 124.950   6.058  1.00 38.23     0.164 C 
ENDROOT
BRANCH  13  14
ATOM     14  CB  TYR A 338     -41.621 126.456   6.339  1.00 39.15     0.058 C 
BRANCH  14  15
ATOM     15  CG  TYR A 338     -40.423 127.213   5.815  1.00 39.03    -0.020 A 
ATOM     16  CD2 TYR A 338     -40.240 128.547   6.138  1.00 40.65    -0.002 A 
ATOM     17  CE2 TYR A 338     -39.162 129.276   5.662  1.00 40.91     0.024 A 
ATOM     18  CZ  TYR A 338     -38.233 128.669   4.838  1.00 42.33     0.089 A 
ATOM     19  CE1 TYR A 338     -38.391 127.336   4.505  1.00 40.63     0.024 A 
ATOM     20  CD1 TYR A 338     -39.483 126.627   4.980  1.00 39.27    -0.002 A 
BRANCH  18  21
ATOM     21  OH  TYR A 338     -37.163 129.378   4.367  1.00 43.36    -0.359 OA
ATOM     22  HH  TYR A 338     -37.293 130.209   3.926  1.00  0.00     0.217 HD
ENDBRANCH  18  21
ENDBRANCH  14  15
ENDBRANCH  13  14
END_RES TYR A 338
ENDMDL
MODEL 4
REMARK VINA RESULT:    -7.401      1.656     16.777
REMARK INTER + INTRA:         -10.494
REMARK INTER:                 -10.112
REMARK INTRA:                  -0.382
REMARK UNBOUND:                -3.092
REMARK  0 active torsions:
REMARK  status: ('A' for Active; 'I' for Inactive)
REMARK       I    between atoms: C3_3  and  O3_21 
REMARK       I    between atoms: C6_6  and  C7_7 
REMARK       I    between atoms: C8_8  and  C9_9 
REMARK       I    between atoms: C10_10  and  C11_11 
REMARK       I    between atoms: C12_12  and  C13_13 
REMARK       I    between atoms: C14_14  and  C15_15 
REMARK       I    between atoms: C23_25  and  O23_43 
REMARK       I    between atoms: C26_28  and  C27_29 
REMARK       I    between atoms: C28_30  and  C29_31 
REMARK       I    between atoms: C30_32  and  C31_33 
REMARK       I    between atoms: C32_34  and  C33_35 
REMARK       I    between atoms: C34_36  and  C35_37 
ROOT
HETATM    1  C1  VFQ 3 621     -34.063 128.140   6.944  1.00 19.54    -0.018 C 
HETATM    2  C2  VFQ 3 621     -33.162 127.453   5.921  1.00 19.54     0.045 C 
HETATM    3  C3  VFQ 3 621     -32.013 128.238   5.322  1.00 19.54     0.123 C 
HETATM    4  C4  VFQ 3 621     -31.289 128.990   6.412  1.00 19.54     0.066 C 
HETATM    5  C5  VFQ 3 621     -32.248 129.824   7.223  1.00 19.54    -0.074 C 
HETATM    6  C6  VFQ 3 621     -33.475 129.394   7.565  1.00 19.54    -0.048 C 
HETATM    7  C7  VFQ 3 621     -34.271 130.112   8.605  1.00 19.54     0.009 C 
HETATM    8  C8  VFQ 3 621     -35.050 131.170   8.347  1.00 19.54     0.007 C 
HETATM    9  C9  VFQ 3 621     -35.844 131.882   9.368  1.00 19.54    -0.062 C 
HETATM   10  C10 VFQ 3 621     -36.591 132.915   8.950  1.00 19.54     0.007 C 
HETATM   11  C11 VFQ 3 621     -37.445 133.745   9.795  1.00 19.54     0.001 C 
HETATM   12  C12 VFQ 3 621     -38.031 134.765   9.175  1.00 19.54     0.007 C 
HETATM   13  C13 VFQ 3 621     -38.951 135.714   9.824  1.00 19.54    -0.062 C 
HETATM   14  C14 VFQ 3 621     -39.779 136.402   9.024  1.00 19.54     0.007 C 
HETATM   15  C15 VFQ 3 621     -40.762 137.357   9.520  1.00 19.54     0.001 C 
HETATM   16  C16 VFQ 3 621     -34.391 127.077   7.986  1.00 19.54     0.020 C 
HETATM   17  C17 VFQ 3 621     -35.356 128.559   6.260  1.00 19.54     0.020 C 
HETATM   18  C18 VFQ 3 621     -31.545 130.894   7.997  1.00 19.54     0.044 C 
HETATM   19  C19 VFQ 3 621     -35.800 131.478  10.811  1.00 19.54     0.048 C 
HETATM   20  C20 VFQ 3 621     -38.961 135.905  11.311  1.00 19.54     0.048 C 
HETATM   21  O3  VFQ 3 621     -31.093 127.319   4.727  1.00 19.54    -0.395 OA
ATOM     22  H3  VFQ 3 621     -30.372 127.811   4.352  1.00  0.00     0.210 HD
HETATM   23  C21 VFQ 3 621     -50.758 144.655  10.612  1.00 98.50    -0.018 C 
HETATM   24  C22 VFQ 3 621     -51.502 145.155  11.833  1.00 95.05     0.045 C 
HETATM   25  C23 VFQ 3 621     -51.480 146.664  11.926  1.00 91.19     0.123 C 
HETATM   26  C24 VFQ 3 621     -50.056 147.176  12.006  1.00 95.39     0.066 C 
HETATM   27  C25 VFQ 3 621     -49.057 146.382  11.208  1.00 94.24    -0.074 C 
HETATM   28  C26 VFQ 3 621     -49.385 145.302  10.464  1.00 98.17    -0.048 C 
HETATM   29  C27 VFQ 3 621     -48.456 144.727   9.446  1.00 96.30     0.009 C 
HETATM   30  C28 VFQ 3 621     -47.497 143.845   9.744  1.00 99.74     0.007 C 
HETATM   31  C29 VFQ 3 621     -46.595 143.246   8.770  1.00 19.54    -0.062 C 
HETATM   32  C30 VFQ 3 621     -46.035 142.075   9.077  1.00 19.54     0.007 C 
HETATM   33  C31 VFQ 3 621     -45.118 141.346   8.211  1.00 19.54     0.001 C 
HETATM   34  C32 VFQ 3 621     -44.371 140.452   8.842  1.00 19.54     0.007 C 
HETATM   35  C33 VFQ 3 621     -43.372 139.564   8.232  1.00 19.54    -0.062 C 
HETATM   36  C34 VFQ 3 621     -42.605 138.862   9.078  1.00 19.54     0.007 C 
HETATM   37  C35 VFQ 3 621     -41.583 137.922   8.637  1.00 19.54     0.001 C 
HETATM   38  C36 VFQ 3 621     -51.533 144.991   9.354  1.00 90.00     0.020 C 
HETATM   39  C37 VFQ 3 621     -50.748 143.138  10.745  1.00 93.85     0.020 C 
HETATM   40  C38 VFQ 3 621     -47.660 146.896  11.349  1.00 91.76     0.044 C 
HETATM   41  C39 VFQ 3 621     -46.305 143.918   7.470  1.00 19.54     0.048 C 
HETATM   42  C40 VFQ 3 621     -43.232 139.455   6.746  1.00 19.54     0.048 C 
HETATM   43  O23 VFQ 3 621     -52.158 147.064  13.116  1.00 92.07    -0.395 OA
ATOM     44  H23 VFQ 3 621     -52.144 148.012  13.174  1.00  0.00     0.210 HD
ENDROOT
TORSDOF 12
BEGIN_RES PHE A  61
REMARK  2 active torsions:
REMARK  status: ('A' for Active; 'I' for Inactive)
REMARK    1  A    between atoms: CA   and  CB  
REMARK    2  A    between atoms: CB   and  CG  
ROOT
ATOM      1  CA  PHE A  61     -36.237 128.293  12.768  1.00 39.40     0.164 C 
ENDROOT
BRANCH   1   2
ATOM      2  CB  PHE A  61     -36.813 128.951  11.509  1.00 39.41     0.058 C 
BRANCH   2   3
ATOM      3  CG  PHE A  61     -37.002 128.010  10.344  1.00 39.01    -0.020 A 
ATOM      4  CD2 PHE A  61     -37.886 128.312   9.320  1.00 40.32    -0.004 A 
ATOM      5  CE2 PHE A  61     -38.062 127.444   8.250  1.00 40.20    -0.000 A 
ATOM      6  CZ  PHE A  61     -37.352 126.266   8.190  1.00 40.34    -0.000 A 
ATOM      7  CE1 PHE A  61     -36.468 125.951   9.197  1.00 41.51    -0.000 A 
ATOM      8  CD1 PHE A  61     -36.297 126.816  10.271  1.00 39.94    -0.004 A 
ENDBRANCH   2   3
ENDBRANCH   1   2
END_RES PHE A  61
BEGIN_RES VAL A 134
REMARK  1 active torsions:
REMARK  status: ('A' for Active; 'I' for Inactive)
REMARK    3  A    between atoms: CA   and  CB  
ROOT
ATOM      9  CA  VAL A 134     -29.766 132.051   9.815  1.00 40.75     0.159 C 
ENDROOT
BRANCH   9  10
ATOM     10  CB  VAL A 134     -30.864 132.765   9.009  1.00 40.76     0.029 C 
ATOM     11  CG1 VAL A 134     -32.106 132.977   9.862  1.00 41.76     0.002 C 
ATOM     12  CG2 VAL A 134     -30.371 134.085   8.435  1.00 40.56     0.002 C 
ENDBRANCH   9  10
END_RES VAL A 134
BEGIN_RES TYR A 338
REMARK  3 active torsions:
REMARK  status: ('A' for Active; 'I' for Inactive)
REMARK    4  A    between atoms: CA   and  CB  
REMARK    5  A    between atoms: CB   and  CG  
REMARK    6  A    between atoms: CZ   and  OH  
ROOT
ATOM     13  CA  TYR A 338     -41.631 124.950   6.058  1.00 38.23     0.164 C 
ENDROOT
BRANCH  13  14
ATOM     14  CB  TYR A 338     -41.621 126.456   6.339  1.00 39.15     0.058 C 
BRANCH  14  15
ATOM     15  CG  TYR A 338     -40.423 127.213   5.814  1.00 39.03    -0.020 A 
ATOM     16  CD2 TYR A 338     -40.275 128.564   6.082  1.00 40.65    -0.002 A 
ATOM     17  CE2 TYR A 338     -39.197 129.293   5.604  1.00 40.91     0.024 A 
ATOM     18  CZ  TYR A 338     -38.234 128.669   4.835  1.00 42.33     0.089 A 
ATOM     19  CE1 TYR A 338     -38.357 127.319   4.557  1.00 40.63     0.024 A 
ATOM     20  CD1 TYR A 338     -39.449 126.610   5.034  1.00 39.27    -0.002 A 
BRANCH  18  21
ATOM     21  OH  TYR A 338     -37.164 129.377   4.361  1.00 43.36    -0.359 OA
ATOM     22  HH  TYR A 338     -37.249 129.909   3.579  1.00  0.00     0.217 HD
ENDBRANCH  18  21
ENDBRANCH  14  15
ENDBRANCH  13  14
END_RES TYR A 338
ENDMDL
