MODEL 1
REMARK VINA RESULT:   -11.962      0.000      0.000
REMARK INTER + INTRA:         -12.133
REMARK INTER:                 -11.962
REMARK INTRA:                  -0.171
REMARK UNBOUND:                -0.171
REMARK  0 active torsions:
REMARK  status: ('A' for Active; 'I' for Inactive)
REMARK       I    between atoms: C3_3  and  O3_21 
REMARK       I    between atoms: C6_6  and  C7_7 
REMARK       I    between atoms: C8_8  and  C9_9 
REMARK       I    between atoms: C10_10  and  C11_11 
REMARK       I    between atoms: C12_12  and  C13_13 
REMARK       I    between atoms: C14_14  and  C15_15 
REMARK       I    between atoms: C23_25  and  O23_43 
REMARK       I    between atoms: C26_28  and  C27_29 
REMARK       I    between atoms: C28_30  and  C29_31 
REMARK       I    between atoms: C30_32  and  C31_33 
REMARK       I    between atoms: C32_34  and  C33_35 
REMARK       I    between atoms: C34_36  and  C35_37 
ROOT
HETATM    1  C1  VFQ X1621     -34.243 128.096   6.941  1.00 31.86    -0.018 C 
HETATM    2  C2  VFQ X1621     -33.647 127.894   5.543  1.00 31.86     0.045 C 
HETATM    3  C3  VFQ X1621     -32.359 128.645   5.227  1.00 31.86     0.123 C 
HETATM    4  C4  VFQ X1621     -31.646 129.103   6.492  1.00 31.86     0.066 C 
HETATM    5  C5  VFQ X1621     -32.636 129.915   7.272  1.00 31.86    -0.074 C 
HETATM    6  C6  VFQ X1621     -33.770 129.338   7.666  1.00 31.86    -0.048 C 
HETATM    7  C7  VFQ X1621     -34.683 129.963   8.646  1.00 31.86     0.009 C 
HETATM    8  C8  VFQ X1621     -34.775 131.296   8.693  1.00 31.86     0.007 C 
HETATM    9  C9  VFQ X1621     -35.857 131.899   9.504  1.00 31.86    -0.062 C 
HETATM   10  C10 VFQ X1621     -36.271 133.131   9.144  1.00 31.86     0.007 C 
HETATM   11  C11 VFQ X1621     -37.434 133.791   9.733  1.00 31.86     0.001 C 
HETATM   12  C12 VFQ X1621     -37.937 134.873   9.142  1.00 31.86     0.007 C 
HETATM   13  C13 VFQ X1621     -39.166 135.527   9.644  1.00 31.86    -0.062 C 
HETATM   14  C14 VFQ X1621     -39.683 136.526   8.899  1.00 31.86     0.007 C 
HETATM   15  C15 VFQ X1621     -40.904 137.258   9.240  1.00 31.86     0.001 C 
HETATM   16  C16 VFQ X1621     -33.823 126.931   7.834  1.00 31.86     0.020 C 
HETATM   17  C17 VFQ X1621     -35.758 128.075   6.814  1.00 31.86     0.020 C 
HETATM   18  C18 VFQ X1621     -31.786 130.728   8.208  1.00 31.86     0.044 C 
HETATM   19  C19 VFQ X1621     -36.507 131.099  10.609  1.00 31.86     0.048 C 
HETATM   20  C20 VFQ X1621     -39.786 135.028  10.926  1.00 31.86     0.048 C 
HETATM   21  O3  VFQ X1621     -31.532 127.734   4.506  1.00 31.86    -0.395 OA
ATOM     22  H3  VFQ X1621     -31.977 127.449   3.716  1.00  0.00     0.210 HD
HETATM   23  C21 VFQ X1621     -50.629 145.647   9.238  1.00 90.34    -0.018 C 
HETATM   24  C22 VFQ X1621     -51.730 146.368  10.009  1.00 90.34     0.045 C 
HETATM   25  C23 VFQ X1621     -51.347 147.076  11.299  1.00 90.34     0.123 C 
HETATM   26  C24 VFQ X1621     -50.218 146.359  12.012  1.00 90.34     0.066 C 
HETATM   27  C25 VFQ X1621     -49.068 146.256  11.054  1.00 90.34    -0.074 C 
HETATM   28  C26 VFQ X1621     -49.242 145.754   9.834  1.00 90.34    -0.048 C 
HETATM   29  C27 VFQ X1621     -48.094 145.303   9.007  1.00 90.34     0.009 C 
HETATM   30  C28 VFQ X1621     -47.535 144.107   9.204  1.00 90.34     0.007 C 
HETATM   31  C29 VFQ X1621     -46.421 143.585   8.409  1.00 31.86    -0.062 C 
HETATM   32  C30 VFQ X1621     -45.915 142.387   8.772  1.00 31.86     0.007 C 
HETATM   33  C31 VFQ X1621     -44.772 141.748   8.121  1.00 31.86     0.001 C 
HETATM   34  C32 VFQ X1621     -44.269 140.634   8.649  1.00 31.86     0.007 C 
HETATM   35  C33 VFQ X1621     -43.067 139.981   8.089  1.00 31.86    -0.062 C 
HETATM   36  C34 VFQ X1621     -42.554 138.951   8.794  1.00 31.86     0.007 C 
HETATM   37  C35 VFQ X1621     -41.341 138.217   8.430  1.00 31.86     0.001 C 
HETATM   38  C36 VFQ X1621     -50.548 146.259   7.853  1.00 90.34     0.020 C 
HETATM   39  C37 VFQ X1621     -51.064 144.192   9.115  1.00 90.34     0.020 C 
HETATM   40  C38 VFQ X1621     -47.739 146.764  11.519  1.00 90.34     0.044 C 
HETATM   41  C39 VFQ X1621     -45.919 144.406   7.247  1.00 31.86     0.048 C 
HETATM   42  C40 VFQ X1621     -42.458 140.517   6.820  1.00 31.86     0.048 C 
HETATM   43  O23 VFQ X1621     -52.487 147.082  12.156  1.00 90.34    -0.395 OA
ATOM     44  H23 VFQ X1621     -53.196 147.531  11.709  1.00  0.00     0.210 HD
ENDROOT
TORSDOF 12
BEGIN_RES PHE A  61
REMARK  2 active torsions:
REMARK  status: ('A' for Active; 'I' for Inactive)
REMARK    1  A    between atoms: CA   and  CB  
REMARK    2  A    between atoms: CB   and  CG  
ROOT
ATOM      1  CA  PHE A  61     -36.237 128.293  12.768  1.00 39.40     0.164 C 
ENDROOT
BRANCH   1   2
ATOM      2  CB  PHE A  61     -36.813 128.951  11.509  1.00 39.41     0.058 C 
BRANCH   2   3
ATOM      3  CG  PHE A  61     -37.052 127.999  10.361  1.00 39.01    -0.020 A 
ATOM      4  CD2 PHE A  61     -36.268 126.868  10.200  1.00 40.32    -0.004 A 
ATOM      5  CE2 PHE A  61     -36.486 125.995   9.141  1.00 40.20    -0.000 A 
ATOM      6  CZ  PHE A  61     -37.493 126.241   8.236  1.00 40.34    -0.000 A 
ATOM      7  CE1 PHE A  61     -38.283 127.360   8.384  1.00 41.51    -0.000 A 
ATOM      8  CD1 PHE A  61     -38.060 128.236   9.438  1.00 39.94    -0.004 A 
ENDBRANCH   2   3
ENDBRANCH   1   2
END_RES PHE A  61
BEGIN_RES VAL A 134
REMARK  1 active torsions:
REMARK  status: ('A' for Active; 'I' for Inactive)
REMARK    3  A    between atoms: CA   and  CB  
ROOT
ATOM      9  CA  VAL A 134     -29.766 132.051   9.815  1.00 40.75     0.159 C 
ENDROOT
BRANCH   9  10
ATOM     10  CB  VAL A 134     -30.864 132.765   9.009  1.00 40.76     0.029 C 
ATOM     11  CG1 VAL A 134     -32.078 133.044   9.883  1.00 41.76     0.002 C 
ATOM     12  CG2 VAL A 134     -30.350 134.048   8.373  1.00 40.56     0.002 C 
ENDBRANCH   9  10
END_RES VAL A 134
BEGIN_RES TYR A 338
REMARK  3 active torsions:
REMARK  status: ('A' for Active; 'I' for Inactive)
REMARK    4  A    between atoms: CA   and  CB  
REMARK    5  A    between atoms: CB   and  CG  
REMARK    6  A    between atoms: CZ   and  OH  
ROOT
ATOM     13  CA  TYR A 338     -41.631 124.950   6.058  1.00 38.23     0.164 C 
ENDROOT
BRANCH  13  14
ATOM     14  CB  TYR A 338     -41.621 126.456   6.339  1.00 39.15     0.058 C 
BRANCH  14  15
ATOM     15  CG  TYR A 338     -40.414 127.210   5.830  1.00 39.03    -0.020 A 
ATOM     16  CD2 TYR A 338     -40.260 128.557   6.111  1.00 40.65    -0.002 A 
ATOM     17  CE2 TYR A 338     -39.174 129.284   5.647  1.00 40.91     0.024 A 
ATOM     18  CZ  TYR A 338     -38.209 128.660   4.879  1.00 42.33     0.089 A 
ATOM     19  CE1 TYR A 338     -38.338 127.314   4.589  1.00 40.63     0.024 A 
ATOM     20  CD1 TYR A 338     -39.438 126.608   5.051  1.00 39.27    -0.002 A 
BRANCH  18  21
ATOM     21  OH  TYR A 338     -37.132 129.366   4.420  1.00 43.36    -0.359 OA
ATOM     22  HH  TYR A 338     -37.202 130.299   4.258  1.00  0.00     0.217 HD
ENDBRANCH  18  21
ENDBRANCH  14  15
ENDBRANCH  13  14
END_RES TYR A 338
ENDMDL
MODEL 2
REMARK VINA RESULT:   -11.839      0.742     16.800
REMARK INTER + INTRA:         -12.010
REMARK INTER:                 -11.968
REMARK INTRA:                  -0.042
REMARK UNBOUND:                -0.171
REMARK  0 active torsions:
REMARK  status: ('A' for Active; 'I' for Inactive)
REMARK       I    between atoms: C3_3  and  O3_21 
REMARK       I    between atoms: C6_6  and  C7_7 
REMARK       I    between atoms: C8_8  and  C9_9 
REMARK       I    between atoms: C10_10  and  C11_11 
REMARK       I    between atoms: C12_12  and  C13_13 
REMARK       I    between atoms: C14_14  and  C15_15 
REMARK       I    between atoms: C23_25  and  O23_43 
REMARK       I    between atoms: C26_28  and  C27_29 
REMARK       I    between atoms: C28_30  and  C29_31 
REMARK       I    between atoms: C30_32  and  C31_33 
REMARK       I    between atoms: C32_34  and  C33_35 
REMARK       I    between atoms: C34_36  and  C35_37 
ROOT
HETATM    1  C1  VFQ X1621     -50.359 145.531   9.979  1.00 31.86    -0.018 C 
HETATM    2  C2  VFQ X1621     -51.194 145.502  11.263  1.00 31.86     0.045 C 
HETATM    3  C3  VFQ X1621     -50.673 146.314  12.443  1.00 31.86     0.123 C 
HETATM    4  C4  VFQ X1621     -49.664 147.367  12.005  1.00 31.86     0.066 C 
HETATM    5  C5  VFQ X1621     -48.588 146.642  11.254  1.00 31.86    -0.074 C 
HETATM    6  C6  VFQ X1621     -48.918 145.958  10.160  1.00 31.86    -0.048 C 
HETATM    7  C7  VFQ X1621     -47.911 145.431   9.216  1.00 31.86     0.009 C 
HETATM    8  C8  VFQ X1621     -46.716 145.053   9.681  1.00 31.86     0.007 C 
HETATM    9  C9  VFQ X1621     -45.810 144.311   8.775  1.00 31.86    -0.062 C 
HETATM   10  C10 VFQ X1621     -44.899 143.504   9.355  1.00 31.86     0.007 C 
HETATM   11  C11 VFQ X1621     -44.048 142.583   8.604  1.00 31.86     0.001 C 
HETATM   12  C12 VFQ X1621     -43.380 141.634   9.257  1.00 31.86     0.007 C 
HETATM   13  C13 VFQ X1621     -42.576 140.621   8.538  1.00 31.86    -0.062 C 
HETATM   14  C14 VFQ X1621     -42.054 139.614   9.270  1.00 31.86     0.007 C 
HETATM   15  C15 VFQ X1621     -41.258 138.520   8.710  1.00 31.86     0.001 C 
HETATM   16  C16 VFQ X1621     -50.958 146.556   9.017  1.00 31.86     0.020 C 
HETATM   17  C17 VFQ X1621     -50.451 144.160   9.328  1.00 31.86     0.020 C 
HETATM   18  C18 VFQ X1621     -47.420 147.589  11.281  1.00 31.86     0.044 C 
HETATM   19  C19 VFQ X1621     -45.995 144.406   7.278  1.00 31.86     0.048 C 
HETATM   20  C20 VFQ X1621     -42.413 140.745   7.044  1.00 31.86     0.048 C 
HETATM   21  O3  VFQ X1621     -51.810 146.944  13.029  1.00 31.86    -0.395 OA
ATOM     22  H3  VFQ X1621     -52.439 146.287  13.303  1.00  0.00     0.210 HD
HETATM   23  C21 VFQ X1621     -33.953 128.038   7.403  1.00 90.34    -0.018 C 
HETATM   24  C22 VFQ X1621     -32.962 127.234   6.567  1.00 90.34     0.045 C 
HETATM   25  C23 VFQ X1621     -31.724 127.951   6.050  1.00 90.34     0.123 C 
HETATM   26  C24 VFQ X1621     -32.008 129.410   5.759  1.00 90.34     0.066 C 
HETATM   27  C25 VFQ X1621     -32.543 130.030   7.015  1.00 90.34    -0.074 C 
HETATM   28  C26 VFQ X1621     -33.564 129.477   7.665  1.00 90.34    -0.048 C 
HETATM   29  C27 VFQ X1621     -34.344 130.233   8.677  1.00 90.34     0.009 C 
HETATM   30  C28 VFQ X1621     -35.299 131.090   8.308  1.00 90.34     0.007 C 
HETATM   31  C29 VFQ X1621     -36.127 131.846   9.251  1.00 31.86    -0.062 C 
HETATM   32  C30 VFQ X1621     -37.005 132.728   8.727  1.00 31.86     0.007 C 
HETATM   33  C31 VFQ X1621     -37.867 133.600   9.525  1.00 31.86     0.001 C 
HETATM   34  C32 VFQ X1621     -38.593 134.529   8.907  1.00 31.86     0.007 C 
HETATM   35  C33 VFQ X1621     -39.424 135.494   9.657  1.00 31.86    -0.062 C 
HETATM   36  C34 VFQ X1621     -39.992 136.487   8.942  1.00 31.86     0.007 C 
HETATM   37  C35 VFQ X1621     -40.801 137.566   9.514  1.00 31.86     0.001 C 
HETATM   38  C36 VFQ X1621     -34.070 127.372   8.760  1.00 90.34     0.020 C 
HETATM   39  C37 VFQ X1621     -35.296 127.952   6.688  1.00 90.34     0.020 C 
HETATM   40  C38 VFQ X1621     -31.865 131.267   7.515  1.00 90.34     0.044 C 
HETATM   41  C39 VFQ X1621     -35.950 131.594  10.727  1.00 31.86     0.048 C 
HETATM   42  C40 VFQ X1621     -39.548 135.356  11.152  1.00 31.86     0.048 C 
HETATM   43  O23 VFQ X1621     -31.322 127.320   4.835  1.00 90.34    -0.395 OA
ATOM     44  H23 VFQ X1621     -31.145 126.404   5.018  1.00  0.00     0.210 HD
ENDROOT
TORSDOF 12
BEGIN_RES PHE A  61
REMARK  2 active torsions:
REMARK  status: ('A' for Active; 'I' for Inactive)
REMARK    1  A    between atoms: CA   and  CB  
REMARK    2  A    between atoms: CB   and  CG  
ROOT
ATOM      1  CA  PHE A  61     -36.237 128.293  12.768  1.00 39.40     0.164 C 
ENDROOT
BRANCH   1   2
ATOM      2  CB  PHE A  61     -36.813 128.951  11.509  1.00 39.41     0.058 C 
BRANCH   2   3
ATOM      3  CG  PHE A  61     -37.055 127.999  10.362  1.00 39.01    -0.020 A 
ATOM      4  CD2 PHE A  61     -36.368 126.798  10.278  1.00 40.32    -0.004 A 
ATOM      5  CE2 PHE A  61     -36.589 125.924   9.220  1.00 40.20    -0.000 A 
ATOM      6  CZ  PHE A  61     -37.501 126.240   8.239  1.00 40.34    -0.000 A 
ATOM      7  CE1 PHE A  61     -38.193 127.428   8.309  1.00 41.51    -0.000 A 
ATOM      8  CD1 PHE A  61     -37.967 128.305   9.363  1.00 39.94    -0.004 A 
ENDBRANCH   2   3
ENDBRANCH   1   2
END_RES PHE A  61
BEGIN_RES VAL A 134
REMARK  1 active torsions:
REMARK  status: ('A' for Active; 'I' for Inactive)
REMARK    3  A    between atoms: CA   and  CB  
ROOT
ATOM      9  CA  VAL A 134     -29.766 132.051   9.815  1.00 40.75     0.159 C 
ENDROOT
BRANCH   9  10
ATOM     10  CB  VAL A 134     -30.864 132.765   9.009  1.00 40.76     0.029 C 
ATOM     11  CG1 VAL A 134     -32.112 132.962   9.857  1.00 41.76     0.002 C 
ATOM     12  CG2 VAL A 134     -30.376 134.092   8.449  1.00 40.56     0.002 C 
ENDBRANCH   9  10
END_RES VAL A 134
BEGIN_RES TYR A 338
REMARK  3 active torsions:
REMARK  status: ('A' for Active; 'I' for Inactive)
REMARK    4  A    between atoms: CA   and  CB  
REMARK    5  A    between atoms: CB   and  CG  
REMARK    6  A    between atoms: CZ   and  OH  
ROOT
ATOM     13  CA  TYR A 338     -41.631 124.950   6.058  1.00 38.23     0.164 C 
ENDROOT
BRANCH  13  14
ATOM     14  CB  TYR A 338     -41.621 126.456   6.339  1.00 39.15     0.058 C 
BRANCH  14  15
ATOM     15  CG  TYR A 338     -40.410 127.209   5.838  1.00 39.03    -0.020 A 
ATOM     16  CD2 TYR A 338     -40.254 128.555   6.124  1.00 40.65    -0.002 A 
ATOM     17  CE2 TYR A 338     -39.164 129.280   5.667  1.00 40.91     0.024 A 
ATOM     18  CZ  TYR A 338     -38.196 128.656   4.902  1.00 42.33     0.089 A 
ATOM     19  CE1 TYR A 338     -38.328 127.311   4.608  1.00 40.63     0.024 A 
ATOM     20  CD1 TYR A 338     -39.432 126.606   5.062  1.00 39.27    -0.002 A 
BRANCH  18  21
ATOM     21  OH  TYR A 338     -37.115 129.360   4.451  1.00 43.36    -0.359 OA
ATOM     22  HH  TYR A 338     -36.266 129.254   4.864  1.00  0.00     0.217 HD
ENDBRANCH  18  21
ENDBRANCH  14  15
ENDBRANCH  13  14
END_RES TYR A 338
ENDMDL
MODEL 3
REMARK VINA RESULT:   -11.763      1.456      1.938
REMARK INTER + INTRA:         -11.934
REMARK INTER:                  -9.336
REMARK INTRA:                  -2.598
REMARK UNBOUND:                -0.171
REMARK  0 active torsions:
REMARK  status: ('A' for Active; 'I' for Inactive)
REMARK       I    between atoms: C3_3  and  O3_21 
REMARK       I    between atoms: C6_6  and  C7_7 
REMARK       I    between atoms: C8_8  and  C9_9 
REMARK       I    between atoms: C10_10  and  C11_11 
REMARK       I    between atoms: C12_12  and  C13_13 
REMARK       I    between atoms: C14_14  and  C15_15 
REMARK       I    between atoms: C23_25  and  O23_43 
REMARK       I    between atoms: C26_28  and  C27_29 
REMARK       I    between atoms: C28_30  and  C29_31 
REMARK       I    between atoms: C30_32  and  C31_33 
REMARK       I    between atoms: C32_34  and  C33_35 
REMARK       I    between atoms: C34_36  and  C35_37 
ROOT
HETATM    1  C1  VFQ X1621     -34.438 127.004   6.427  1.00 31.86    -0.018 C 
HETATM    2  C2  VFQ X1621     -34.236 126.701   4.939  1.00 31.86     0.045 C 
HETATM    3  C3  VFQ X1621     -33.030 127.343   4.262  1.00 31.86     0.123 C 
HETATM    4  C4  VFQ X1621     -31.990 127.801   5.274  1.00 31.86     0.066 C 
HETATM    5  C5  VFQ X1621     -32.696 128.714   6.231  1.00 31.86    -0.074 C 
HETATM    6  C6  VFQ X1621     -33.722 128.238   6.933  1.00 31.86    -0.048 C 
HETATM    7  C7  VFQ X1621     -34.313 128.968   8.075  1.00 31.86     0.009 C 
HETATM    8  C8  VFQ X1621     -34.312 130.304   8.065  1.00 31.86     0.007 C 
HETATM    9  C9  VFQ X1621     -35.112 131.017   9.087  1.00 31.86    -0.062 C 
HETATM   10  C10 VFQ X1621     -35.531 132.260   8.771  1.00 31.86     0.007 C 
HETATM   11  C11 VFQ X1621     -36.463 133.026   9.597  1.00 31.86     0.001 C 
HETATM   12  C12 VFQ X1621     -37.036 134.115   9.090  1.00 31.86     0.007 C 
HETATM   13  C13 VFQ X1621     -38.054 134.877   9.849  1.00 31.86    -0.062 C 
HETATM   14  C14 VFQ X1621     -38.685 135.878   9.202  1.00 31.86     0.007 C 
HETATM   15  C15 VFQ X1621     -39.732 136.710   9.798  1.00 31.86     0.001 C 
HETATM   16  C16 VFQ X1621     -33.872 125.850   7.252  1.00 31.86     0.020 C 
HETATM   17  C17 VFQ X1621     -35.933 127.087   6.691  1.00 31.86     0.020 C 
HETATM   18  C18 VFQ X1621     -31.588 129.504   6.871  1.00 31.86     0.044 C 
HETATM   19  C19 VFQ X1621     -35.501 130.314  10.366  1.00 31.86     0.048 C 
HETATM   20  C20 VFQ X1621     -38.351 134.478  11.273  1.00 31.86     0.048 C 
HETATM   21  O3  VFQ X1621     -32.472 126.346   3.409  1.00 31.86    -0.395 OA
ATOM     22  H3  VFQ X1621     -33.121 126.060   2.777  1.00  0.00     0.210 HD
HETATM   23  C21 VFQ X1621     -48.619 145.770  11.772  1.00 90.34    -0.018 C 
HETATM   24  C22 VFQ X1621     -49.440 146.600  12.753  1.00 90.34     0.045 C 
HETATM   25  C23 VFQ X1621     -48.697 147.332  13.860  1.00 90.34     0.123 C 
HETATM   26  C24 VFQ X1621     -47.467 146.566  14.303  1.00 90.34     0.066 C 
HETATM   27  C25 VFQ X1621     -46.610 146.341  13.093  1.00 90.34    -0.074 C 
HETATM   28  C26 VFQ X1621     -47.121 145.802  11.988  1.00 90.34    -0.048 C 
HETATM   29  C27 VFQ X1621     -46.255 145.234  10.925  1.00 90.34     0.009 C 
HETATM   30  C28 VFQ X1621     -45.734 144.011  11.044  1.00 90.34     0.007 C 
HETATM   31  C29 VFQ X1621     -44.895 143.377  10.024  1.00 31.86    -0.062 C 
HETATM   32  C30 VFQ X1621     -44.384 142.162  10.316  1.00 31.86     0.007 C 
HETATM   33  C31 VFQ X1621     -43.487 141.416   9.435  1.00 31.86     0.001 C 
HETATM   34  C32 VFQ X1621     -42.931 140.291   9.883  1.00 31.86     0.007 C 
HETATM   35  C33 VFQ X1621     -41.955 139.530   9.076  1.00 31.86    -0.062 C 
HETATM   36  C34 VFQ X1621     -41.339 138.497   9.687  1.00 31.86     0.007 C 
HETATM   37  C35 VFQ X1621     -40.305 137.663   9.071  1.00 31.86     0.001 C 
HETATM   38  C36 VFQ X1621     -48.862 146.315  10.378  1.00 90.34     0.020 C 
HETATM   39  C37 VFQ X1621     -49.156 144.346  11.850  1.00 90.34     0.020 C 
HETATM   40  C38 VFQ X1621     -45.179 146.770  13.174  1.00 90.34     0.044 C 
HETATM   41  C39 VFQ X1621     -44.662 144.110   8.727  1.00 31.86     0.048 C 
HETATM   42  C40 VFQ X1621     -41.663 139.968   7.665  1.00 31.86     0.048 C 
HETATM   43  O23 VFQ X1621     -49.576 147.456  14.976  1.00 90.34    -0.395 OA
ATOM     44  H23 VFQ X1621     -50.348 147.935  14.698  1.00  0.00     0.210 HD
ENDROOT
TORSDOF 12
BEGIN_RES PHE A  61
REMARK  2 active torsions:
REMARK  status: ('A' for Active; 'I' for Inactive)
REMARK    1  A    between atoms: CA   and  CB  
REMARK    2  A    between atoms: CB   and  CG  
ROOT
ATOM      1  CA  PHE A  61     -36.237 128.293  12.768  1.00 39.40     0.164 C 
ENDROOT
BRANCH   1   2
ATOM      2  CB  PHE A  61     -36.813 128.951  11.509  1.00 39.41     0.058 C 
BRANCH   2   3
ATOM      3  CG  PHE A  61     -37.092 127.993  10.376  1.00 39.01    -0.020 A 
ATOM      4  CD2 PHE A  61     -36.366 126.819  10.241  1.00 40.32    -0.004 A 
ATOM      5  CE2 PHE A  61     -36.622 125.940   9.197  1.00 40.20    -0.000 A 
ATOM      6  CZ  PHE A  61     -37.607 126.222   8.278  1.00 40.34    -0.000 A 
ATOM      7  CE1 PHE A  61     -38.338 127.383   8.398  1.00 41.51    -0.000 A 
ATOM      8  CD1 PHE A  61     -38.079 128.265   9.439  1.00 39.94    -0.004 A 
ENDBRANCH   2   3
ENDBRANCH   1   2
END_RES PHE A  61
BEGIN_RES VAL A 134
REMARK  1 active torsions:
REMARK  status: ('A' for Active; 'I' for Inactive)
REMARK    3  A    between atoms: CA   and  CB  
ROOT
ATOM      9  CA  VAL A 134     -29.766 132.051   9.815  1.00 40.75     0.159 C 
ENDROOT
BRANCH   9  10
ATOM     10  CB  VAL A 134     -30.864 132.765   9.009  1.00 40.76     0.029 C 
ATOM     11  CG1 VAL A 134     -31.070 132.087   7.662  1.00 41.76     0.002 C 
ATOM     12  CG2 VAL A 134     -32.171 132.837   9.783  1.00 40.56     0.002 C 
ENDBRANCH   9  10
END_RES VAL A 134
BEGIN_RES TYR A 338
REMARK  3 active torsions:
REMARK  status: ('A' for Active; 'I' for Inactive)
REMARK    4  A    between atoms: CA   and  CB  
REMARK    5  A    between atoms: CB   and  CG  
REMARK    6  A    between atoms: CZ   and  OH  
ROOT
ATOM     13  CA  TYR A 338     -41.631 124.950   6.058  1.00 38.23     0.164 C 
ENDROOT
BRANCH  13  14
ATOM     14  CB  TYR A 338     -41.621 126.456   6.339  1.00 39.15     0.058 C 
BRANCH  14  15
ATOM     15  CG  TYR A 338     -40.410 127.209   5.839  1.00 39.03    -0.020 A 
ATOM     16  CD2 TYR A 338     -40.234 128.545   6.156  1.00 40.65    -0.002 A 
ATOM     17  CE2 TYR A 338     -39.144 129.270   5.702  1.00 40.91     0.024 A 
ATOM     18  CZ  TYR A 338     -38.195 128.656   4.906  1.00 42.33     0.089 A 
ATOM     19  CE1 TYR A 338     -38.345 127.320   4.579  1.00 40.63     0.024 A 
ATOM     20  CD1 TYR A 338     -39.450 126.616   5.033  1.00 39.27    -0.002 A 
BRANCH  18  21
ATOM     21  OH  TYR A 338     -37.113 129.360   4.456  1.00 43.36    -0.359 OA
ATOM     22  HH  TYR A 338     -36.397 129.570   5.045  1.00  0.00     0.217 HD
ENDBRANCH  18  21
ENDBRANCH  14  15
ENDBRANCH  13  14
END_RES TYR A 338
ENDMDL
