MODEL 1
REMARK VINA RESULT:    -9.184      0.000      0.000
REMARK INTER + INTRA:         -12.141
REMARK INTER:                  -9.184
REMARK INTRA:                  -2.957
REMARK UNBOUND:                -2.957
REMARK  0 active torsions:
REMARK  status: ('A' for Active; 'I' for Inactive)
REMARK       I    between atoms: C3_3  and  O3_21 
REMARK       I    between atoms: C6_6  and  C7_7 
REMARK       I    between atoms: C8_8  and  C9_9 
REMARK       I    between atoms: C10_10  and  C11_11 
REMARK       I    between atoms: C12_12  and  C13_13 
REMARK       I    between atoms: C14_14  and  C15_15 
REMARK       I    between atoms: C23_25  and  O23_43 
REMARK       I    between atoms: C26_28  and  C27_29 
REMARK       I    between atoms: C28_30  and  C29_31 
REMARK       I    between atoms: C30_32  and  C31_33 
REMARK       I    between atoms: C32_34  and  C33_35 
REMARK       I    between atoms: C34_36  and  C35_37 
ROOT
HETATM    1  C1  VFQ 11620     -34.426 127.786   6.519  1.00 94.67    -0.018 C 
HETATM    2  C2  VFQ 11620     -33.754 127.414   5.204  1.00 94.67     0.045 C 
HETATM    3  C3  VFQ 11620     -32.448 128.113   4.890  1.00 94.67     0.123 C 
HETATM    4  C4  VFQ 11620     -31.594 128.132   6.128  1.00 94.67     0.066 C 
HETATM    5  C5  VFQ 11620     -32.302 128.871   7.219  1.00 94.67    -0.074 C 
HETATM    6  C6  VFQ 11620     -33.612 128.704   7.411  1.00 94.67    -0.048 C 
HETATM    7  C7  VFQ 11620     -34.314 129.403   8.515  1.00 94.67     0.009 C 
HETATM    8  C8  VFQ 11620     -34.827 130.619   8.345  1.00 94.67     0.007 C 
HETATM    9  C9  VFQ 11620     -35.544 131.338   9.397  1.00 94.67    -0.062 C 
HETATM   10  C10 VFQ 11620     -36.054 132.514   9.047  1.00 94.67     0.007 C 
HETATM   11  C11 VFQ 11620     -36.821 133.370   9.931  1.00 94.67     0.001 C 
HETATM   12  C12 VFQ 11620     -37.513 134.286   9.273  1.00 94.67     0.007 C 
HETATM   13  C13 VFQ 11620     -38.394 135.263   9.909  1.00 94.67    -0.062 C 
HETATM   14  C14 VFQ 11620     -39.092 136.046   9.090  1.00 94.67     0.007 C 
HETATM   15  C15 VFQ 11620     -40.042 137.048   9.545  1.00 94.67     0.001 C 
HETATM   16  C16 VFQ 11620     -34.735 126.467   7.219  1.00 94.67     0.020 C 
HETATM   17  C17 VFQ 11620     -35.719 128.516   6.185  1.00 94.67     0.020 C 
HETATM   18  C18 VFQ 11620     -31.452 129.742   8.096  1.00 94.67     0.044 C 
HETATM   19  C19 VFQ 11620     -35.693 130.773  10.776  1.00 94.67     0.048 C 
HETATM   20  C20 VFQ 11620     -38.514 135.350  11.397  1.00 94.67     0.048 C 
HETATM   21  O3  VFQ 11620     -31.760 127.366   3.886  1.00 94.67    -0.395 OA
ATOM     22  H3  VFQ 11620     -32.300 127.353   3.104  1.00  0.00     0.210 HD
HETATM   23  C21 VFQ 11620     -49.679 144.621   9.710  1.00 72.69    -0.018 C 
HETATM   24  C22 VFQ 11620     -50.643 145.559  10.437  1.00 72.50     0.045 C 
HETATM   25  C23 VFQ 11620     -50.111 146.915  10.891  1.00 72.53     0.123 C 
HETATM   26  C24 VFQ 11620     -48.621 146.886  11.179  1.00 73.67     0.066 C 
HETATM   27  C25 VFQ 11620     -47.890 146.328   9.990  1.00 74.71    -0.074 C 
HETATM   28  C26 VFQ 11620     -48.332 145.228   9.382  1.00 74.26    -0.048 C 
HETATM   29  C27 VFQ 11620     -47.494 144.541   8.374  1.00 75.37     0.009 C 
HETATM   30  C28 VFQ 11620     -46.546 143.692   8.772  1.00 77.10     0.007 C 
HETATM   31  C29 VFQ 11620     -45.692 142.968   7.823  1.00 94.67    -0.062 C 
HETATM   32  C30 VFQ 11620     -44.963 141.985   8.348  1.00 94.67     0.007 C 
HETATM   33  C31 VFQ 11620     -44.045 141.129   7.620  1.00 94.67     0.001 C 
HETATM   34  C32 VFQ 11620     -43.320 140.388   8.440  1.00 94.67     0.007 C 
HETATM   35  C33 VFQ 11620     -42.305 139.427   8.016  1.00 94.67    -0.062 C 
HETATM   36  C34 VFQ 11620     -41.783 138.628   8.951  1.00 94.67     0.007 C 
HETATM   37  C35 VFQ 11620     -40.781 137.631   8.611  1.00 94.67     0.001 C 
HETATM   38  C36 VFQ 11620     -50.315 144.195   8.392  1.00 72.40     0.020 C 
HETATM   39  C37 VFQ 11620     -49.465 143.390  10.581  1.00 73.92     0.020 C 
HETATM   40  C38 VFQ 11620     -46.655 147.031   9.507  1.00 74.98     0.044 C 
HETATM   41  C39 VFQ 11620     -45.653 143.309   6.367  1.00 94.67     0.048 C 
HETATM   42  C40 VFQ 11620     -41.863 139.368   6.590  1.00 94.67     0.048 C 
HETATM   43  O23 VFQ 11620     -50.798 147.287  12.092  1.00 71.08    -0.395 OA
ATOM     44  H23 VFQ 11620     -51.731 147.306  11.912  1.00  0.00     0.210 HD
ENDROOT
TORSDOF 12
BEGIN_RES PHE A  61
REMARK  2 active torsions:
REMARK  status: ('A' for Active; 'I' for Inactive)
REMARK    1  A    between atoms: CA   and  CB  
REMARK    2  A    between atoms: CB   and  CG  
ROOT
ATOM      1  CA  PHE A  61     -36.237 128.293  12.768  1.00 39.40     0.164 C 
ENDROOT
BRANCH   1   2
ATOM      2  CB  PHE A  61     -36.813 128.951  11.509  1.00 39.41     0.058 C 
BRANCH   2   3
ATOM      3  CG  PHE A  61     -37.029 128.004  10.353  1.00 39.01    -0.020 A 
ATOM      4  CD2 PHE A  61     -36.278 126.845  10.232  1.00 40.32    -0.004 A 
ATOM      5  CE2 PHE A  61     -36.475 125.977   9.166  1.00 40.20    -0.000 A 
ATOM      6  CZ  PHE A  61     -37.427 126.254   8.212  1.00 40.34    -0.000 A 
ATOM      7  CE1 PHE A  61     -38.183 127.400   8.319  1.00 41.51    -0.000 A 
ATOM      8  CD1 PHE A  61     -37.982 128.272   9.381  1.00 39.94    -0.004 A 
ENDBRANCH   2   3
ENDBRANCH   1   2
END_RES PHE A  61
BEGIN_RES VAL A 134
REMARK  1 active torsions:
REMARK  status: ('A' for Active; 'I' for Inactive)
REMARK    3  A    between atoms: CA   and  CB  
ROOT
ATOM      9  CA  VAL A 134     -29.766 132.051   9.815  1.00 40.75     0.159 C 
ENDROOT
BRANCH   9  10
ATOM     10  CB  VAL A 134     -30.864 132.765   9.009  1.00 40.76     0.029 C 
ATOM     11  CG1 VAL A 134     -30.920 132.231   7.585  1.00 41.76     0.002 C 
ATOM     12  CG2 VAL A 134     -32.222 132.648   9.684  1.00 40.56     0.002 C 
ENDBRANCH   9  10
END_RES VAL A 134
BEGIN_RES TYR A 338
REMARK  3 active torsions:
REMARK  status: ('A' for Active; 'I' for Inactive)
REMARK    4  A    between atoms: CA   and  CB  
REMARK    5  A    between atoms: CB   and  CG  
REMARK    6  A    between atoms: CZ   and  OH  
ROOT
ATOM     13  CA  TYR A 338     -41.631 124.950   6.058  1.00 38.23     0.164 C 
ENDROOT
BRANCH  13  14
ATOM     14  CB  TYR A 338     -41.621 126.456   6.339  1.00 39.15     0.058 C 
BRANCH  14  15
ATOM     15  CG  TYR A 338     -40.428 127.215   5.805  1.00 39.03    -0.020 A 
ATOM     16  CD2 TYR A 338     -40.274 128.563   6.082  1.00 40.65    -0.002 A 
ATOM     17  CE2 TYR A 338     -39.201 129.294   5.596  1.00 40.91     0.024 A 
ATOM     18  CZ  TYR A 338     -38.248 128.674   4.809  1.00 42.33     0.089 A 
ATOM     19  CE1 TYR A 338     -38.378 127.326   4.522  1.00 40.63     0.024 A 
ATOM     20  CD1 TYR A 338     -39.466 126.616   5.007  1.00 39.27    -0.002 A 
BRANCH  18  21
ATOM     21  OH  TYR A 338     -37.184 129.383   4.328  1.00 43.36    -0.359 OA
ATOM     22  HH  TYR A 338     -36.296 129.079   4.478  1.00  0.00     0.217 HD
ENDBRANCH  18  21
ENDBRANCH  14  15
ENDBRANCH  13  14
END_RES TYR A 338
ENDMDL
MODEL 2
REMARK VINA RESULT:    -6.791      1.193     16.377
REMARK INTER + INTRA:          -9.748
REMARK INTER:                  -9.830
REMARK INTRA:                   0.081
REMARK UNBOUND:                -2.957
REMARK  0 active torsions:
REMARK  status: ('A' for Active; 'I' for Inactive)
REMARK       I    between atoms: C3_3  and  O3_21 
REMARK       I    between atoms: C6_6  and  C7_7 
REMARK       I    between atoms: C8_8  and  C9_9 
REMARK       I    between atoms: C10_10  and  C11_11 
REMARK       I    between atoms: C12_12  and  C13_13 
REMARK       I    between atoms: C14_14  and  C15_15 
REMARK       I    between atoms: C23_25  and  O23_43 
REMARK       I    between atoms: C26_28  and  C27_29 
REMARK       I    between atoms: C28_30  and  C29_31 
REMARK       I    between atoms: C30_32  and  C31_33 
REMARK       I    between atoms: C32_34  and  C33_35 
REMARK       I    between atoms: C34_36  and  C35_37 
ROOT
HETATM    1  C1  VFQ 11620     -49.888 144.200  11.848  1.00 94.67    -0.018 C 
HETATM    2  C2  VFQ 11620     -50.457 144.505  13.227  1.00 94.67     0.045 C 
HETATM    3  C3  VFQ 11620     -49.727 145.549  14.045  1.00 94.67     0.123 C 
HETATM    4  C4  VFQ 11620     -49.388 146.716  13.158  1.00 94.67     0.066 C 
HETATM    5  C5  VFQ 11620     -48.509 146.260  12.036  1.00 94.67    -0.074 C 
HETATM    6  C6  VFQ 11620     -48.745 145.100  11.419  1.00 94.67    -0.048 C 
HETATM    7  C7  VFQ 11620     -47.902 144.660  10.281  1.00 94.67     0.009 C 
HETATM    8  C8  VFQ 11620     -46.792 143.952  10.480  1.00 94.67     0.007 C 
HETATM    9  C9  VFQ 11620     -45.941 143.479   9.389  1.00 94.67    -0.062 C 
HETATM   10  C10 VFQ 11620     -44.906 142.727   9.750  1.00 94.67     0.007 C 
HETATM   11  C11 VFQ 11620     -43.959 142.138   8.823  1.00 94.67     0.001 C 
HETATM   12  C12 VFQ 11620     -43.255 141.162   9.372  1.00 94.67     0.007 C 
HETATM   13  C13 VFQ 11620     -42.249 140.376   8.662  1.00 94.67    -0.062 C 
HETATM   14  C14 VFQ 11620     -41.707 139.365   9.338  1.00 94.67     0.007 C 
HETATM   15  C15 VFQ 11620     -40.719 138.457   8.779  1.00 94.67     0.001 C 
HETATM   16  C16 VFQ 11620     -51.062 144.300  10.879  1.00 94.67     0.020 C 
HETATM   17  C17 VFQ 11620     -49.353 142.777  11.875  1.00 94.67     0.020 C 
HETATM   18  C18 VFQ 11620     -47.412 147.197  11.626  1.00 94.67     0.044 C 
HETATM   19  C19 VFQ 11620     -46.229 143.820   7.960  1.00 94.67     0.048 C 
HETATM   20  C20 VFQ 11620     -41.877 140.684   7.247  1.00 94.67     0.048 C 
HETATM   21  O3  VFQ 11620     -50.599 146.013  15.077  1.00 94.67    -0.395 OA
ATOM     22  H3  VFQ 11620     -50.813 145.276  15.637  1.00  0.00     0.210 HD
HETATM   23  C21 VFQ 11620     -34.112 128.314   6.849  1.00 72.69    -0.018 C 
HETATM   24  C22 VFQ 11620     -33.133 127.482   6.021  1.00 72.50     0.045 C 
HETATM   25  C23 VFQ 11620     -31.673 127.925   5.986  1.00 72.53     0.123 C 
HETATM   26  C24 VFQ 11620     -31.518 129.423   6.179  1.00 73.67     0.066 C 
HETATM   27  C25 VFQ 11620     -32.238 129.847   7.428  1.00 74.71    -0.074 C 
HETATM   28  C26 VFQ 11620     -33.471 129.407   7.678  1.00 74.26    -0.048 C 
HETATM   29  C27 VFQ 11620     -34.271 130.002   8.770  1.00 75.37     0.009 C 
HETATM   30  C28 VFQ 11620     -34.940 131.136   8.555  1.00 77.10     0.007 C 
HETATM   31  C29 VFQ 11620     -35.764 131.769   9.592  1.00 94.67    -0.062 C 
HETATM   32  C30 VFQ 11620     -36.556 132.752   9.168  1.00 94.67     0.007 C 
HETATM   33  C31 VFQ 11620     -37.460 133.530   9.996  1.00 94.67     0.001 C 
HETATM   34  C32 VFQ 11620     -37.958 134.559   9.334  1.00 94.67     0.007 C 
HETATM   35  C33 VFQ 11620     -38.895 135.533   9.891  1.00 94.67    -0.062 C 
HETATM   36  C34 VFQ 11620     -39.443 136.413   9.049  1.00 94.67     0.007 C 
HETATM   37  C35 VFQ 11620     -40.400 137.403   9.518  1.00 94.67     0.001 C 
HETATM   38  C36 VFQ 11620     -34.845 127.389   7.812  1.00 72.40     0.020 C 
HETATM   39  C37 VFQ 11620     -35.121 128.946   5.900  1.00 73.92     0.020 C 
HETATM   40  C38 VFQ 11620     -31.543 130.773   8.382  1.00 74.98     0.044 C 
HETATM   41  C39 VFQ 11620     -35.719 131.333  11.022  1.00 94.67     0.048 C 
HETATM   42  C40 VFQ 11620     -39.200 135.542  11.354  1.00 94.67     0.048 C 
HETATM   43  O23 VFQ 11620     -31.128 127.573   4.708  1.00 71.08    -0.395 OA
ATOM     44  H23 VFQ 11620     -31.225 126.635   4.588  1.00  0.00     0.210 HD
ENDROOT
TORSDOF 12
BEGIN_RES PHE A  61
REMARK  2 active torsions:
REMARK  status: ('A' for Active; 'I' for Inactive)
REMARK    1  A    between atoms: CA   and  CB  
REMARK    2  A    between atoms: CB   and  CG  
ROOT
ATOM      1  CA  PHE A  61     -36.237 128.293  12.768  1.00 39.40     0.164 C 
ENDROOT
BRANCH   1   2
ATOM      2  CB  PHE A  61     -36.813 128.951  11.509  1.00 39.41     0.058 C 
BRANCH   2   3
ATOM      3  CG  PHE A  61     -37.049 128.000  10.360  1.00 39.01    -0.020 A 
ATOM      4  CD2 PHE A  61     -36.355 126.803  10.273  1.00 40.32    -0.004 A 
ATOM      5  CE2 PHE A  61     -36.570 125.931   9.214  1.00 40.20    -0.000 A 
ATOM      6  CZ  PHE A  61     -37.484 126.243   8.232  1.00 40.34    -0.000 A 
ATOM      7  CE1 PHE A  61     -38.183 127.427   8.305  1.00 41.51    -0.000 A 
ATOM      8  CD1 PHE A  61     -37.963 128.303   9.361  1.00 39.94    -0.004 A 
ENDBRANCH   2   3
ENDBRANCH   1   2
END_RES PHE A  61
BEGIN_RES VAL A 134
REMARK  1 active torsions:
REMARK  status: ('A' for Active; 'I' for Inactive)
REMARK    3  A    between atoms: CA   and  CB  
ROOT
ATOM      9  CA  VAL A 134     -29.766 132.051   9.815  1.00 40.75     0.159 C 
ENDROOT
BRANCH   9  10
ATOM     10  CB  VAL A 134     -30.864 132.765   9.009  1.00 40.76     0.029 C 
ATOM     11  CG1 VAL A 134     -32.082 133.034   9.880  1.00 41.76     0.002 C 
ATOM     12  CG2 VAL A 134     -30.353 134.053   8.383  1.00 40.56     0.002 C 
ENDBRANCH   9  10
END_RES VAL A 134
BEGIN_RES TYR A 338
REMARK  3 active torsions:
REMARK  status: ('A' for Active; 'I' for Inactive)
REMARK    4  A    between atoms: CA   and  CB  
REMARK    5  A    between atoms: CB   and  CG  
REMARK    6  A    between atoms: CZ   and  OH  
ROOT
ATOM     13  CA  TYR A 338     -41.631 124.950   6.058  1.00 38.23     0.164 C 
ENDROOT
BRANCH  13  14
ATOM     14  CB  TYR A 338     -41.621 126.456   6.339  1.00 39.15     0.058 C 
BRANCH  14  15
ATOM     15  CG  TYR A 338     -40.422 127.213   5.816  1.00 39.03    -0.020 A 
ATOM     16  CD2 TYR A 338     -40.281 128.566   6.073  1.00 40.65    -0.002 A 
ATOM     17  CE2 TYR A 338     -39.202 129.295   5.596  1.00 40.91     0.024 A 
ATOM     18  CZ  TYR A 338     -38.232 128.668   4.838  1.00 42.33     0.089 A 
ATOM     19  CE1 TYR A 338     -38.348 127.315   4.572  1.00 40.63     0.024 A 
ATOM     20  CD1 TYR A 338     -39.441 126.606   5.047  1.00 39.27    -0.002 A 
BRANCH  18  21
ATOM     21  OH  TYR A 338     -37.162 129.375   4.366  1.00 43.36    -0.359 OA
ATOM     22  HH  TYR A 338     -36.297 129.243   4.736  1.00  0.00     0.217 HD
ENDBRANCH  18  21
ENDBRANCH  14  15
ENDBRANCH  13  14
END_RES TYR A 338
ENDMDL
