MODEL 1
REMARK VINA RESULT:    -9.215      0.000      0.000
REMARK INTER + INTRA:         -12.175
REMARK INTER:                  -9.215
REMARK INTRA:                  -2.960
REMARK UNBOUND:                -2.960
REMARK  0 active torsions:
REMARK  status: ('A' for Active; 'I' for Inactive)
REMARK       I    between atoms: C3_3  and  O3_21 
REMARK       I    between atoms: C6_6  and  C7_7 
REMARK       I    between atoms: C8_8  and  C9_9 
REMARK       I    between atoms: C10_10  and  C11_11 
REMARK       I    between atoms: C12_12  and  C13_13 
REMARK       I    between atoms: C14_14  and  C15_15 
REMARK       I    between atoms: C23_25  and  O23_43 
REMARK       I    between atoms: C26_28  and  C27_29 
REMARK       I    between atoms: C28_30  and  C29_31 
REMARK       I    between atoms: C30_32  and  C31_33 
REMARK       I    between atoms: C32_34  and  C33_35 
REMARK       I    between atoms: C34_36  and  C35_37 
ROOT
HETATM    1  C1  VFQ 11620     -34.430 127.777   6.502  1.00 94.67    -0.018 C 
HETATM    2  C2  VFQ 11620     -33.755 127.400   5.191  1.00 94.67     0.045 C 
HETATM    3  C3  VFQ 11620     -32.447 128.096   4.879  1.00 94.67     0.123 C 
HETATM    4  C4  VFQ 11620     -31.596 128.119   6.119  1.00 94.67     0.066 C 
HETATM    5  C5  VFQ 11620     -32.307 128.862   7.206  1.00 94.67    -0.074 C 
HETATM    6  C6  VFQ 11620     -33.618 128.697   7.394  1.00 94.67    -0.048 C 
HETATM    7  C7  VFQ 11620     -34.322 129.400   8.494  1.00 94.67     0.009 C 
HETATM    8  C8  VFQ 11620     -34.833 130.616   8.318  1.00 94.67     0.007 C 
HETATM    9  C9  VFQ 11620     -35.552 131.339   9.366  1.00 94.67    -0.062 C 
HETATM   10  C10 VFQ 11620     -36.060 132.515   9.010  1.00 94.67     0.007 C 
HETATM   11  C11 VFQ 11620     -36.829 133.375   9.890  1.00 94.67     0.001 C 
HETATM   12  C12 VFQ 11620     -37.517 134.290   9.227  1.00 94.67     0.007 C 
HETATM   13  C13 VFQ 11620     -38.399 135.269   9.857  1.00 94.67    -0.062 C 
HETATM   14  C14 VFQ 11620     -39.093 136.052   9.033  1.00 94.67     0.007 C 
HETATM   15  C15 VFQ 11620     -40.043 137.056   9.483  1.00 94.67     0.001 C 
HETATM   16  C16 VFQ 11620     -34.743 126.461   7.206  1.00 94.67     0.020 C 
HETATM   17  C17 VFQ 11620     -35.721 128.507   6.163  1.00 94.67     0.020 C 
HETATM   18  C18 VFQ 11620     -31.458 129.734   8.082  1.00 94.67     0.044 C 
HETATM   19  C19 VFQ 11620     -35.707 130.779  10.746  1.00 94.67     0.048 C 
HETATM   20  C20 VFQ 11620     -38.523 135.361  11.344  1.00 94.67     0.048 C 
HETATM   21  O3  VFQ 11620     -31.757 127.345   3.879  1.00 94.67    -0.395 OA
ATOM     22  H3  VFQ 11620     -32.294 127.331   3.096  1.00  0.00     0.210 HD
HETATM   23  C21 VFQ 11620     -49.763 144.670   9.378  1.00 48.43    -0.018 C 
HETATM   24  C22 VFQ 11620     -50.736 145.543  10.158  1.00 44.61     0.045 C 
HETATM   25  C23 VFQ 11620     -50.249 146.933  10.518  1.00 44.41     0.123 C 
HETATM   26  C24 VFQ 11620     -48.807 146.898  10.963  1.00 41.53     0.066 C 
HETATM   27  C25 VFQ 11620     -47.990 146.361   9.832  1.00 37.72    -0.074 C 
HETATM   28  C26 VFQ 11620     -48.373 145.253   9.198  1.00 43.52    -0.048 C 
HETATM   29  C27 VFQ 11620     -47.472 144.546   8.258  1.00 44.60     0.009 C 
HETATM   30  C28 VFQ 11620     -46.535 143.704   8.674  1.00 43.22     0.007 C 
HETATM   31  C29 VFQ 11620     -45.681 142.978   7.724  1.00 94.67    -0.062 C 
HETATM   32  C30 VFQ 11620     -44.955 141.996   8.255  1.00 94.67     0.007 C 
HETATM   33  C31 VFQ 11620     -44.035 141.136   7.532  1.00 94.67     0.001 C 
HETATM   34  C32 VFQ 11620     -43.314 140.396   8.356  1.00 94.67     0.007 C 
HETATM   35  C33 VFQ 11620     -42.299 139.433   7.939  1.00 94.67    -0.062 C 
HETATM   36  C34 VFQ 11620     -41.780 138.636   8.878  1.00 94.67     0.007 C 
HETATM   37  C35 VFQ 11620     -40.778 137.637   8.544  1.00 94.67     0.001 C 
HETATM   38  C36 VFQ 11620     -50.284 144.477   7.965  1.00 47.48     0.020 C 
HETATM   39  C37 VFQ 11620     -49.742 143.326  10.098  1.00 54.25     0.020 C 
HETATM   40  C38 VFQ 11620     -46.762 147.119   9.453  1.00 37.77     0.044 C 
HETATM   41  C39 VFQ 11620     -45.637 143.314   6.267  1.00 94.67     0.048 C 
HETATM   42  C40 VFQ 11620     -41.853 139.368   6.514  1.00 94.67     0.048 C 
HETATM   43  O23 VFQ 11620     -51.047 147.440  11.588  1.00 48.83    -0.395 OA
ATOM     44  H23 VFQ 11620     -51.954 147.462  11.308  1.00  0.00     0.210 HD
ENDROOT
TORSDOF 12
BEGIN_RES PHE A  61
REMARK  2 active torsions:
REMARK  status: ('A' for Active; 'I' for Inactive)
REMARK    1  A    between atoms: CA   and  CB  
REMARK    2  A    between atoms: CB   and  CG  
ROOT
ATOM      1  CA  PHE A  61     -36.237 128.293  12.768  1.00 39.40     0.164 C 
ENDROOT
BRANCH   1   2
ATOM      2  CB  PHE A  61     -36.813 128.951  11.509  1.00 39.41     0.058 C 
BRANCH   2   3
ATOM      3  CG  PHE A  61     -37.028 128.004  10.353  1.00 39.01    -0.020 A 
ATOM      4  CD2 PHE A  61     -36.278 126.844  10.234  1.00 40.32    -0.004 A 
ATOM      5  CE2 PHE A  61     -36.475 125.976   9.167  1.00 40.20    -0.000 A 
ATOM      6  CZ  PHE A  61     -37.425 126.254   8.211  1.00 40.34    -0.000 A 
ATOM      7  CE1 PHE A  61     -38.179 127.401   8.316  1.00 41.51    -0.000 A 
ATOM      8  CD1 PHE A  61     -37.979 128.274   9.379  1.00 39.94    -0.004 A 
ENDBRANCH   2   3
ENDBRANCH   1   2
END_RES PHE A  61
BEGIN_RES VAL A 134
REMARK  1 active torsions:
REMARK  status: ('A' for Active; 'I' for Inactive)
REMARK    3  A    between atoms: CA   and  CB  
ROOT
ATOM      9  CA  VAL A 134     -29.766 132.051   9.815  1.00 40.75     0.159 C 
ENDROOT
BRANCH   9  10
ATOM     10  CB  VAL A 134     -30.864 132.765   9.009  1.00 40.76     0.029 C 
ATOM     11  CG1 VAL A 134     -30.918 132.232   7.585  1.00 41.76     0.002 C 
ATOM     12  CG2 VAL A 134     -32.222 132.646   9.683  1.00 40.56     0.002 C 
ENDBRANCH   9  10
END_RES VAL A 134
BEGIN_RES TYR A 338
REMARK  3 active torsions:
REMARK  status: ('A' for Active; 'I' for Inactive)
REMARK    4  A    between atoms: CA   and  CB  
REMARK    5  A    between atoms: CB   and  CG  
REMARK    6  A    between atoms: CZ   and  OH  
ROOT
ATOM     13  CA  TYR A 338     -41.631 124.950   6.058  1.00 38.23     0.164 C 
ENDROOT
BRANCH  13  14
ATOM     14  CB  TYR A 338     -41.621 126.456   6.339  1.00 39.15     0.058 C 
BRANCH  14  15
ATOM     15  CG  TYR A 338     -40.428 127.215   5.805  1.00 39.03    -0.020 A 
ATOM     16  CD2 TYR A 338     -40.273 128.563   6.083  1.00 40.65    -0.002 A 
ATOM     17  CE2 TYR A 338     -39.200 129.293   5.596  1.00 40.91     0.024 A 
ATOM     18  CZ  TYR A 338     -38.249 128.674   4.808  1.00 42.33     0.089 A 
ATOM     19  CE1 TYR A 338     -38.380 127.327   4.520  1.00 40.63     0.024 A 
ATOM     20  CD1 TYR A 338     -39.467 126.617   5.005  1.00 39.27    -0.002 A 
BRANCH  18  21
ATOM     21  OH  TYR A 338     -37.185 129.384   4.326  1.00 43.36    -0.359 OA
ATOM     22  HH  TYR A 338     -36.322 129.275   4.709  1.00  0.00     0.217 HD
ENDBRANCH  18  21
ENDBRANCH  14  15
ENDBRANCH  13  14
END_RES TYR A 338
ENDMDL
MODEL 2
REMARK VINA RESULT:    -8.623      0.583      0.857
REMARK INTER + INTRA:         -11.582
REMARK INTER:                  -9.154
REMARK INTRA:                  -2.429
REMARK UNBOUND:                -2.960
REMARK  0 active torsions:
REMARK  status: ('A' for Active; 'I' for Inactive)
REMARK       I    between atoms: C3_3  and  O3_21 
REMARK       I    between atoms: C6_6  and  C7_7 
REMARK       I    between atoms: C8_8  and  C9_9 
REMARK       I    between atoms: C10_10  and  C11_11 
REMARK       I    between atoms: C12_12  and  C13_13 
REMARK       I    between atoms: C14_14  and  C15_15 
REMARK       I    between atoms: C23_25  and  O23_43 
REMARK       I    between atoms: C26_28  and  C27_29 
REMARK       I    between atoms: C28_30  and  C29_31 
REMARK       I    between atoms: C30_32  and  C31_33 
REMARK       I    between atoms: C32_34  and  C33_35 
REMARK       I    between atoms: C34_36  and  C35_37 
ROOT
HETATM    1  C1  VFQ 11620     -34.490 128.281   6.818  1.00 94.67    -0.018 C 
HETATM    2  C2  VFQ 11620     -33.667 127.970   5.575  1.00 94.67     0.045 C 
HETATM    3  C3  VFQ 11620     -32.337 128.681   5.449  1.00 94.67     0.123 C 
HETATM    4  C4  VFQ 11620     -31.633 128.643   6.779  1.00 94.67     0.066 C 
HETATM    5  C5  VFQ 11620     -32.468 129.331   7.812  1.00 94.67    -0.074 C 
HETATM    6  C6  VFQ 11620     -33.791 129.156   7.841  1.00 94.67    -0.048 C 
HETATM    7  C7  VFQ 11620     -34.620 129.804   8.886  1.00 94.67     0.009 C 
HETATM    8  C8  VFQ 11620     -35.115 131.027   8.713  1.00 94.67     0.007 C 
HETATM    9  C9  VFQ 11620     -35.954 131.697   9.705  1.00 94.67    -0.062 C 
HETATM   10  C10 VFQ 11620     -36.425 132.889   9.352  1.00 94.67     0.007 C 
HETATM   11  C11 VFQ 11620     -37.294 133.704  10.179  1.00 94.67     0.001 C 
HETATM   12  C12 VFQ 11620     -37.907 134.650   9.488  1.00 94.67     0.007 C 
HETATM   13  C13 VFQ 11620     -38.861 135.597  10.060  1.00 94.67    -0.062 C 
HETATM   14  C14 VFQ 11620     -39.462 136.418   9.201  1.00 94.67     0.007 C 
HETATM   15  C15 VFQ 11620     -40.463 137.399   9.588  1.00 94.67     0.001 C 
HETATM   16  C16 VFQ 11620     -34.874 126.931   7.416  1.00 94.67     0.020 C 
HETATM   17  C17 VFQ 11620     -35.738 129.027   6.369  1.00 94.67     0.020 C 
HETATM   18  C18 VFQ 11620     -31.730 130.159   8.822  1.00 94.67     0.044 C 
HETATM   19  C19 VFQ 11620     -36.261 131.069  11.030  1.00 94.67     0.048 C 
HETATM   20  C20 VFQ 11620     -39.156 135.615  11.525  1.00 94.67     0.048 C 
HETATM   21  O3  VFQ 11620     -31.532 127.981   4.499  1.00 94.67    -0.395 OA
ATOM     22  H3  VFQ 11620     -31.976 128.005   3.660  1.00  0.00     0.210 HD
HETATM   23  C21 VFQ 11620     -50.154 145.005   8.746  1.00 48.43    -0.018 C 
HETATM   24  C22 VFQ 11620     -51.215 145.837   9.451  1.00 44.61     0.045 C 
HETATM   25  C23 VFQ 11620     -50.781 147.208   9.933  1.00 44.41     0.123 C 
HETATM   26  C24 VFQ 11620     -49.399 147.152  10.537  1.00 41.53     0.066 C 
HETATM   27  C25 VFQ 11620     -48.455 146.672   9.482  1.00 37.72    -0.074 C 
HETATM   28  C26 VFQ 11620     -48.756 145.596   8.754  1.00 43.52    -0.048 C 
HETATM   29  C27 VFQ 11620     -47.749 144.937   7.890  1.00 44.60     0.009 C 
HETATM   30  C28 VFQ 11620     -46.860 144.075   8.369  1.00 43.22     0.007 C 
HETATM   31  C29 VFQ 11620     -45.899 143.398   7.489  1.00 94.67    -0.062 C 
HETATM   32  C30 VFQ 11620     -45.232 142.391   8.050  1.00 94.67     0.007 C 
HETATM   33  C31 VFQ 11620     -44.231 141.568   7.397  1.00 94.67     0.001 C 
HETATM   34  C32 VFQ 11620     -43.604 140.789   8.260  1.00 94.67     0.007 C 
HETATM   35  C33 VFQ 11620     -42.542 139.848   7.915  1.00 94.67    -0.062 C 
HETATM   36  C34 VFQ 11620     -42.130 139.006   8.867  1.00 94.67     0.007 C 
HETATM   37  C35 VFQ 11620     -41.090 138.025   8.601  1.00 94.67     0.001 C 
HETATM   38  C36 VFQ 11620     -50.508 144.881   7.275  1.00 47.48     0.020 C 
HETATM   39  C37 VFQ 11620     -50.207 143.627   9.397  1.00 54.25     0.020 C 
HETATM   40  C38 VFQ 11620     -47.196 147.448   9.284  1.00 37.77     0.044 C 
HETATM   41  C39 VFQ 11620     -45.691 143.806   6.065  1.00 94.67     0.048 C 
HETATM   42  C40 VFQ 11620     -41.936 139.854   6.549  1.00 94.67     0.048 C 
HETATM   43  O23 VFQ 11620     -51.699 147.661  10.928  1.00 48.83    -0.395 OA
ATOM     44  H23 VFQ 11620     -52.568 147.696  10.547  1.00  0.00     0.210 HD
ENDROOT
TORSDOF 12
BEGIN_RES PHE A  61
REMARK  2 active torsions:
REMARK  status: ('A' for Active; 'I' for Inactive)
REMARK    1  A    between atoms: CA   and  CB  
REMARK    2  A    between atoms: CB   and  CG  
ROOT
ATOM      1  CA  PHE A  61     -36.237 128.293  12.768  1.00 39.40     0.164 C 
ENDROOT
BRANCH   1   2
ATOM      2  CB  PHE A  61     -36.813 128.951  11.509  1.00 39.41     0.058 C 
BRANCH   2   3
ATOM      3  CG  PHE A  61     -37.056 127.999  10.363  1.00 39.01    -0.020 A 
ATOM      4  CD2 PHE A  61     -36.368 126.798  10.277  1.00 40.32    -0.004 A 
ATOM      5  CE2 PHE A  61     -36.590 125.925   9.220  1.00 40.20    -0.000 A 
ATOM      6  CZ  PHE A  61     -37.504 126.239   8.240  1.00 40.34    -0.000 A 
ATOM      7  CE1 PHE A  61     -38.197 127.427   8.312  1.00 41.51    -0.000 A 
ATOM      8  CD1 PHE A  61     -37.970 128.304   9.365  1.00 39.94    -0.004 A 
ENDBRANCH   2   3
ENDBRANCH   1   2
END_RES PHE A  61
BEGIN_RES VAL A 134
REMARK  1 active torsions:
REMARK  status: ('A' for Active; 'I' for Inactive)
REMARK    3  A    between atoms: CA   and  CB  
ROOT
ATOM      9  CA  VAL A 134     -29.766 132.051   9.815  1.00 40.75     0.159 C 
ENDROOT
BRANCH   9  10
ATOM     10  CB  VAL A 134     -30.864 132.765   9.009  1.00 40.76     0.029 C 
ATOM     11  CG1 VAL A 134     -30.971 132.179   7.609  1.00 41.76     0.002 C 
ATOM     12  CG2 VAL A 134     -32.207 132.712   9.721  1.00 40.56     0.002 C 
ENDBRANCH   9  10
END_RES VAL A 134
BEGIN_RES TYR A 338
REMARK  3 active torsions:
REMARK  status: ('A' for Active; 'I' for Inactive)
REMARK    4  A    between atoms: CA   and  CB  
REMARK    5  A    between atoms: CB   and  CG  
REMARK    6  A    between atoms: CZ   and  OH  
ROOT
ATOM     13  CA  TYR A 338     -41.631 124.950   6.058  1.00 38.23     0.164 C 
ENDROOT
BRANCH  13  14
ATOM     14  CB  TYR A 338     -41.621 126.456   6.339  1.00 39.15     0.058 C 
BRANCH  14  15
ATOM     15  CG  TYR A 338     -40.439 127.219   5.787  1.00 39.03    -0.020 A 
ATOM     16  CD2 TYR A 338     -39.457 126.562   5.065  1.00 40.65    -0.002 A 
ATOM     17  CE2 TYR A 338     -38.351 127.227   4.557  1.00 40.91     0.024 A 
ATOM     18  CZ  TYR A 338     -38.209 128.585   4.771  1.00 42.33     0.089 A 
ATOM     19  CE1 TYR A 338     -39.180 129.264   5.485  1.00 40.63     0.024 A 
ATOM     20  CD1 TYR A 338     -40.272 128.579   5.996  1.00 39.27    -0.002 A 
BRANCH  18  21
ATOM     21  OH  TYR A 338     -37.126 129.252   4.271  1.00 43.36    -0.359 OA
ATOM     22  HH  TYR A 338     -37.240 129.942   3.628  1.00  0.00     0.217 HD
ENDBRANCH  18  21
ENDBRANCH  14  15
ENDBRANCH  13  14
END_RES TYR A 338
ENDMDL
MODEL 3
REMARK VINA RESULT:    -7.226      1.338     16.423
REMARK INTER + INTRA:         -10.186
REMARK INTER:                  -9.961
REMARK INTRA:                  -0.224
REMARK UNBOUND:                -2.960
REMARK  0 active torsions:
REMARK  status: ('A' for Active; 'I' for Inactive)
REMARK       I    between atoms: C3_3  and  O3_21 
REMARK       I    between atoms: C6_6  and  C7_7 
REMARK       I    between atoms: C8_8  and  C9_9 
REMARK       I    between atoms: C10_10  and  C11_11 
REMARK       I    between atoms: C12_12  and  C13_13 
REMARK       I    between atoms: C14_14  and  C15_15 
REMARK       I    between atoms: C23_25  and  O23_43 
REMARK       I    between atoms: C26_28  and  C27_29 
REMARK       I    between atoms: C28_30  and  C29_31 
REMARK       I    between atoms: C30_32  and  C31_33 
REMARK       I    between atoms: C32_34  and  C33_35 
REMARK       I    between atoms: C34_36  and  C35_37 
ROOT
HETATM    1  C1  VFQ 11620     -50.163 143.971  11.947  1.00 94.67    -0.018 C 
HETATM    2  C2  VFQ 11620     -50.706 144.281  13.335  1.00 94.67     0.045 C 
HETATM    3  C3  VFQ 11620     -49.986 145.359  14.118  1.00 94.67     0.123 C 
HETATM    4  C4  VFQ 11620     -49.702 146.520  13.205  1.00 94.67     0.066 C 
HETATM    5  C5  VFQ 11620     -48.838 146.070  12.069  1.00 94.67    -0.074 C 
HETATM    6  C6  VFQ 11620     -49.056 144.895  11.476  1.00 94.67    -0.048 C 
HETATM    7  C7  VFQ 11620     -48.229 144.461  10.324  1.00 94.67     0.009 C 
HETATM    8  C8  VFQ 11620     -47.095 143.787  10.506  1.00 94.67     0.007 C 
HETATM    9  C9  VFQ 11620     -46.258 143.321   9.402  1.00 94.67    -0.062 C 
HETATM   10  C10 VFQ 11620     -45.193 142.604   9.748  1.00 94.67     0.007 C 
HETATM   11  C11 VFQ 11620     -44.253 142.027   8.808  1.00 94.67     0.001 C 
HETATM   12  C12 VFQ 11620     -43.508 141.080   9.354  1.00 94.67     0.007 C 
HETATM   13  C13 VFQ 11620     -42.499 140.310   8.631  1.00 94.67    -0.062 C 
HETATM   14  C14 VFQ 11620     -41.912 139.326   9.309  1.00 94.67     0.007 C 
HETATM   15  C15 VFQ 11620     -40.912 138.437   8.739  1.00 94.67     0.001 C 
HETATM   16  C16 VFQ 11620     -51.362 144.022  11.006  1.00 94.67     0.020 C 
HETATM   17  C17 VFQ 11620     -49.586 142.563  11.982  1.00 94.67     0.020 C 
HETATM   18  C18 VFQ 11620     -47.778 147.031  11.617  1.00 94.67     0.044 C 
HETATM   19  C19 VFQ 11620     -46.590 143.631   7.975  1.00 94.67     0.048 C 
HETATM   20  C20 VFQ 11620     -42.170 140.606   7.202  1.00 94.67     0.048 C 
HETATM   21  O3  VFQ 11620     -50.845 145.814  15.164  1.00 94.67    -0.395 OA
ATOM     22  H3  VFQ 11620     -51.024 145.081  15.740  1.00  0.00     0.210 HD
HETATM   23  C21 VFQ 11620     -34.084 128.300   6.982  1.00 48.43    -0.018 C 
HETATM   24  C22 VFQ 11620     -33.161 127.499   6.075  1.00 44.61     0.045 C 
HETATM   25  C23 VFQ 11620     -31.701 127.909   6.074  1.00 44.41     0.123 C 
HETATM   26  C24 VFQ 11620     -31.566 129.413   6.081  1.00 41.53     0.066 C 
HETATM   27  C25 VFQ 11620     -32.227 129.928   7.319  1.00 37.72    -0.074 C 
HETATM   28  C26 VFQ 11620     -33.448 129.506   7.649  1.00 43.52    -0.048 C 
HETATM   29  C27 VFQ 11620     -34.240 130.176   8.708  1.00 44.60     0.009 C 
HETATM   30  C28 VFQ 11620     -34.937 131.281   8.480  1.00 43.22     0.007 C 
HETATM   31  C29 VFQ 11620     -35.752 131.904   9.531  1.00 94.67    -0.062 C 
HETATM   32  C30 VFQ 11620     -36.582 132.857   9.112  1.00 94.67     0.007 C 
HETATM   33  C31 VFQ 11620     -37.487 133.623   9.950  1.00 94.67     0.001 C 
HETATM   34  C32 VFQ 11620     -38.030 134.627   9.285  1.00 94.67     0.007 C 
HETATM   35  C33 VFQ 11620     -38.979 135.583   9.850  1.00 94.67    -0.062 C 
HETATM   36  C34 VFQ 11620     -39.573 136.434   9.008  1.00 94.67     0.007 C 
HETATM   37  C35 VFQ 11620     -40.545 137.404   9.486  1.00 94.67     0.001 C 
HETATM   38  C36 VFQ 11620     -34.543 127.424   8.132  1.00 47.48     0.020 C 
HETATM   39  C37 VFQ 11620     -35.285 128.678   6.122  1.00 54.25     0.020 C 
HETATM   40  C38 VFQ 11620     -31.462 130.903   8.150  1.00 37.77     0.044 C 
HETATM   41  C39 VFQ 11620     -35.659 131.491  10.966  1.00 94.67     0.048 C 
HETATM   42  C40 VFQ 11620     -39.249 135.607  11.319  1.00 94.67     0.048 C 
HETATM   43  O23 VFQ 11620     -31.078 127.399   4.895  1.00 48.83    -0.395 OA
ATOM     44  H23 VFQ 11620     -31.163 126.453   4.891  1.00  0.00     0.210 HD
ENDROOT
TORSDOF 12
BEGIN_RES PHE A  61
REMARK  2 active torsions:
REMARK  status: ('A' for Active; 'I' for Inactive)
REMARK    1  A    between atoms: CA   and  CB  
REMARK    2  A    between atoms: CB   and  CG  
ROOT
ATOM      1  CA  PHE A  61     -36.237 128.293  12.768  1.00 39.40     0.164 C 
ENDROOT
BRANCH   1   2
ATOM      2  CB  PHE A  61     -36.813 128.951  11.509  1.00 39.41     0.058 C 
BRANCH   2   3
ATOM      3  CG  PHE A  61     -37.023 128.005  10.351  1.00 39.01    -0.020 A 
ATOM      4  CD2 PHE A  61     -36.319 126.814  10.268  1.00 40.32    -0.004 A 
ATOM      5  CE2 PHE A  61     -36.511 125.946   9.200  1.00 40.20    -0.000 A 
ATOM      6  CZ  PHE A  61     -37.412 126.257   8.207  1.00 40.34    -0.000 A 
ATOM      7  CE1 PHE A  61     -38.121 127.435   8.276  1.00 41.51    -0.000 A 
ATOM      8  CD1 PHE A  61     -37.924 128.307   9.340  1.00 39.94    -0.004 A 
ENDBRANCH   2   3
ENDBRANCH   1   2
END_RES PHE A  61
BEGIN_RES VAL A 134
REMARK  1 active torsions:
REMARK  status: ('A' for Active; 'I' for Inactive)
REMARK    3  A    between atoms: CA   and  CB  
ROOT
ATOM      9  CA  VAL A 134     -29.766 132.051   9.815  1.00 40.75     0.159 C 
ENDROOT
BRANCH   9  10
ATOM     10  CB  VAL A 134     -30.864 132.765   9.009  1.00 40.76     0.029 C 
ATOM     11  CG1 VAL A 134     -32.098 132.996   9.868  1.00 41.76     0.002 C 
ATOM     12  CG2 VAL A 134     -30.365 134.074   8.418  1.00 40.56     0.002 C 
ENDBRANCH   9  10
END_RES VAL A 134
BEGIN_RES TYR A 338
REMARK  3 active torsions:
REMARK  status: ('A' for Active; 'I' for Inactive)
REMARK    4  A    between atoms: CA   and  CB  
REMARK    5  A    between atoms: CB   and  CG  
REMARK    6  A    between atoms: CZ   and  OH  
ROOT
ATOM     13  CA  TYR A 338     -41.631 124.950   6.058  1.00 38.23     0.164 C 
ENDROOT
BRANCH  13  14
ATOM     14  CB  TYR A 338     -41.621 126.456   6.339  1.00 39.15     0.058 C 
BRANCH  14  15
ATOM     15  CG  TYR A 338     -40.423 127.213   5.815  1.00 39.03    -0.020 A 
ATOM     16  CD2 TYR A 338     -40.268 128.561   6.094  1.00 40.65    -0.002 A 
ATOM     17  CE2 TYR A 338     -39.190 129.290   5.616  1.00 40.91     0.024 A 
ATOM     18  CZ  TYR A 338     -38.233 128.668   4.837  1.00 42.33     0.089 A 
ATOM     19  CE1 TYR A 338     -38.362 127.321   4.549  1.00 40.63     0.024 A 
ATOM     20  CD1 TYR A 338     -39.455 126.613   5.025  1.00 39.27    -0.002 A 
BRANCH  18  21
ATOM     21  OH  TYR A 338     -37.163 129.376   4.365  1.00 43.36    -0.359 OA
ATOM     22  HH  TYR A 338     -36.786 130.079   4.881  1.00  0.00     0.217 HD
ENDBRANCH  18  21
ENDBRANCH  14  15
ENDBRANCH  13  14
END_RES TYR A 338
ENDMDL
