MODEL 1
REMARK VINA RESULT:   -10.306      0.000      0.000
REMARK INTER + INTRA:         -12.760
REMARK INTER:                 -10.306
REMARK INTRA:                  -2.454
REMARK UNBOUND:                -2.454
REMARK  0 active torsions:
REMARK  status: ('A' for Active; 'I' for Inactive)
REMARK       I    between atoms: C3_3  and  O3_21 
REMARK       I    between atoms: C6_6  and  C7_7 
REMARK       I    between atoms: C8_8  and  C9_9 
REMARK       I    between atoms: C10_10  and  C11_11 
REMARK       I    between atoms: C12_12  and  C13_13 
REMARK       I    between atoms: C14_14  and  C15_15 
REMARK       I    between atoms: C23_25  and  O23_43 
REMARK       I    between atoms: C26_28  and  C27_29 
REMARK       I    between atoms: C28_30  and  C29_31 
REMARK       I    between atoms: C30_32  and  C31_33 
REMARK       I    between atoms: C32_34  and  C33_35 
REMARK       I    between atoms: C34_36  and  C35_37 
ROOT
HETATM    1  C1  VFQ Z1620     -34.165 127.083   6.764  1.00 27.53    -0.018 C 
HETATM    2  C2  VFQ Z1620     -33.628 126.796   5.363  1.00 27.53     0.045 C 
HETATM    3  C3  VFQ Z1620     -32.900 127.997   4.792  1.00 27.53     0.123 C 
HETATM    4  C4  VFQ Z1620     -31.720 128.235   5.705  1.00 27.53     0.066 C 
HETATM    5  C5  VFQ Z1620     -32.315 128.774   6.975  1.00 27.53    -0.074 C 
HETATM    6  C6  VFQ Z1620     -33.461 128.240   7.461  1.00 27.53    -0.048 C 
HETATM    7  C7  VFQ Z1620     -34.183 128.893   8.572  1.00 27.53     0.009 C 
HETATM    8  C8  VFQ Z1620     -34.337 130.215   8.440  1.00 27.53     0.007 C 
HETATM    9  C9  VFQ Z1620     -35.205 130.973   9.365  1.00 27.53    -0.062 C 
HETATM   10  C10 VFQ Z1620     -35.600 132.197   8.964  1.00 27.53     0.007 C 
HETATM   11  C11 VFQ Z1620     -36.561 133.010   9.708  1.00 27.53     0.001 C 
HETATM   12  C12 VFQ Z1620     -37.090 134.083   9.128  1.00 27.53     0.007 C 
HETATM   13  C13 VFQ Z1620     -38.144 134.877   9.796  1.00 27.53    -0.062 C 
HETATM   14  C14 VFQ Z1620     -38.788 135.782   9.035  1.00 27.53     0.007 C 
HETATM   15  C15 VFQ Z1620     -39.888 136.629   9.497  1.00 27.53     0.001 C 
HETATM   16  C16 VFQ Z1620     -33.909 125.850   7.630  1.00 27.53     0.020 C 
HETATM   17  C17 VFQ Z1620     -35.669 127.316   6.652  1.00 27.53     0.020 C 
HETATM   18  C18 VFQ Z1620     -31.485 129.819   7.683  1.00 27.53     0.044 C 
HETATM   19  C19 VFQ Z1620     -35.637 130.346  10.667  1.00 27.53     0.048 C 
HETATM   20  C20 VFQ Z1620     -38.464 134.610  11.242  1.00 27.53     0.048 C 
HETATM   21  O3  VFQ Z1620     -32.456 127.765   3.453  1.00 27.53    -0.395 OA
ATOM     22  H3  VFQ Z1620     -32.001 128.517   3.096  1.00  0.00     0.210 HD
HETATM   23  C21 VFQ Z1620     -49.718 144.398   9.703  1.00 62.55    -0.018 C 
HETATM   24  C22 VFQ Z1620     -50.719 145.343  10.363  1.00 62.55     0.045 C 
HETATM   25  C23 VFQ Z1620     -50.194 146.643  10.964  1.00 62.55     0.123 C 
HETATM   26  C24 VFQ Z1620     -48.799 146.462  11.532  1.00 62.55     0.066 C 
HETATM   27  C25 VFQ Z1620     -47.926 145.990  10.401  1.00 62.55    -0.074 C 
HETATM   28  C26 VFQ Z1620     -48.305 144.957   9.640  1.00 62.55    -0.048 C 
HETATM   29  C27 VFQ Z1620     -47.334 144.358   8.696  1.00 62.55     0.009 C 
HETATM   30  C28 VFQ Z1620     -46.543 143.352   9.059  1.00 62.55     0.007 C 
HETATM   31  C29 VFQ Z1620     -45.565 142.749   8.132  1.00 27.53    -0.062 C 
HETATM   32  C30 VFQ Z1620     -44.872 141.730   8.663  1.00 27.53     0.007 C 
HETATM   33  C31 VFQ Z1620     -43.846 140.949   7.990  1.00 27.53     0.001 C 
HETATM   34  C32 VFQ Z1620     -43.242 140.001   8.706  1.00 27.53     0.007 C 
HETATM   35  C33 VFQ Z1620     -42.161 139.169   8.148  1.00 27.53    -0.062 C 
HETATM   36  C34 VFQ Z1620     -41.557 138.309   8.994  1.00 27.53     0.007 C 
HETATM   37  C35 VFQ Z1620     -40.451 137.433   8.606  1.00 27.53     0.001 C 
HETATM   38  C36 VFQ Z1620     -50.171 144.145   8.272  1.00 62.55     0.020 C 
HETATM   39  C37 VFQ Z1620     -49.767 143.072  10.465  1.00 62.55     0.020 C 
HETATM   40  C38 VFQ Z1620     -46.652 146.740  10.138  1.00 62.55     0.044 C 
HETATM   41  C39 VFQ Z1620     -45.422 143.241   6.718  1.00 27.53     0.048 C 
HETATM   42  C40 VFQ Z1620     -41.791 139.345   6.697  1.00 27.53     0.048 C 
HETATM   43  O23 VFQ Z1620     -51.076 147.067  12.010  1.00 62.55    -0.395 OA
ATOM     44  H23 VFQ Z1620     -50.749 147.876  12.384  1.00  0.00     0.210 HD
ENDROOT
TORSDOF 12
BEGIN_RES PHE A  61
REMARK  2 active torsions:
REMARK  status: ('A' for Active; 'I' for Inactive)
REMARK    1  A    between atoms: CA   and  CB  
REMARK    2  A    between atoms: CB   and  CG  
ROOT
ATOM      1  CA  PHE A  61     -36.237 128.293  12.768  1.00 39.40     0.164 C 
ENDROOT
BRANCH   1   2
ATOM      2  CB  PHE A  61     -36.813 128.951  11.509  1.00 39.41     0.058 C 
BRANCH   2   3
ATOM      3  CG  PHE A  61     -37.092 127.993  10.376  1.00 39.01    -0.020 A 
ATOM      4  CD2 PHE A  61     -36.388 126.805  10.259  1.00 40.32    -0.004 A 
ATOM      5  CE2 PHE A  61     -36.644 125.925   9.214  1.00 40.20    -0.000 A 
ATOM      6  CZ  PHE A  61     -37.608 126.222   8.278  1.00 40.34    -0.000 A 
ATOM      7  CE1 PHE A  61     -38.318 127.397   8.382  1.00 41.51    -0.000 A 
ATOM      8  CD1 PHE A  61     -38.058 128.280   9.422  1.00 39.94    -0.004 A 
ENDBRANCH   2   3
ENDBRANCH   1   2
END_RES PHE A  61
BEGIN_RES VAL A 134
REMARK  1 active torsions:
REMARK  status: ('A' for Active; 'I' for Inactive)
REMARK    3  A    between atoms: CA   and  CB  
ROOT
ATOM      9  CA  VAL A 134     -29.766 132.051   9.815  1.00 40.75     0.159 C 
ENDROOT
BRANCH   9  10
ATOM     10  CB  VAL A 134     -30.864 132.765   9.009  1.00 40.76     0.029 C 
ATOM     11  CG1 VAL A 134     -30.974 132.176   7.610  1.00 41.76     0.002 C 
ATOM     12  CG2 VAL A 134     -32.206 132.716   9.723  1.00 40.56     0.002 C 
ENDBRANCH   9  10
END_RES VAL A 134
BEGIN_RES TYR A 338
REMARK  3 active torsions:
REMARK  status: ('A' for Active; 'I' for Inactive)
REMARK    4  A    between atoms: CA   and  CB  
REMARK    5  A    between atoms: CB   and  CG  
REMARK    6  A    between atoms: CZ   and  OH  
ROOT
ATOM     13  CA  TYR A 338     -41.631 124.950   6.058  1.00 38.23     0.164 C 
ENDROOT
BRANCH  13  14
ATOM     14  CB  TYR A 338     -41.621 126.456   6.339  1.00 39.15     0.058 C 
BRANCH  14  15
ATOM     15  CG  TYR A 338     -40.412 127.210   5.834  1.00 39.03    -0.020 A 
ATOM     16  CD2 TYR A 338     -40.239 128.547   6.147  1.00 40.65    -0.002 A 
ATOM     17  CE2 TYR A 338     -39.150 129.273   5.689  1.00 40.91     0.024 A 
ATOM     18  CZ  TYR A 338     -38.201 128.658   4.894  1.00 42.33     0.089 A 
ATOM     19  CE1 TYR A 338     -38.350 127.321   4.571  1.00 40.63     0.024 A 
ATOM     20  CD1 TYR A 338     -39.452 126.616   5.029  1.00 39.27    -0.002 A 
BRANCH  18  21
ATOM     21  OH  TYR A 338     -37.122 129.363   4.440  1.00 43.36    -0.359 OA
ATOM     22  HH  TYR A 338     -36.297 129.335   4.911  1.00  0.00     0.217 HD
ENDBRANCH  18  21
ENDBRANCH  14  15
ENDBRANCH  13  14
END_RES TYR A 338
ENDMDL
