MODEL 1
REMARK VINA RESULT:   -11.763      0.000      0.000
REMARK INTER + INTRA:         -12.049
REMARK INTER:                 -11.763
REMARK INTRA:                  -0.287
REMARK UNBOUND:                -0.287
REMARK  0 active torsions:
REMARK  status: ('A' for Active; 'I' for Inactive)
REMARK       I    between atoms: C3_3  and  O3_21 
REMARK       I    between atoms: C6_6  and  C7_7 
REMARK       I    between atoms: C8_8  and  C9_9 
REMARK       I    between atoms: C10_10  and  C11_11 
REMARK       I    between atoms: C12_12  and  C13_13 
REMARK       I    between atoms: C14_14  and  C15_15 
REMARK       I    between atoms: C23_25  and  O23_43 
REMARK       I    between atoms: C26_28  and  C27_29 
REMARK       I    between atoms: C28_30  and  C29_31 
REMARK       I    between atoms: C30_32  and  C31_33 
REMARK       I    between atoms: C32_34  and  C33_35 
REMARK       I    between atoms: C34_36  and  C35_37 
ROOT
HETATM    1  C1  VFQ 61620     -50.264 144.593  10.743  1.00 97.95    -0.018 C 
HETATM    2  C2  VFQ 61620     -50.990 144.828  12.064  1.00 97.95     0.045 C 
HETATM    3  C3  VFQ 61620     -50.425 145.890  12.991  1.00 97.95     0.123 C 
HETATM    4  C4  VFQ 61620     -49.875 147.068  12.221  1.00 97.95     0.066 C 
HETATM    5  C5  VFQ 61620     -48.839 146.575  11.255  1.00 97.95    -0.074 C 
HETATM    6  C6  VFQ 61620     -49.031 145.455  10.549  1.00 97.95    -0.048 C 
HETATM    7  C7  VFQ 61620     -48.033 145.019   9.543  1.00 97.95     0.009 C 
HETATM    8  C8  VFQ 61620     -47.012 144.232   9.876  1.00 97.95     0.007 C 
HETATM    9  C9  VFQ 61620     -46.021 143.773   8.900  1.00 97.95    -0.062 C 
HETATM   10  C10 VFQ 61620     -45.103 142.918   9.342  1.00 97.95     0.007 C 
HETATM   11  C11 VFQ 61620     -44.061 142.356   8.503  1.00 97.95     0.001 C 
HETATM   12  C12 VFQ 61620     -43.246 141.532   9.139  1.00 97.95     0.007 C 
HETATM   13  C13 VFQ 61620     -42.138 140.824   8.488  1.00 97.95    -0.062 C 
HETATM   14  C14 VFQ 61620     -41.633 139.801   9.175  1.00 97.95     0.007 C 
HETATM   15  C15 VFQ 61620     -40.565 138.957   8.676  1.00 97.95     0.001 C 
HETATM   16  C16 VFQ 61620     -51.285 144.820   9.632  1.00 97.95     0.020 C 
HETATM   17  C17 VFQ 61620     -49.814 143.139  10.704  1.00 97.95     0.020 C 
HETATM   18  C18 VFQ 61620     -47.662 147.481  11.045  1.00 97.95     0.044 C 
HETATM   19  C19 VFQ 61620     -46.050 144.244   7.478  1.00 97.95     0.048 C 
HETATM   20  C20 VFQ 61620     -41.622 141.211   7.136  1.00 97.95     0.048 C 
HETATM   21  O3  VFQ 61620     -51.472 146.369  13.843  1.00 97.95    -0.395 OA
ATOM     22  H3  VFQ 61620     -51.119 147.033  14.424  1.00  0.00     0.210 HD
HETATM   23  C21 VFQ 61620     -33.825 128.155   7.575  1.00 35.06    -0.018 C 
HETATM   24  C22 VFQ 61620     -32.609 127.537   6.883  1.00 35.06     0.045 C 
HETATM   25  C23 VFQ 61620     -31.779 128.491   6.030  1.00 35.06     0.123 C 
HETATM   26  C24 VFQ 61620     -32.599 129.708   5.648  1.00 35.06     0.066 C 
HETATM   27  C25 VFQ 61620     -32.978 130.359   6.945  1.00 35.06    -0.074 C 
HETATM   28  C26 VFQ 61620     -33.677 129.637   7.822  1.00 35.06    -0.048 C 
HETATM   29  C27 VFQ 61620     -34.456 130.257   8.910  1.00 35.06     0.009 C 
HETATM   30  C28 VFQ 61620     -35.116 131.369   8.593  1.00 35.06     0.007 C 
HETATM   31  C29 VFQ 61620     -36.089 131.964   9.532  1.00 97.95    -0.062 C 
HETATM   32  C30 VFQ 61620     -36.691 133.059   9.082  1.00 97.95     0.007 C 
HETATM   33  C31 VFQ 61620     -37.692 133.819   9.805  1.00 97.95     0.001 C 
HETATM   34  C32 VFQ 61620     -38.110 134.872   9.124  1.00 97.95     0.007 C 
HETATM   35  C33 VFQ 61620     -39.125 135.793   9.627  1.00 97.95    -0.062 C 
HETATM   36  C34 VFQ 61620     -39.442 136.831   8.852  1.00 97.95     0.007 C 
HETATM   37  C35 VFQ 61620     -40.453 137.781   9.274  1.00 97.95     0.001 C 
HETATM   38  C36 VFQ 61620     -34.093 127.442   8.891  1.00 35.06     0.020 C 
HETATM   39  C37 VFQ 61620     -35.041 128.006   6.668  1.00 35.06     0.020 C 
HETATM   40  C38 VFQ 61620     -32.416 131.727   7.245  1.00 35.06     0.044 C 
HETATM   41  C39 VFQ 61620     -36.387 131.378  10.879  1.00 97.95     0.048 C 
HETATM   42  C40 VFQ 61620     -39.772 135.571  10.957  1.00 97.95     0.048 C 
HETATM   43  O23 VFQ 61620     -31.353 127.828   4.835  1.00 35.06    -0.395 OA
ATOM     44  H23 VFQ 61620     -30.837 128.422   4.304  1.00  0.00     0.210 HD
ENDROOT
TORSDOF 12
BEGIN_RES PHE A  61
REMARK  2 active torsions:
REMARK  status: ('A' for Active; 'I' for Inactive)
REMARK    1  A    between atoms: CA   and  CB  
REMARK    2  A    between atoms: CB   and  CG  
ROOT
ATOM      1  CA  PHE A  61     -36.237 128.293  12.768  1.00 39.40     0.164 C 
ENDROOT
BRANCH   1   2
ATOM      2  CB  PHE A  61     -36.813 128.951  11.509  1.00 39.41     0.058 C 
BRANCH   2   3
ATOM      3  CG  PHE A  61     -37.033 128.003  10.354  1.00 39.01    -0.020 A 
ATOM      4  CD2 PHE A  61     -36.342 126.804  10.277  1.00 40.32    -0.004 A 
ATOM      5  CE2 PHE A  61     -36.543 125.934   9.212  1.00 40.20    -0.000 A 
ATOM      6  CZ  PHE A  61     -37.439 126.251   8.216  1.00 40.34    -0.000 A 
ATOM      7  CE1 PHE A  61     -38.134 127.438   8.280  1.00 41.51    -0.000 A 
ATOM      8  CD1 PHE A  61     -37.929 128.311   9.341  1.00 39.94    -0.004 A 
ENDBRANCH   2   3
ENDBRANCH   1   2
END_RES PHE A  61
BEGIN_RES VAL A 134
REMARK  1 active torsions:
REMARK  status: ('A' for Active; 'I' for Inactive)
REMARK    3  A    between atoms: CA   and  CB  
ROOT
ATOM      9  CA  VAL A 134     -29.766 132.051   9.815  1.00 40.75     0.159 C 
ENDROOT
BRANCH   9  10
ATOM     10  CB  VAL A 134     -30.864 132.765   9.009  1.00 40.76     0.029 C 
ATOM     11  CG1 VAL A 134     -32.109 132.969   9.859  1.00 41.76     0.002 C 
ATOM     12  CG2 VAL A 134     -30.374 134.089   8.442  1.00 40.56     0.002 C 
ENDBRANCH   9  10
END_RES VAL A 134
BEGIN_RES TYR A 338
REMARK  3 active torsions:
REMARK  status: ('A' for Active; 'I' for Inactive)
REMARK    4  A    between atoms: CA   and  CB  
REMARK    5  A    between atoms: CB   and  CG  
REMARK    6  A    between atoms: CZ   and  OH  
ROOT
ATOM     13  CA  TYR A 338     -41.631 124.950   6.058  1.00 38.23     0.164 C 
ENDROOT
BRANCH  13  14
ATOM     14  CB  TYR A 338     -41.621 126.456   6.339  1.00 39.15     0.058 C 
BRANCH  14  15
ATOM     15  CG  TYR A 338     -40.406 127.207   5.846  1.00 39.03    -0.020 A 
ATOM     16  CD2 TYR A 338     -40.237 128.546   6.155  1.00 40.65    -0.002 A 
ATOM     17  CE2 TYR A 338     -39.143 129.270   5.707  1.00 40.91     0.024 A 
ATOM     18  CZ  TYR A 338     -38.184 128.652   4.927  1.00 42.33     0.089 A 
ATOM     19  CE1 TYR A 338     -38.328 127.313   4.609  1.00 40.63     0.024 A 
ATOM     20  CD1 TYR A 338     -39.436 126.610   5.056  1.00 39.27    -0.002 A 
BRANCH  18  21
ATOM     21  OH  TYR A 338     -37.098 129.355   4.483  1.00 43.36    -0.359 OA
ATOM     22  HH  TYR A 338     -37.208 130.217   4.098  1.00  0.00     0.217 HD
ENDBRANCH  18  21
ENDBRANCH  14  15
ENDBRANCH  13  14
END_RES TYR A 338
ENDMDL
MODEL 2
REMARK VINA RESULT:   -11.619      1.082     16.409
REMARK INTER + INTRA:         -11.905
REMARK INTER:                  -9.111
REMARK INTRA:                  -2.795
REMARK UNBOUND:                -0.287
REMARK  0 active torsions:
REMARK  status: ('A' for Active; 'I' for Inactive)
REMARK       I    between atoms: C3_3  and  O3_21 
REMARK       I    between atoms: C6_6  and  C7_7 
REMARK       I    between atoms: C8_8  and  C9_9 
REMARK       I    between atoms: C10_10  and  C11_11 
REMARK       I    between atoms: C12_12  and  C13_13 
REMARK       I    between atoms: C14_14  and  C15_15 
REMARK       I    between atoms: C23_25  and  O23_43 
REMARK       I    between atoms: C26_28  and  C27_29 
REMARK       I    between atoms: C28_30  and  C29_31 
REMARK       I    between atoms: C30_32  and  C31_33 
REMARK       I    between atoms: C32_34  and  C33_35 
REMARK       I    between atoms: C34_36  and  C35_37 
ROOT
HETATM    1  C1  VFQ 61620     -34.465 128.033   6.555  1.00 97.95    -0.018 C 
HETATM    2  C2  VFQ 61620     -33.692 127.733   5.275  1.00 97.95     0.045 C 
HETATM    3  C3  VFQ 61620     -32.311 128.347   5.133  1.00 97.95     0.123 C 
HETATM    4  C4  VFQ 61620     -31.580 128.387   6.456  1.00 97.95     0.066 C 
HETATM    5  C5  VFQ 61620     -32.415 129.137   7.449  1.00 97.95    -0.074 C 
HETATM    6  C6  VFQ 61620     -33.738 128.951   7.520  1.00 97.95    -0.048 C 
HETATM    7  C7  VFQ 61620     -34.542 129.643   8.556  1.00 97.95     0.009 C 
HETATM    8  C8  VFQ 61620     -35.064 130.849   8.337  1.00 97.95     0.007 C 
HETATM    9  C9  VFQ 61620     -35.874 131.548   9.336  1.00 97.95    -0.062 C 
HETATM   10  C10 VFQ 61620     -36.412 132.706   8.961  1.00 97.95     0.007 C 
HETATM   11  C11 VFQ 61620     -37.253 133.516   9.822  1.00 97.95     0.001 C 
HETATM   12  C12 VFQ 61620     -37.680 134.633   9.259  1.00 97.95     0.007 C 
HETATM   13  C13 VFQ 61620     -38.566 135.592   9.929  1.00 97.95    -0.062 C 
HETATM   14  C14 VFQ 61620     -39.159 136.476   9.128  1.00 97.95     0.007 C 
HETATM   15  C15 VFQ 61620     -40.100 137.472   9.601  1.00 97.95     0.001 C 
HETATM   16  C16 VFQ 61620     -34.790 126.690   7.201  1.00 97.95     0.020 C 
HETATM   17  C17 VFQ 61620     -35.769 128.719   6.169  1.00 97.95     0.020 C 
HETATM   18  C18 VFQ 61620     -31.657 129.989   8.424  1.00 97.95     0.044 C 
HETATM   19  C19 VFQ 61620     -36.086 130.980  10.706  1.00 97.95     0.048 C 
HETATM   20  C20 VFQ 61620     -38.803 135.568  11.408  1.00 97.95     0.048 C 
HETATM   21  O3  VFQ 61620     -31.539 127.552   4.226  1.00 97.95    -0.395 OA
ATOM     22  H3  VFQ 61620     -30.674 127.936   4.137  1.00  0.00     0.210 HD
HETATM   23  C21 VFQ 61620     -50.030 145.463   8.668  1.00 35.06    -0.018 C 
HETATM   24  C22 VFQ 61620     -50.850 146.492   9.448  1.00 35.06     0.045 C 
HETATM   25  C23 VFQ 61620     -50.346 146.808  10.853  1.00 35.06     0.123 C 
HETATM   26  C24 VFQ 61620     -49.454 145.692  11.359  1.00 35.06     0.066 C 
HETATM   27  C25 VFQ 61620     -48.308 145.626  10.394  1.00 35.06    -0.074 C 
HETATM   28  C26 VFQ 61620     -48.588 145.393   9.112  1.00 35.06    -0.048 C 
HETATM   29  C27 VFQ 61620     -47.576 144.895   8.162  1.00 35.06     0.009 C 
HETATM   30  C28 VFQ 61620     -46.744 143.967   8.631  1.00 35.06     0.007 C 
HETATM   31  C29 VFQ 61620     -45.827 143.247   7.724  1.00 97.95    -0.062 C 
HETATM   32  C30 VFQ 61620     -45.067 142.334   8.319  1.00 97.95     0.007 C 
HETATM   33  C31 VFQ 61620     -44.100 141.487   7.650  1.00 97.95     0.001 C 
HETATM   34  C32 VFQ 61620     -43.474 140.681   8.489  1.00 97.95     0.007 C 
HETATM   35  C33 VFQ 61620     -42.460 139.720   8.064  1.00 97.95    -0.062 C 
HETATM   36  C34 VFQ 61620     -41.887 138.980   9.014  1.00 97.95     0.007 C 
HETATM   37  C35 VFQ 61620     -40.883 137.992   8.669  1.00 97.95     0.001 C 
HETATM   38  C36 VFQ 61620     -50.092 145.767   7.180  1.00 35.06     0.020 C 
HETATM   39  C37 VFQ 61620     -50.608 144.075   8.919  1.00 35.06     0.020 C 
HETATM   40  C38 VFQ 61620     -46.931 145.979  10.901  1.00 35.06     0.044 C 
HETATM   41  C39 VFQ 61620     -45.763 143.510   6.250  1.00 97.95     0.048 C 
HETATM   42  C40 VFQ 61620     -42.090 139.583   6.621  1.00 97.95     0.048 C 
HETATM   43  O23 VFQ 61620     -51.457 146.954  11.745  1.00 35.06    -0.395 OA
ATOM     44  H23 VFQ 61620     -51.143 147.150  12.619  1.00  0.00     0.210 HD
ENDROOT
TORSDOF 12
BEGIN_RES PHE A  61
REMARK  2 active torsions:
REMARK  status: ('A' for Active; 'I' for Inactive)
REMARK    1  A    between atoms: CA   and  CB  
REMARK    2  A    between atoms: CB   and  CG  
ROOT
ATOM      1  CA  PHE A  61     -36.237 128.293  12.768  1.00 39.40     0.164 C 
ENDROOT
BRANCH   1   2
ATOM      2  CB  PHE A  61     -36.813 128.951  11.509  1.00 39.41     0.058 C 
BRANCH   2   3
ATOM      3  CG  PHE A  61     -37.025 128.005  10.352  1.00 39.01    -0.020 A 
ATOM      4  CD2 PHE A  61     -36.278 126.843  10.237  1.00 40.32    -0.004 A 
ATOM      5  CE2 PHE A  61     -36.472 125.974   9.169  1.00 40.20    -0.000 A 
ATOM      6  CZ  PHE A  61     -37.416 126.256   8.208  1.00 40.34    -0.000 A 
ATOM      7  CE1 PHE A  61     -38.168 127.406   8.309  1.00 41.51    -0.000 A 
ATOM      8  CD1 PHE A  61     -37.970 128.277   9.372  1.00 39.94    -0.004 A 
ENDBRANCH   2   3
ENDBRANCH   1   2
END_RES PHE A  61
BEGIN_RES VAL A 134
REMARK  1 active torsions:
REMARK  status: ('A' for Active; 'I' for Inactive)
REMARK    3  A    between atoms: CA   and  CB  
ROOT
ATOM      9  CA  VAL A 134     -29.766 132.051   9.815  1.00 40.75     0.159 C 
ENDROOT
BRANCH   9  10
ATOM     10  CB  VAL A 134     -30.864 132.765   9.009  1.00 40.76     0.029 C 
ATOM     11  CG1 VAL A 134     -30.878 132.276   7.568  1.00 41.76     0.002 C 
ATOM     12  CG2 VAL A 134     -32.232 132.595   9.651  1.00 40.56     0.002 C 
ENDBRANCH   9  10
END_RES VAL A 134
BEGIN_RES TYR A 338
REMARK  3 active torsions:
REMARK  status: ('A' for Active; 'I' for Inactive)
REMARK    4  A    between atoms: CA   and  CB  
REMARK    5  A    between atoms: CB   and  CG  
REMARK    6  A    between atoms: CZ   and  OH  
ROOT
ATOM     13  CA  TYR A 338     -41.631 124.950   6.058  1.00 38.23     0.164 C 
ENDROOT
BRANCH  13  14
ATOM     14  CB  TYR A 338     -41.621 126.456   6.339  1.00 39.15     0.058 C 
BRANCH  14  15
ATOM     15  CG  TYR A 338     -40.434 127.217   5.795  1.00 39.03    -0.020 A 
ATOM     16  CD2 TYR A 338     -40.290 128.570   6.054  1.00 40.65    -0.002 A 
ATOM     17  CE2 TYR A 338     -39.223 129.302   5.558  1.00 40.91     0.024 A 
ATOM     18  CZ  TYR A 338     -38.266 128.679   4.779  1.00 42.33     0.089 A 
ATOM     19  CE1 TYR A 338     -38.385 127.327   4.511  1.00 40.63     0.024 A 
ATOM     20  CD1 TYR A 338     -39.467 126.615   5.005  1.00 39.27    -0.002 A 
BRANCH  18  21
ATOM     21  OH  TYR A 338     -37.206 129.390   4.289  1.00 43.36    -0.359 OA
ATOM     22  HH  TYR A 338     -36.322 129.193   4.573  1.00  0.00     0.217 HD
ENDBRANCH  18  21
ENDBRANCH  14  15
ENDBRANCH  13  14
END_RES TYR A 338
ENDMDL
MODEL 3
REMARK VINA RESULT:   -10.108      1.585      2.537
REMARK INTER + INTRA:         -10.395
REMARK INTER:                  -8.360
REMARK INTRA:                  -2.035
REMARK UNBOUND:                -0.287
REMARK  0 active torsions:
REMARK  status: ('A' for Active; 'I' for Inactive)
REMARK       I    between atoms: C3_3  and  O3_21 
REMARK       I    between atoms: C6_6  and  C7_7 
REMARK       I    between atoms: C8_8  and  C9_9 
REMARK       I    between atoms: C10_10  and  C11_11 
REMARK       I    between atoms: C12_12  and  C13_13 
REMARK       I    between atoms: C14_14  and  C15_15 
REMARK       I    between atoms: C23_25  and  O23_43 
REMARK       I    between atoms: C26_28  and  C27_29 
REMARK       I    between atoms: C28_30  and  C29_31 
REMARK       I    between atoms: C30_32  and  C31_33 
REMARK       I    between atoms: C32_34  and  C33_35 
REMARK       I    between atoms: C34_36  and  C35_37 
ROOT
HETATM    1  C1  VFQ 61620     -48.877 145.638   9.312  1.00 97.95    -0.018 C 
HETATM    2  C2  VFQ 61620     -50.267 145.509   9.925  1.00 97.95     0.045 C 
HETATM    3  C3  VFQ 61620     -50.390 145.723  11.424  1.00 97.95     0.123 C 
HETATM    4  C4  VFQ 61620     -49.454 146.805  11.912  1.00 97.95     0.066 C 
HETATM    5  C5  VFQ 61620     -48.052 146.445  11.523  1.00 97.95    -0.074 C 
HETATM    6  C6  VFQ 61620     -47.779 145.940  10.314  1.00 97.95    -0.048 C 
HETATM    7  C7  VFQ 61620     -46.379 145.659   9.914  1.00 97.95     0.009 C 
HETATM    8  C8  VFQ 61620     -45.811 144.480  10.162  1.00 97.95     0.007 C 
HETATM    9  C9  VFQ 61620     -44.437 144.169   9.764  1.00 97.95    -0.062 C 
HETATM   10  C10 VFQ 61620     -44.019 142.927   9.990  1.00 97.95     0.007 C 
HETATM   11  C11 VFQ 61620     -42.692 142.451   9.642  1.00 97.95     0.001 C 
HETATM   12  C12 VFQ 61620     -42.476 141.186   9.957  1.00 97.95     0.007 C 
HETATM   13  C13 VFQ 61620     -41.220 140.482   9.673  1.00 97.95    -0.062 C 
HETATM   14  C14 VFQ 61620     -41.281 139.154   9.748  1.00 97.95     0.007 C 
HETATM   15  C15 VFQ 61620     -40.153 138.289   9.460  1.00 97.95     0.001 C 
HETATM   16  C16 VFQ 61620     -48.965 146.719   8.239  1.00 97.95     0.020 C 
HETATM   17  C17 VFQ 61620     -48.531 144.313   8.644  1.00 97.95     0.020 C 
HETATM   18  C18 VFQ 61620     -46.987 146.811  12.514  1.00 97.95     0.044 C 
HETATM   19  C19 VFQ 61620     -43.555 145.202   9.132  1.00 97.95     0.048 C 
HETATM   20  C20 VFQ 61620     -39.960 141.206   9.306  1.00 97.95     0.048 C 
HETATM   21  O3  VFQ 61620     -51.730 146.127  11.728  1.00 97.95    -0.395 OA
ATOM     22  H3  VFQ 61620     -51.807 146.261  12.665  1.00  0.00     0.210 HD
HETATM   23  C21 VFQ 61620     -34.441 127.502   5.674  1.00 35.06    -0.018 C 
HETATM   24  C22 VFQ 61620     -33.074 126.847   5.472  1.00 35.06     0.045 C 
HETATM   25  C23 VFQ 61620     -31.874 127.678   5.914  1.00 35.06     0.123 C 
HETATM   26  C24 VFQ 61620     -32.246 129.146   5.991  1.00 35.06     0.066 C 
HETATM   27  C25 VFQ 61620     -33.343 129.228   7.010  1.00 35.06    -0.074 C 
HETATM   28  C26 VFQ 61620     -34.452 128.523   6.786  1.00 35.06    -0.048 C 
HETATM   29  C27 VFQ 61620     -35.729 128.830   7.456  1.00 35.06     0.009 C 
HETATM   30  C28 VFQ 61620     -36.021 130.122   7.591  1.00 35.06     0.007 C 
HETATM   31  C29 VFQ 61620     -37.356 130.551   8.056  1.00 97.95    -0.062 C 
HETATM   32  C30 VFQ 61620     -37.518 131.868   8.126  1.00 97.95     0.007 C 
HETATM   33  C31 VFQ 61620     -38.736 132.539   8.538  1.00 97.95     0.001 C 
HETATM   34  C32 VFQ 61620     -38.610 133.854   8.528  1.00 97.95     0.007 C 
HETATM   35  C33 VFQ 61620     -39.697 134.760   8.891  1.00 97.95    -0.062 C 
HETATM   36  C34 VFQ 61620     -39.434 136.066   8.862  1.00 97.95     0.007 C 
HETATM   37  C35 VFQ 61620     -40.466 137.030   9.193  1.00 97.95     0.001 C 
HETATM   38  C36 VFQ 61620     -35.492 126.438   5.947  1.00 35.06     0.020 C 
HETATM   39  C37 VFQ 61620     -34.819 128.264   4.409  1.00 35.06     0.020 C 
HETATM   40  C38 VFQ 61620     -33.068 129.973   8.293  1.00 35.06     0.044 C 
HETATM   41  C39 VFQ 61620     -38.446 129.586   8.410  1.00 97.95     0.048 C 
HETATM   42  C40 VFQ 61620     -41.041 134.229   9.278  1.00 97.95     0.048 C 
HETATM   43  O23 VFQ 61620     -30.804 127.522   4.976  1.00 35.06    -0.395 OA
ATOM     44  H23 VFQ 61620     -30.056 128.039   5.250  1.00  0.00     0.210 HD
ENDROOT
TORSDOF 12
BEGIN_RES PHE A  61
REMARK  2 active torsions:
REMARK  status: ('A' for Active; 'I' for Inactive)
REMARK    1  A    between atoms: CA   and  CB  
REMARK    2  A    between atoms: CB   and  CG  
ROOT
ATOM      1  CA  PHE A  61     -36.237 128.293  12.768  1.00 39.40     0.164 C 
ENDROOT
BRANCH   1   2
ATOM      2  CB  PHE A  61     -36.813 128.951  11.509  1.00 39.41     0.058 C 
BRANCH   2   3
ATOM      3  CG  PHE A  61     -36.429 130.401  11.331  1.00 39.01    -0.020 A 
ATOM      4  CD2 PHE A  61     -37.315 131.416  11.654  1.00 40.32    -0.004 A 
ATOM      5  CE2 PHE A  61     -36.962 132.749  11.487  1.00 40.20    -0.000 A 
ATOM      6  CZ  PHE A  61     -35.719 133.082  11.000  1.00 40.34    -0.000 A 
ATOM      7  CE1 PHE A  61     -34.826 132.084  10.676  1.00 41.51    -0.000 A 
ATOM      8  CD1 PHE A  61     -35.181 130.751  10.837  1.00 39.94    -0.004 A 
ENDBRANCH   2   3
ENDBRANCH   1   2
END_RES PHE A  61
BEGIN_RES VAL A 134
REMARK  1 active torsions:
REMARK  status: ('A' for Active; 'I' for Inactive)
REMARK    3  A    between atoms: CA   and  CB  
ROOT
ATOM      9  CA  VAL A 134     -29.766 132.051   9.815  1.00 40.75     0.159 C 
ENDROOT
BRANCH   9  10
ATOM     10  CB  VAL A 134     -30.864 132.765   9.009  1.00 40.76     0.029 C 
ATOM     11  CG1 VAL A 134     -31.110 132.054   7.686  1.00 41.76     0.002 C 
ATOM     12  CG2 VAL A 134     -32.155 132.887   9.805  1.00 40.56     0.002 C 
ENDBRANCH   9  10
END_RES VAL A 134
BEGIN_RES TYR A 338
REMARK  3 active torsions:
REMARK  status: ('A' for Active; 'I' for Inactive)
REMARK    4  A    between atoms: CA   and  CB  
REMARK    5  A    between atoms: CB   and  CG  
REMARK    6  A    between atoms: CZ   and  OH  
ROOT
ATOM     13  CA  TYR A 338     -41.631 124.950   6.058  1.00 38.23     0.164 C 
ENDROOT
BRANCH  13  14
ATOM     14  CB  TYR A 338     -41.621 126.456   6.339  1.00 39.15     0.058 C 
BRANCH  14  15
ATOM     15  CG  TYR A 338     -40.423 127.213   5.814  1.00 39.03    -0.020 A 
ATOM     16  CD2 TYR A 338     -40.330 128.584   5.987  1.00 40.65    -0.002 A 
ATOM     17  CE2 TYR A 338     -39.253 129.313   5.505  1.00 40.91     0.024 A 
ATOM     18  CZ  TYR A 338     -38.236 128.667   4.828  1.00 42.33     0.089 A 
ATOM     19  CE1 TYR A 338     -38.304 127.297   4.647  1.00 40.63     0.024 A 
ATOM     20  CD1 TYR A 338     -39.395 126.588   5.126  1.00 39.27    -0.002 A 
BRANCH  18  21
ATOM     21  OH  TYR A 338     -37.167 129.375   4.352  1.00 43.36    -0.359 OA
ATOM     22  HH  TYR A 338     -36.348 129.390   4.834  1.00  0.00     0.217 HD
ENDBRANCH  18  21
ENDBRANCH  14  15
ENDBRANCH  13  14
END_RES TYR A 338
ENDMDL
