MODEL 1
REMARK VINA RESULT:   -11.103      0.000      0.000
REMARK INTER + INTRA:         -13.755
REMARK INTER:                 -11.103
REMARK INTRA:                  -2.652
REMARK UNBOUND:                -2.652
REMARK  0 active torsions:
REMARK  status: ('A' for Active; 'I' for Inactive)
REMARK       I    between atoms: C3_3  and  O3_21 
REMARK       I    between atoms: C6_6  and  C7_7 
REMARK       I    between atoms: C8_8  and  C9_9 
REMARK       I    between atoms: C10_10  and  C11_11 
REMARK       I    between atoms: C12_12  and  C13_13 
REMARK       I    between atoms: C14_14  and  C15_15 
REMARK       I    between atoms: C23_25  and  O23_43 
REMARK       I    between atoms: C26_28  and  C27_29 
REMARK       I    between atoms: C28_30  and  C29_31 
REMARK       I    between atoms: C30_32  and  C31_33 
REMARK       I    between atoms: C32_34  and  C33_35 
REMARK       I    between atoms: C34_36  and  C35_37 
ROOT
HETATM    1  C1  VFQ I8621     -47.830 145.966  12.782  1.00 22.25    -0.018 C 
HETATM    2  C2  VFQ I8621     -48.568 146.511  14.015  1.00 20.45     0.045 C 
HETATM    3  C3  VFQ I8621     -47.853 147.445  14.986  1.00 22.17     0.123 C 
HETATM    4  C4  VFQ I8621     -46.524 148.033  14.491  1.00 20.30     0.066 C 
HETATM    5  C5  VFQ I8621     -45.789 147.402  13.356  1.00 20.75    -0.074 C 
HETATM    6  C6  VFQ I8621     -46.359 146.446  12.541  1.00 21.23    -0.048 C 
HETATM    7  C7  VFQ I8621     -45.686 145.794  11.395  1.00 18.62     0.009 C 
HETATM    8  C8  VFQ I8621     -44.810 144.775  11.496  1.00 19.71     0.007 C 
HETATM    9  C9  VFQ I8621     -44.087 144.087  10.423  1.00 18.91    -0.062 C 
HETATM   10  C10 VFQ I8621     -43.361 142.998  10.757  1.00 16.97     0.007 C 
HETATM   11  C11 VFQ I8621     -42.664 142.137   9.850  1.00 17.11     0.001 C 
HETATM   12  C12 VFQ I8621     -42.048 141.017  10.259  1.00 17.32     0.007 C 
HETATM   13  C13 VFQ I8621     -41.386 140.016   9.414  1.00 18.45    -0.062 C 
HETATM   14  C14 VFQ I8621     -40.863 138.927  10.016  1.00 18.02     0.007 C 
HETATM   15  C15 VFQ I8621     -40.238 137.808   9.377  1.00 17.18     0.001 C 
HETATM   16  C16 VFQ I8621     -48.736 146.419  11.620  1.00 20.14     0.020 C 
HETATM   17  C17 VFQ I8621     -47.896 144.416  12.868  1.00 21.86     0.020 C 
HETATM   18  C18 VFQ I8621     -44.429 148.000  13.268  1.00 20.13     0.044 C 
HETATM   19  C19 VFQ I8621     -44.272 144.585   9.018  1.00 18.10     0.048 C 
HETATM   20  C20 VFQ I8621     -41.374 140.248   7.925  1.00 17.04     0.048 C 
HETATM   21  O3  VFQ I8621     -48.731 148.483  15.406  1.00 24.42    -0.395 OA
ATOM     22  H3  VFQ I8621     -48.285 149.064  16.011  1.00  0.00     0.210 HD
HETATM   23  C21 VFQ I8621     -34.318 126.702   6.477  1.00 16.49    -0.018 C 
HETATM   24  C22 VFQ I8621     -33.865 125.850   5.276  1.00 14.93     0.045 C 
HETATM   25  C23 VFQ I8621     -32.645 126.272   4.464  1.00 15.86     0.123 C 
HETATM   26  C24 VFQ I8621     -32.270 127.762   4.583  1.00 14.41     0.066 C 
HETATM   27  C25 VFQ I8621     -32.723 128.570   5.768  1.00 15.44    -0.074 C 
HETATM   28  C26 VFQ I8621     -33.678 128.117   6.658  1.00 14.73    -0.048 C 
HETATM   29  C27 VFQ I8621     -34.158 128.888   7.832  1.00 14.04     0.009 C 
HETATM   30  C28 VFQ I8621     -35.098 129.860   7.792  1.00 12.72     0.007 C 
HETATM   31  C29 VFQ I8621     -35.586 130.704   8.883  1.00 22.55    -0.062 C 
HETATM   32  C30 VFQ I8621     -36.507 131.658   8.623  1.00 20.56     0.007 C 
HETATM   33  C31 VFQ I8621     -37.093 132.557   9.587  1.00 20.09     0.001 C 
HETATM   34  C32 VFQ I8621     -37.864 133.610   9.226  1.00 17.50     0.007 C 
HETATM   35  C33 VFQ I8621     -38.486 134.636  10.073  1.00 16.61    -0.062 C 
HETATM   36  C34 VFQ I8621     -39.110 135.661   9.454  1.00 17.58     0.007 C 
HETATM   37  C35 VFQ I8621     -39.728 136.804  10.084  1.00 19.85     0.001 C 
HETATM   38  C36 VFQ I8621     -34.086 125.854   7.754  1.00 14.27     0.020 C 
HETATM   39  C37 VFQ I8621     -35.842 126.817   6.220  1.00 12.26     0.020 C 
HETATM   40  C38 VFQ I8621     -31.991 129.868   5.852  1.00 13.78     0.044 C 
HETATM   41  C39 VFQ I8621     -34.965 130.495  10.235  1.00 24.32     0.048 C 
HETATM   42  C40 VFQ I8621     -38.318 134.533  11.556  1.00 12.09     0.048 C 
HETATM   43  O23 VFQ I8621     -32.813 125.907   3.102  1.00 14.46    -0.395 OA
ATOM     44  H23 VFQ I8621     -33.045 124.988   3.028  1.00  0.00     0.210 HD
ENDROOT
TORSDOF 12
BEGIN_RES PHE A  61
REMARK  2 active torsions:
REMARK  status: ('A' for Active; 'I' for Inactive)
REMARK    1  A    between atoms: CA   and  CB  
REMARK    2  A    between atoms: CB   and  CG  
ROOT
ATOM      1  CA  PHE A  61     -36.237 128.293  12.768  1.00 39.40     0.164 C 
ENDROOT
BRANCH   1   2
ATOM      2  CB  PHE A  61     -36.813 128.951  11.509  1.00 39.41     0.058 C 
BRANCH   2   3
ATOM      3  CG  PHE A  61     -37.086 127.994  10.374  1.00 39.01    -0.020 A 
ATOM      4  CD2 PHE A  61     -36.372 126.812  10.252  1.00 40.32    -0.004 A 
ATOM      5  CE2 PHE A  61     -36.623 125.933   9.205  1.00 40.20    -0.000 A 
ATOM      6  CZ  PHE A  61     -37.591 126.224   8.272  1.00 40.34    -0.000 A 
ATOM      7  CE1 PHE A  61     -38.311 127.393   8.380  1.00 41.51    -0.000 A 
ATOM      8  CD1 PHE A  61     -38.056 128.275   9.422  1.00 39.94    -0.004 A 
ENDBRANCH   2   3
ENDBRANCH   1   2
END_RES PHE A  61
BEGIN_RES VAL A 134
REMARK  1 active torsions:
REMARK  status: ('A' for Active; 'I' for Inactive)
REMARK    3  A    between atoms: CA   and  CB  
ROOT
ATOM      9  CA  VAL A 134     -29.766 132.051   9.815  1.00 40.75     0.159 C 
ENDROOT
BRANCH   9  10
ATOM     10  CB  VAL A 134     -30.864 132.765   9.009  1.00 40.76     0.029 C 
ATOM     11  CG1 VAL A 134     -31.177 132.000   7.731  1.00 41.76     0.002 C 
ATOM     12  CG2 VAL A 134     -32.123 132.973   9.837  1.00 40.56     0.002 C 
ENDBRANCH   9  10
END_RES VAL A 134
BEGIN_RES TYR A 338
REMARK  3 active torsions:
REMARK  status: ('A' for Active; 'I' for Inactive)
REMARK    4  A    between atoms: CA   and  CB  
REMARK    5  A    between atoms: CB   and  CG  
REMARK    6  A    between atoms: CZ   and  OH  
ROOT
ATOM     13  CA  TYR A 338     -41.631 124.950   6.058  1.00 38.23     0.164 C 
ENDROOT
BRANCH  13  14
ATOM     14  CB  TYR A 338     -41.621 126.456   6.339  1.00 39.15     0.058 C 
BRANCH  14  15
ATOM     15  CG  TYR A 338     -40.410 127.209   5.837  1.00 39.03    -0.020 A 
ATOM     16  CD2 TYR A 338     -40.230 128.543   6.162  1.00 40.65    -0.002 A 
ATOM     17  CE2 TYR A 338     -39.140 129.268   5.707  1.00 40.91     0.024 A 
ATOM     18  CZ  TYR A 338     -38.197 128.657   4.903  1.00 42.33     0.089 A 
ATOM     19  CE1 TYR A 338     -38.352 127.323   4.568  1.00 40.63     0.024 A 
ATOM     20  CD1 TYR A 338     -39.456 126.619   5.023  1.00 39.27    -0.002 A 
BRANCH  18  21
ATOM     21  OH  TYR A 338     -37.116 129.361   4.452  1.00 43.36    -0.359 OA
ATOM     22  HH  TYR A 338     -36.664 129.969   5.026  1.00  0.00     0.217 HD
ENDBRANCH  18  21
ENDBRANCH  14  15
ENDBRANCH  13  14
END_RES TYR A 338
ENDMDL
MODEL 2
REMARK VINA RESULT:    -9.790      1.950      2.453
REMARK INTER + INTRA:         -12.442
REMARK INTER:                 -12.196
REMARK INTRA:                  -0.246
REMARK UNBOUND:                -2.652
REMARK  0 active torsions:
REMARK  status: ('A' for Active; 'I' for Inactive)
REMARK       I    between atoms: C3_3  and  O3_21 
REMARK       I    between atoms: C6_6  and  C7_7 
REMARK       I    between atoms: C8_8  and  C9_9 
REMARK       I    between atoms: C10_10  and  C11_11 
REMARK       I    between atoms: C12_12  and  C13_13 
REMARK       I    between atoms: C14_14  and  C15_15 
REMARK       I    between atoms: C23_25  and  O23_43 
REMARK       I    between atoms: C26_28  and  C27_29 
REMARK       I    between atoms: C28_30  and  C29_31 
REMARK       I    between atoms: C30_32  and  C31_33 
REMARK       I    between atoms: C32_34  and  C33_35 
REMARK       I    between atoms: C34_36  and  C35_37 
ROOT
HETATM    1  C1  VFQ I8621     -50.701 145.446   9.707  1.00 22.25    -0.018 C 
HETATM    2  C2  VFQ I8621     -51.751 145.911  10.727  1.00 20.45     0.045 C 
HETATM    3  C3  VFQ I8621     -51.383 146.941  11.792  1.00 22.17     0.123 C 
HETATM    4  C4  VFQ I8621     -50.057 147.684  11.571  1.00 20.30     0.066 C 
HETATM    5  C5  VFQ I8621     -49.021 147.133  10.649  1.00 20.75    -0.074 C 
HETATM    6  C6  VFQ I8621     -49.281 146.102   9.770  1.00 21.23    -0.048 C 
HETATM    7  C7  VFQ I8621     -48.299 145.524   8.825  1.00 18.62     0.009 C 
HETATM    8  C8  VFQ I8621     -47.352 144.624   9.155  1.00 19.71     0.007 C 
HETATM    9  C9  VFQ I8621     -46.334 144.016   8.293  1.00 18.91    -0.062 C 
HETATM   10  C10 VFQ I8621     -45.575 143.032   8.820  1.00 16.97     0.007 C 
HETATM   11  C11 VFQ I8621     -44.599 142.252   8.121  1.00 17.11     0.001 C 
HETATM   12  C12 VFQ I8621     -43.960 141.224   8.699  1.00 17.32     0.007 C 
HETATM   13  C13 VFQ I8621     -43.013 140.302   8.059  1.00 18.45    -0.062 C 
HETATM   14  C14 VFQ I8621     -42.509 139.295   8.804  1.00 18.02     0.007 C 
HETATM   15  C15 VFQ I8621     -41.631 138.255   8.362  1.00 17.18     0.001 C 
HETATM   16  C16 VFQ I8621     -51.377 145.765   8.359  1.00 20.14     0.020 C 
HETATM   17  C17 VFQ I8621     -50.599 143.901   9.840  1.00 21.86     0.020 C 
HETATM   18  C18 VFQ I8621     -47.756 147.895  10.833  1.00 20.13     0.044 C 
HETATM   19  C19 VFQ I8621     -46.265 144.468   6.861  1.00 18.10     0.048 C 
HETATM   20  C20 VFQ I8621     -42.702 140.512   6.600  1.00 17.04     0.048 C 
HETATM   21  O3  VFQ I8621     -52.449 147.866  11.968  1.00 24.42    -0.395 OA
ATOM     22  H3  VFQ I8621     -52.219 148.507  12.631  1.00  0.00     0.210 HD
HETATM   23  C21 VFQ I8621     -33.941 127.936   7.269  1.00 16.49    -0.018 C 
HETATM   24  C22 VFQ I8621     -33.137 127.131   6.231  1.00 14.93     0.045 C 
HETATM   25  C23 VFQ I8621     -31.827 127.690   5.684  1.00 15.86     0.123 C 
HETATM   26  C24 VFQ I8621     -31.667 129.217   5.820  1.00 14.41     0.066 C 
HETATM   27  C25 VFQ I8621     -32.463 129.979   6.846  1.00 15.44    -0.074 C 
HETATM   28  C26 VFQ I8621     -33.529 129.423   7.526  1.00 14.73    -0.048 C 
HETATM   29  C27 VFQ I8621     -34.343 130.144   8.535  1.00 14.04     0.009 C 
HETATM   30  C28 VFQ I8621     -35.361 130.990   8.253  1.00 12.72     0.007 C 
HETATM   31  C29 VFQ I8621     -36.173 131.782   9.178  1.00 22.55    -0.062 C 
HETATM   32  C30 VFQ I8621     -37.121 132.609   8.685  1.00 20.56     0.007 C 
HETATM   33  C31 VFQ I8621     -38.008 133.442   9.462  1.00 20.09     0.001 C 
HETATM   34  C32 VFQ I8621     -38.799 134.384   8.900  1.00 17.50     0.007 C 
HETATM   35  C33 VFQ I8621     -39.710 135.337   9.549  1.00 16.61    -0.062 C 
HETATM   36  C34 VFQ I8621     -40.301 136.266   8.769  1.00 17.58     0.007 C 
HETATM   37  C35 VFQ I8621     -41.173 137.332   9.203  1.00 19.85     0.001 C 
HETATM   38  C36 VFQ I8621     -33.895 127.142   8.600  1.00 14.27     0.020 C 
HETATM   39  C37 VFQ I8621     -35.374 127.856   6.684  1.00 12.26     0.020 C 
HETATM   40  C38 VFQ I8621     -31.927 131.359   7.032  1.00 13.78     0.044 C 
HETATM   41  C39 VFQ I8621     -35.843 131.671  10.639  1.00 24.32     0.048 C 
HETATM   42  C40 VFQ I8621     -39.860 135.276  11.037  1.00 12.09     0.048 C 
HETATM   43  O23 VFQ I8621     -31.647 127.288   4.334  1.00 14.46    -0.395 OA
ATOM     44  H23 VFQ I8621     -31.746 126.346   4.251  1.00  0.00     0.210 HD
ENDROOT
TORSDOF 12
BEGIN_RES PHE A  61
REMARK  2 active torsions:
REMARK  status: ('A' for Active; 'I' for Inactive)
REMARK    1  A    between atoms: CA   and  CB  
REMARK    2  A    between atoms: CB   and  CG  
ROOT
ATOM      1  CA  PHE A  61     -36.237 128.293  12.768  1.00 39.40     0.164 C 
ENDROOT
BRANCH   1   2
ATOM      2  CB  PHE A  61     -36.813 128.951  11.509  1.00 39.41     0.058 C 
BRANCH   2   3
ATOM      3  CG  PHE A  61     -37.047 128.000  10.360  1.00 39.01    -0.020 A 
ATOM      4  CD2 PHE A  61     -36.343 126.810  10.265  1.00 40.32    -0.004 A 
ATOM      5  CE2 PHE A  61     -36.557 125.938   9.206  1.00 40.20    -0.000 A 
ATOM      6  CZ  PHE A  61     -37.480 126.243   8.231  1.00 40.34    -0.000 A 
ATOM      7  CE1 PHE A  61     -38.189 127.421   8.311  1.00 41.51    -0.000 A 
ATOM      8  CD1 PHE A  61     -37.971 128.297   9.367  1.00 39.94    -0.004 A 
ENDBRANCH   2   3
ENDBRANCH   1   2
END_RES PHE A  61
BEGIN_RES VAL A 134
REMARK  1 active torsions:
REMARK  status: ('A' for Active; 'I' for Inactive)
REMARK    3  A    between atoms: CA   and  CB  
ROOT
ATOM      9  CA  VAL A 134     -29.766 132.051   9.815  1.00 40.75     0.159 C 
ENDROOT
BRANCH   9  10
ATOM     10  CB  VAL A 134     -30.864 132.765   9.009  1.00 40.76     0.029 C 
ATOM     11  CG1 VAL A 134     -32.138 132.893   9.831  1.00 41.76     0.002 C 
ATOM     12  CG2 VAL A 134     -30.401 134.127   8.514  1.00 40.56     0.002 C 
ENDBRANCH   9  10
END_RES VAL A 134
BEGIN_RES TYR A 338
REMARK  3 active torsions:
REMARK  status: ('A' for Active; 'I' for Inactive)
REMARK    4  A    between atoms: CA   and  CB  
REMARK    5  A    between atoms: CB   and  CG  
REMARK    6  A    between atoms: CZ   and  OH  
ROOT
ATOM     13  CA  TYR A 338     -41.631 124.950   6.058  1.00 38.23     0.164 C 
ENDROOT
BRANCH  13  14
ATOM     14  CB  TYR A 338     -41.621 126.456   6.339  1.00 39.15     0.058 C 
BRANCH  14  15
ATOM     15  CG  TYR A 338     -40.410 127.209   5.838  1.00 39.03    -0.020 A 
ATOM     16  CD2 TYR A 338     -40.249 128.552   6.132  1.00 40.65    -0.002 A 
ATOM     17  CE2 TYR A 338     -39.159 129.277   5.676  1.00 40.91     0.024 A 
ATOM     18  CZ  TYR A 338     -38.196 128.656   4.904  1.00 42.33     0.089 A 
ATOM     19  CE1 TYR A 338     -38.331 127.313   4.602  1.00 40.63     0.024 A 
ATOM     20  CD1 TYR A 338     -39.436 126.608   5.056  1.00 39.27    -0.002 A 
BRANCH  18  21
ATOM     21  OH  TYR A 338     -37.114 129.360   4.453  1.00 43.36    -0.359 OA
ATOM     22  HH  TYR A 338     -36.560 129.003   3.769  1.00  0.00     0.217 HD
ENDBRANCH  18  21
ENDBRANCH  14  15
ENDBRANCH  13  14
END_RES TYR A 338
ENDMDL
