MODEL 1
REMARK VINA RESULT:    -8.997      0.000      0.000
REMARK INTER + INTRA:         -11.620
REMARK INTER:                  -8.997
REMARK INTRA:                  -2.624
REMARK UNBOUND:                -2.624
REMARK  0 active torsions:
REMARK  status: ('A' for Active; 'I' for Inactive)
REMARK       I    between atoms: C3_3  and  O3_21 
REMARK       I    between atoms: C6_6  and  C7_7 
REMARK       I    between atoms: C8_8  and  C9_9 
REMARK       I    between atoms: C10_10  and  C11_11 
REMARK       I    between atoms: C12_12  and  C13_13 
REMARK       I    between atoms: C14_14  and  C15_15 
REMARK       I    between atoms: C23_25  and  O23_43 
REMARK       I    between atoms: C26_28  and  C27_29 
REMARK       I    between atoms: C28_30  and  C29_31 
REMARK       I    between atoms: C30_32  and  C31_33 
REMARK       I    between atoms: C32_34  and  C33_35 
REMARK       I    between atoms: C34_36  and  C35_37 
ROOT
HETATM    1  C1  VFQ s1620     -34.541 127.054   6.245  1.00 51.12    -0.018 C 
HETATM    2  C2  VFQ s1620     -34.186 126.498   4.873  1.00 51.12     0.045 C 
HETATM    3  C3  VFQ s1620     -32.926 126.985   4.173  1.00 51.12     0.123 C 
HETATM    4  C4  VFQ s1620     -31.967 127.696   5.103  1.00 51.12     0.066 C 
HETATM    5  C5  VFQ s1620     -32.715 128.699   5.918  1.00 51.12    -0.074 C 
HETATM    6  C6  VFQ s1620     -33.782 128.312   6.607  1.00 51.12    -0.048 C 
HETATM    7  C7  VFQ s1620     -34.250 129.090   7.768  1.00 51.12     0.009 C 
HETATM    8  C8  VFQ s1620     -34.986 130.178   7.589  1.00 51.12     0.007 C 
HETATM    9  C9  VFQ s1620     -35.487 130.950   8.722  1.00 51.12    -0.062 C 
HETATM   10  C10 VFQ s1620     -36.187 132.038   8.412  1.00 51.12     0.007 C 
HETATM   11  C11 VFQ s1620     -36.813 132.941   9.357  1.00 51.12     0.001 C 
HETATM   12  C12 VFQ s1620     -37.700 133.725   8.771  1.00 51.12     0.007 C 
HETATM   13  C13 VFQ s1620     -38.515 134.712   9.474  1.00 51.12    -0.062 C 
HETATM   14  C14 VFQ s1620     -39.452 135.338   8.760  1.00 51.12     0.007 C 
HETATM   15  C15 VFQ s1620     -40.356 136.303   9.357  1.00 51.12     0.001 C 
HETATM   16  C16 VFQ s1620     -34.339 125.941   7.267  1.00 51.12     0.020 C 
HETATM   17  C17 VFQ s1620     -36.015 127.413   6.234  1.00 51.12     0.020 C 
HETATM   18  C18 VFQ s1620     -31.672 129.609   6.489  1.00 51.12     0.044 C 
HETATM   19  C19 VFQ s1620     -35.224 130.505  10.127  1.00 51.12     0.048 C 
HETATM   20  C20 VFQ s1620     -38.308 134.984  10.926  1.00 51.12     0.048 C 
HETATM   21  O3  VFQ s1620     -32.235 125.850   3.644  1.00 51.12    -0.395 OA
ATOM     22  H3  VFQ s1620     -32.838 125.405   3.061  1.00  0.00     0.210 HD
HETATM   23  C21 VFQ s1620     -49.983 143.131  12.555  1.00 56.99    -0.018 C 
HETATM   24  C22 VFQ s1620     -51.030 143.939  13.319  1.00 56.99     0.045 C 
HETATM   25  C23 VFQ s1620     -50.775 145.426  13.520  1.00 56.99     0.123 C 
HETATM   26  C24 VFQ s1620     -49.293 145.736  13.599  1.00 56.99     0.066 C 
HETATM   27  C25 VFQ s1620     -48.617 145.191  12.376  1.00 56.99    -0.074 C 
HETATM   28  C26 VFQ s1620     -48.889 143.968  11.922  1.00 56.99    -0.048 C 
HETATM   29  C27 VFQ s1620     -48.125 143.423  10.768  1.00 56.99     0.009 C 
HETATM   30  C28 VFQ s1620     -47.042 142.663  10.945  1.00 56.99     0.007 C 
HETATM   31  C29 VFQ s1620     -46.264 142.106   9.845  1.00 51.12    -0.062 C 
HETATM   32  C30 VFQ s1620     -45.608 140.964  10.062  1.00 51.12     0.007 C 
HETATM   33  C31 VFQ s1620     -44.821 140.277   9.051  1.00 51.12     0.001 C 
HETATM   34  C32 VFQ s1620     -43.988 139.353   9.505  1.00 51.12     0.007 C 
HETATM   35  C33 VFQ s1620     -43.132 138.531   8.640  1.00 51.12    -0.062 C 
HETATM   36  C34 VFQ s1620     -42.222 137.775   9.256  1.00 51.12     0.007 C 
HETATM   37  C35 VFQ s1620     -41.305 136.854   8.607  1.00 51.12     0.001 C 
HETATM   38  C36 VFQ s1620     -50.699 142.415  11.429  1.00 56.99     0.020 C 
HETATM   39  C37 VFQ s1620     -49.412 142.077  13.502  1.00 56.99     0.020 C 
HETATM   40  C38 VFQ s1620     -47.642 146.089  11.683  1.00 56.99     0.044 C 
HETATM   41  C39 VFQ s1620     -46.217 142.800   8.521  1.00 51.12     0.048 C 
HETATM   42  C40 VFQ s1620     -43.304 138.529   7.154  1.00 51.12     0.048 C 
HETATM   43  O23 VFQ s1620     -51.385 145.837  14.747  1.00 56.99    -0.395 OA
ATOM     44  H23 VFQ s1620     -51.226 146.765  14.873  1.00  0.00     0.210 HD
ENDROOT
TORSDOF 12
BEGIN_RES PHE A  61
REMARK  2 active torsions:
REMARK  status: ('A' for Active; 'I' for Inactive)
REMARK    1  A    between atoms: CA   and  CB  
REMARK    2  A    between atoms: CB   and  CG  
ROOT
ATOM      1  CA  PHE A  61     -36.237 128.293  12.768  1.00 39.40     0.164 C 
ENDROOT
BRANCH   1   2
ATOM      2  CB  PHE A  61     -36.813 128.951  11.509  1.00 39.41     0.058 C 
BRANCH   2   3
ATOM      3  CG  PHE A  61     -37.064 127.997  10.366  1.00 39.01    -0.020 A 
ATOM      4  CD2 PHE A  61     -36.309 126.844  10.222  1.00 40.32    -0.004 A 
ATOM      5  CE2 PHE A  61     -36.539 125.969   9.168  1.00 40.20    -0.000 A 
ATOM      6  CZ  PHE A  61     -37.527 126.235   8.248  1.00 40.34    -0.000 A 
ATOM      7  CE1 PHE A  61     -38.288 127.376   8.378  1.00 41.51    -0.000 A 
ATOM      8  CD1 PHE A  61     -38.054 128.254   9.428  1.00 39.94    -0.004 A 
ENDBRANCH   2   3
ENDBRANCH   1   2
END_RES PHE A  61
BEGIN_RES VAL A 134
REMARK  1 active torsions:
REMARK  status: ('A' for Active; 'I' for Inactive)
REMARK    3  A    between atoms: CA   and  CB  
ROOT
ATOM      9  CA  VAL A 134     -29.766 132.051   9.815  1.00 40.75     0.159 C 
ENDROOT
BRANCH   9  10
ATOM     10  CB  VAL A 134     -30.864 132.765   9.009  1.00 40.76     0.029 C 
ATOM     11  CG1 VAL A 134     -30.898 132.255   7.576  1.00 41.76     0.002 C 
ATOM     12  CG2 VAL A 134     -32.228 132.619   9.667  1.00 40.56     0.002 C 
ENDBRANCH   9  10
END_RES VAL A 134
BEGIN_RES TYR A 338
REMARK  3 active torsions:
REMARK  status: ('A' for Active; 'I' for Inactive)
REMARK    4  A    between atoms: CA   and  CB  
REMARK    5  A    between atoms: CB   and  CG  
REMARK    6  A    between atoms: CZ   and  OH  
ROOT
ATOM     13  CA  TYR A 338     -41.631 124.950   6.058  1.00 38.23     0.164 C 
ENDROOT
BRANCH  13  14
ATOM     14  CB  TYR A 338     -41.621 126.456   6.339  1.00 39.15     0.058 C 
BRANCH  14  15
ATOM     15  CG  TYR A 338     -40.424 127.214   5.812  1.00 39.03    -0.020 A 
ATOM     16  CD2 TYR A 338     -40.249 128.552   6.123  1.00 40.65    -0.002 A 
ATOM     17  CE2 TYR A 338     -39.172 129.281   5.645  1.00 40.91     0.024 A 
ATOM     18  CZ  TYR A 338     -38.236 128.670   4.832  1.00 42.33     0.089 A 
ATOM     19  CE1 TYR A 338     -38.386 127.333   4.511  1.00 40.63     0.024 A 
ATOM     20  CD1 TYR A 338     -39.478 126.624   4.988  1.00 39.27    -0.002 A 
BRANCH  18  21
ATOM     21  OH  TYR A 338     -37.167 129.379   4.358  1.00 43.36    -0.359 OA
ATOM     22  HH  TYR A 338     -36.862 130.153   4.817  1.00  0.00     0.217 HD
ENDBRANCH  18  21
ENDBRANCH  14  15
ENDBRANCH  13  14
END_RES TYR A 338
ENDMDL
MODEL 2
REMARK VINA RESULT:    -7.280      1.429     16.606
REMARK INTER + INTRA:          -9.904
REMARK INTER:                  -5.541
REMARK INTRA:                  -4.363
REMARK UNBOUND:                -2.624
REMARK  0 active torsions:
REMARK  status: ('A' for Active; 'I' for Inactive)
REMARK       I    between atoms: C3_3  and  O3_21 
REMARK       I    between atoms: C6_6  and  C7_7 
REMARK       I    between atoms: C8_8  and  C9_9 
REMARK       I    between atoms: C10_10  and  C11_11 
REMARK       I    between atoms: C12_12  and  C13_13 
REMARK       I    between atoms: C14_14  and  C15_15 
REMARK       I    between atoms: C23_25  and  O23_43 
REMARK       I    between atoms: C26_28  and  C27_29 
REMARK       I    between atoms: C28_30  and  C29_31 
REMARK       I    between atoms: C30_32  and  C31_33 
REMARK       I    between atoms: C32_34  and  C33_35 
REMARK       I    between atoms: C34_36  and  C35_37 
ROOT
HETATM    1  C1  VFQ s1620     -48.169 145.055  12.236  1.00 51.12    -0.018 C 
HETATM    2  C2  VFQ s1620     -48.847 145.315  13.574  1.00 51.12     0.045 C 
HETATM    3  C3  VFQ s1620     -48.225 146.309  14.545  1.00 51.12     0.123 C 
HETATM    4  C4  VFQ s1620     -47.197 147.210  13.896  1.00 51.12     0.066 C 
HETATM    5  C5  VFQ s1620     -46.255 146.385  13.082  1.00 51.12    -0.074 C 
HETATM    6  C6  VFQ s1620     -46.742 145.552  12.169  1.00 51.12    -0.048 C 
HETATM    7  C7  VFQ s1620     -45.905 145.099  11.042  1.00 51.12     0.009 C 
HETATM    8  C8  VFQ s1620     -45.033 144.116  11.212  1.00 51.12     0.007 C 
HETATM    9  C9  VFQ s1620     -44.215 143.630  10.105  1.00 51.12    -0.062 C 
HETATM   10  C10 VFQ s1620     -43.354 142.661  10.409  1.00 51.12     0.007 C 
HETATM   11  C11 VFQ s1620     -42.464 141.996   9.479  1.00 51.12     0.001 C 
HETATM   12  C12 VFQ s1620     -41.980 140.874   9.982  1.00 51.12     0.007 C 
HETATM   13  C13 VFQ s1620     -41.084 139.971   9.264  1.00 51.12    -0.062 C 
HETATM   14  C14 VFQ s1620     -40.783 138.819   9.864  1.00 51.12     0.007 C 
HETATM   15  C15 VFQ s1620     -39.943 137.819   9.231  1.00 51.12     0.001 C 
HETATM   16  C16 VFQ s1620     -49.045 145.659  11.144  1.00 51.12     0.020 C 
HETATM   17  C17 VFQ s1620     -48.127 143.553  12.021  1.00 51.12     0.020 C 
HETATM   18  C18 VFQ s1620     -45.073 147.266  12.822  1.00 51.12     0.044 C 
HETATM   19  C19 VFQ s1620     -44.372 144.198   8.730  1.00 51.12     0.048 C 
HETATM   20  C20 VFQ s1620     -40.554 140.328   7.917  1.00 51.12     0.048 C 
HETATM   21  O3  VFQ s1620     -49.262 147.153  15.053  1.00 51.12    -0.395 OA
ATOM     22  H3  VFQ s1620     -49.907 146.586  15.460  1.00  0.00     0.210 HD
HETATM   23  C21 VFQ s1620     -34.827 127.485   5.162  1.00 56.99    -0.018 C 
HETATM   24  C22 VFQ s1620     -34.143 126.409   4.320  1.00 56.99     0.045 C 
HETATM   25  C23 VFQ s1620     -32.622 126.344   4.346  1.00 56.99     0.123 C 
HETATM   26  C24 VFQ s1620     -32.006 127.711   4.576  1.00 56.99     0.066 C 
HETATM   27  C25 VFQ s1620     -32.584 128.300   5.829  1.00 56.99    -0.074 C 
HETATM   28  C26 VFQ s1620     -33.892 128.249   6.078  1.00 56.99    -0.048 C 
HETATM   29  C27 VFQ s1620     -34.440 128.934   7.279  1.00 56.99     0.009 C 
HETATM   30  C28 VFQ s1620     -34.925 130.175   7.214  1.00 56.99     0.007 C 
HETATM   31  C29 VFQ s1620     -35.474 130.884   8.364  1.00 51.12    -0.062 C 
HETATM   32  C30 VFQ s1620     -36.409 131.809   8.137  1.00 51.12     0.007 C 
HETATM   33  C31 VFQ s1620     -37.068 132.570   9.185  1.00 51.12     0.001 C 
HETATM   34  C32 VFQ s1620     -37.719 133.651   8.785  1.00 51.12     0.007 C 
HETATM   35  C33 VFQ s1620     -38.472 134.531   9.688  1.00 51.12    -0.062 C 
HETATM   36  C34 VFQ s1620     -38.920 135.672   9.163  1.00 51.12     0.007 C 
HETATM   37  C35 VFQ s1620     -39.722 136.667   9.855  1.00 51.12     0.001 C 
HETATM   38  C36 VFQ s1620     -35.841 126.790   6.046  1.00 56.99     0.020 C 
HETATM   39  C37 VFQ s1620     -35.581 128.419   4.217  1.00 56.99     0.020 C 
HETATM   40  C38 VFQ s1620     -31.623 128.927   6.789  1.00 56.99     0.044 C 
HETATM   41  C39 VFQ s1620     -34.999 130.570   9.747  1.00 51.12     0.048 C 
HETATM   42  C40 VFQ s1620     -38.740 134.141  11.108  1.00 51.12     0.048 C 
HETATM   43  O23 VFQ s1620     -32.160 125.850   3.086  1.00 56.99    -0.395 OA
ATOM     44  H23 VFQ s1620     -31.211 125.810   3.102  1.00  0.00     0.210 HD
ENDROOT
TORSDOF 12
BEGIN_RES PHE A  61
REMARK  2 active torsions:
REMARK  status: ('A' for Active; 'I' for Inactive)
REMARK    1  A    between atoms: CA   and  CB  
REMARK    2  A    between atoms: CB   and  CG  
ROOT
ATOM      1  CA  PHE A  61     -36.237 128.293  12.768  1.00 39.40     0.164 C 
ENDROOT
BRANCH   1   2
ATOM      2  CB  PHE A  61     -36.813 128.951  11.509  1.00 39.41     0.058 C 
BRANCH   2   3
ATOM      3  CG  PHE A  61     -36.888 128.040  10.307  1.00 39.01    -0.020 A 
ATOM      4  CD2 PHE A  61     -35.938 127.051  10.103  1.00 40.32    -0.004 A 
ATOM      5  CE2 PHE A  61     -36.007 126.216   8.996  1.00 40.20    -0.000 A 
ATOM      6  CZ  PHE A  61     -37.027 126.356   8.082  1.00 40.34    -0.000 A 
ATOM      7  CE1 PHE A  61     -37.980 127.332   8.272  1.00 41.51    -0.000 A 
ATOM      8  CD1 PHE A  61     -37.908 128.172   9.376  1.00 39.94    -0.004 A 
ENDBRANCH   2   3
ENDBRANCH   1   2
END_RES PHE A  61
BEGIN_RES VAL A 134
REMARK  1 active torsions:
REMARK  status: ('A' for Active; 'I' for Inactive)
REMARK    3  A    between atoms: CA   and  CB  
ROOT
ATOM      9  CA  VAL A 134     -29.766 132.051   9.815  1.00 40.75     0.159 C 
ENDROOT
BRANCH   9  10
ATOM     10  CB  VAL A 134     -30.864 132.765   9.009  1.00 40.76     0.029 C 
ATOM     11  CG1 VAL A 134     -31.181 131.998   7.734  1.00 41.76     0.002 C 
ATOM     12  CG2 VAL A 134     -32.121 132.977   9.838  1.00 40.56     0.002 C 
ENDBRANCH   9  10
END_RES VAL A 134
BEGIN_RES TYR A 338
REMARK  3 active torsions:
REMARK  status: ('A' for Active; 'I' for Inactive)
REMARK    4  A    between atoms: CA   and  CB  
REMARK    5  A    between atoms: CB   and  CG  
REMARK    6  A    between atoms: CZ   and  OH  
ROOT
ATOM     13  CA  TYR A 338     -41.631 124.950   6.058  1.00 38.23     0.164 C 
ENDROOT
BRANCH  13  14
ATOM     14  CB  TYR A 338     -41.621 126.456   6.339  1.00 39.15     0.058 C 
BRANCH  14  15
ATOM     15  CG  TYR A 338     -40.442 127.220   5.781  1.00 39.03    -0.020 A 
ATOM     16  CD2 TYR A 338     -40.229 128.540   6.140  1.00 40.65    -0.002 A 
ATOM     17  CE2 TYR A 338     -39.167 129.275   5.636  1.00 40.91     0.024 A 
ATOM     18  CZ  TYR A 338     -38.287 128.688   4.746  1.00 42.33     0.089 A 
ATOM     19  CE1 TYR A 338     -38.477 127.368   4.376  1.00 40.63     0.024 A 
ATOM     20  CD1 TYR A 338     -39.552 126.654   4.881  1.00 39.27    -0.002 A 
BRANCH  18  21
ATOM     21  OH  TYR A 338     -37.235 129.402   4.246  1.00 43.36    -0.359 OA
ATOM     22  HH  TYR A 338     -36.486 128.954   3.869  1.00  0.00     0.217 HD
ENDBRANCH  18  21
ENDBRANCH  14  15
ENDBRANCH  13  14
END_RES TYR A 338
ENDMDL
