MODEL 1
REMARK VINA RESULT:    -8.673      0.000      0.000
REMARK INTER + INTRA:         -11.338
REMARK INTER:                  -8.673
REMARK INTRA:                  -2.665
REMARK UNBOUND:                -2.665
REMARK  0 active torsions:
REMARK  status: ('A' for Active; 'I' for Inactive)
REMARK       I    between atoms: C3_3  and  O3_21 
REMARK       I    between atoms: C6_6  and  C7_7 
REMARK       I    between atoms: C8_8  and  C9_9 
REMARK       I    between atoms: C10_10  and  C11_11 
REMARK       I    between atoms: C12_12  and  C13_13 
REMARK       I    between atoms: C14_14  and  C15_15 
REMARK       I    between atoms: C23_25  and  O23_43 
REMARK       I    between atoms: C26_28  and  C27_29 
REMARK       I    between atoms: C28_30  and  C29_31 
REMARK       I    between atoms: C30_32  and  C31_33 
REMARK       I    between atoms: C32_34  and  C33_35 
REMARK       I    between atoms: C34_36  and  C35_37 
ROOT
HETATM    1  C1  VFQ 7 621     -34.270 127.458   6.554  1.00 16.14    -0.018 C 
HETATM    2  C2  VFQ 7 621     -33.559 126.831   5.356  1.00 16.14     0.045 C 
HETATM    3  C3  VFQ 7 621     -32.357 127.580   4.809  1.00 16.14     0.123 C 
HETATM    4  C4  VFQ 7 621     -31.501 128.104   5.937  1.00 16.14     0.066 C 
HETATM    5  C5  VFQ 7 621     -32.341 129.030   6.764  1.00 16.14    -0.074 C 
HETATM    6  C6  VFQ 7 621     -33.570 128.668   7.151  1.00 16.14    -0.048 C 
HETATM    7  C7  VFQ 7 621     -34.256 129.443   8.210  1.00 16.14     0.009 C 
HETATM    8  C8  VFQ 7 621     -34.962 130.552   7.972  1.00 16.14     0.007 C 
HETATM    9  C9  VFQ 7 621     -35.610 131.278   9.072  1.00 16.14    -0.062 C 
HETATM   10  C10 VFQ 7 621     -36.350 132.356   8.763  1.00 16.14     0.007 C 
HETATM   11  C11 VFQ 7 621     -37.089 133.220   9.686  1.00 16.14     0.001 C 
HETATM   12  C12 VFQ 7 621     -37.620 134.316   9.148  1.00 16.14     0.007 C 
HETATM   13  C13 VFQ 7 621     -38.448 135.298   9.872  1.00 16.14    -0.062 C 
HETATM   14  C14 VFQ 7 621     -39.262 136.050   9.120  1.00 16.14     0.007 C 
HETATM   15  C15 VFQ 7 621     -40.208 137.025   9.648  1.00 16.14     0.001 C 
HETATM   16  C16 VFQ 7 621     -34.457 126.356   7.591  1.00 16.14     0.020 C 
HETATM   17  C17 VFQ 7 621     -35.641 127.932   6.099  1.00 16.14     0.020 C 
HETATM   18  C18 VFQ 7 621     -31.504 130.012   7.531  1.00 16.14     0.044 C 
HETATM   19  C19 VFQ 7 621     -35.378 130.810  10.471  1.00 16.14     0.048 C 
HETATM   20  C20 VFQ 7 621     -38.414 135.436  11.362  1.00 16.14     0.048 C 
HETATM   21  O3  VFQ 7 621     -31.568 126.694   4.012  1.00 16.14    -0.395 OA
ATOM     22  H3  VFQ 7 621     -30.817 127.163   3.670  1.00  0.00     0.210 HD
HETATM   23  C21 VFQ 7 621     -50.220 144.718  10.436  1.00 13.13    -0.018 C 
HETATM   24  C22 VFQ 7 621     -51.140 145.439  11.411  1.00 13.13     0.045 C 
HETATM   25  C23 VFQ 7 621     -50.674 146.813  11.834  1.00 13.13     0.123 C 
HETATM   26  C24 VFQ 7 621     -49.256 146.732  12.339  1.00 13.13     0.066 C 
HETATM   27  C25 VFQ 7 621     -48.349 146.122  11.307  1.00 13.13    -0.074 C 
HETATM   28  C26 VFQ 7 621     -48.760 145.144  10.482  1.00 13.13    -0.048 C 
HETATM   29  C27 VFQ 7 621     -47.828 144.471   9.533  1.00 13.13     0.009 C 
HETATM   30  C28 VFQ 7 621     -46.990 143.478   9.859  1.00 13.13     0.007 C 
HETATM   31  C29 VFQ 7 621     -46.107 142.842   8.875  1.00 16.14    -0.062 C 
HETATM   32  C30 VFQ 7 621     -45.557 141.675   9.220  1.00 16.14     0.007 C 
HETATM   33  C31 VFQ 7 621     -44.653 140.916   8.368  1.00 16.14     0.001 C 
HETATM   34  C32 VFQ 7 621     -43.875 140.069   9.025  1.00 16.14     0.007 C 
HETATM   35  C33 VFQ 7 621     -42.867 139.194   8.411  1.00 16.14    -0.062 C 
HETATM   36  C34 VFQ 7 621     -42.115 138.461   9.243  1.00 16.14     0.007 C 
HETATM   37  C35 VFQ 7 621     -41.095 137.523   8.792  1.00 16.14     0.001 C 
HETATM   38  C36 VFQ 7 621     -50.712 144.997   9.024  1.00 13.13     0.020 C 
HETATM   39  C37 VFQ 7 621     -50.370 143.241  10.758  1.00 13.13     0.020 C 
HETATM   40  C38 VFQ 7 621     -46.967 146.698  11.259  1.00 13.13     0.044 C 
HETATM   41  C39 VFQ 7 621     -45.839 143.475   7.545  1.00 16.14     0.048 C 
HETATM   42  C40 VFQ 7 621     -42.677 139.160   6.928  1.00 16.14     0.048 C 
HETATM   43  O23 VFQ 7 621     -51.506 147.261  12.905  1.00 13.13    -0.395 OA
ATOM     44  H23 VFQ 7 621     -51.213 148.124  13.171  1.00  0.00     0.210 HD
ENDROOT
TORSDOF 12
BEGIN_RES PHE A  61
REMARK  2 active torsions:
REMARK  status: ('A' for Active; 'I' for Inactive)
REMARK    1  A    between atoms: CA   and  CB  
REMARK    2  A    between atoms: CB   and  CG  
ROOT
ATOM      1  CA  PHE A  61     -36.237 128.293  12.768  1.00 39.40     0.164 C 
ENDROOT
BRANCH   1   2
ATOM      2  CB  PHE A  61     -36.813 128.951  11.509  1.00 39.41     0.058 C 
BRANCH   2   3
ATOM      3  CG  PHE A  61     -37.040 128.002  10.357  1.00 39.01    -0.020 A 
ATOM      4  CD2 PHE A  61     -36.320 126.821  10.255  1.00 40.32    -0.004 A 
ATOM      5  CE2 PHE A  61     -36.528 125.950   9.193  1.00 40.20    -0.000 A 
ATOM      6  CZ  PHE A  61     -37.459 126.248   8.223  1.00 40.34    -0.000 A 
ATOM      7  CE1 PHE A  61     -38.183 127.415   8.311  1.00 41.51    -0.000 A 
ATOM      8  CD1 PHE A  61     -37.972 128.290   9.370  1.00 39.94    -0.004 A 
ENDBRANCH   2   3
ENDBRANCH   1   2
END_RES PHE A  61
BEGIN_RES VAL A 134
REMARK  1 active torsions:
REMARK  status: ('A' for Active; 'I' for Inactive)
REMARK    3  A    between atoms: CA   and  CB  
ROOT
ATOM      9  CA  VAL A 134     -29.766 132.051   9.815  1.00 40.75     0.159 C 
ENDROOT
BRANCH   9  10
ATOM     10  CB  VAL A 134     -30.864 132.765   9.009  1.00 40.76     0.029 C 
ATOM     11  CG1 VAL A 134     -30.852 132.305   7.558  1.00 41.76     0.002 C 
ATOM     12  CG2 VAL A 134     -32.238 132.561   9.629  1.00 40.56     0.002 C 
ENDBRANCH   9  10
END_RES VAL A 134
BEGIN_RES TYR A 338
REMARK  3 active torsions:
REMARK  status: ('A' for Active; 'I' for Inactive)
REMARK    4  A    between atoms: CA   and  CB  
REMARK    5  A    between atoms: CB   and  CG  
REMARK    6  A    between atoms: CZ   and  OH  
ROOT
ATOM     13  CA  TYR A 338     -41.631 124.950   6.058  1.00 38.23     0.164 C 
ENDROOT
BRANCH  13  14
ATOM     14  CB  TYR A 338     -41.621 126.456   6.339  1.00 39.15     0.058 C 
BRANCH  14  15
ATOM     15  CG  TYR A 338     -40.427 127.215   5.808  1.00 39.03    -0.020 A 
ATOM     16  CD2 TYR A 338     -40.256 128.555   6.111  1.00 40.65    -0.002 A 
ATOM     17  CE2 TYR A 338     -39.181 129.285   5.628  1.00 40.91     0.024 A 
ATOM     18  CZ  TYR A 338     -38.244 128.673   4.818  1.00 42.33     0.089 A 
ATOM     19  CE1 TYR A 338     -38.390 127.333   4.504  1.00 40.63     0.024 A 
ATOM     20  CD1 TYR A 338     -39.479 126.623   4.986  1.00 39.27    -0.002 A 
BRANCH  18  21
ATOM     21  OH  TYR A 338     -37.178 129.382   4.339  1.00 43.36    -0.359 OA
ATOM     22  HH  TYR A 338     -36.459 128.936   3.906  1.00  0.00     0.217 HD
ENDBRANCH  18  21
ENDBRANCH  14  15
ENDBRANCH  13  14
END_RES TYR A 338
ENDMDL
MODEL 2
REMARK VINA RESULT:    -8.228      1.324     16.821
REMARK INTER + INTRA:         -10.893
REMARK INTER:                 -10.581
REMARK INTRA:                  -0.312
REMARK UNBOUND:                -2.665
REMARK  0 active torsions:
REMARK  status: ('A' for Active; 'I' for Inactive)
REMARK       I    between atoms: C3_3  and  O3_21 
REMARK       I    between atoms: C6_6  and  C7_7 
REMARK       I    between atoms: C8_8  and  C9_9 
REMARK       I    between atoms: C10_10  and  C11_11 
REMARK       I    between atoms: C12_12  and  C13_13 
REMARK       I    between atoms: C14_14  and  C15_15 
REMARK       I    between atoms: C23_25  and  O23_43 
REMARK       I    between atoms: C26_28  and  C27_29 
REMARK       I    between atoms: C28_30  and  C29_31 
REMARK       I    between atoms: C30_32  and  C31_33 
REMARK       I    between atoms: C32_34  and  C33_35 
REMARK       I    between atoms: C34_36  and  C35_37 
ROOT
HETATM    1  C1  VFQ 7 621     -49.742 145.171  12.747  1.00 16.14    -0.018 C 
HETATM    2  C2  VFQ 7 621     -50.488 145.640  13.995  1.00 16.14     0.045 C 
HETATM    3  C3  VFQ 7 621     -49.712 146.516  14.963  1.00 16.14     0.123 C 
HETATM    4  C4  VFQ 7 621     -48.892 147.537  14.211  1.00 16.14     0.066 C 
HETATM    5  C5  VFQ 7 621     -47.939 146.799  13.321  1.00 16.14    -0.074 C 
HETATM    6  C6  VFQ 7 621     -48.369 145.791  12.553  1.00 16.14    -0.048 C 
HETATM    7  C7  VFQ 7 621     -47.501 145.285  11.465  1.00 16.14     0.009 C 
HETATM    8  C8  VFQ 7 621     -46.547 144.368  11.648  1.00 16.14     0.007 C 
HETATM    9  C9  VFQ 7 621     -45.715 143.917  10.525  1.00 16.14    -0.062 C 
HETATM   10  C10 VFQ 7 621     -44.809 142.954  10.761  1.00 16.14     0.007 C 
HETATM   11  C11 VFQ 7 621     -43.885 142.347   9.800  1.00 16.14     0.001 C 
HETATM   12  C12 VFQ 7 621     -42.978 141.521  10.315  1.00 16.14     0.007 C 
HETATM   13  C13 VFQ 7 621     -41.987 140.758   9.534  1.00 16.14    -0.062 C 
HETATM   14  C14 VFQ 7 621     -41.489 139.664  10.123  1.00 16.14     0.007 C 
HETATM   15  C15 VFQ 7 621     -40.555 138.740   9.493  1.00 16.14     0.001 C 
HETATM   16  C16 VFQ 7 621     -50.650 145.446  11.553  1.00 16.14     0.020 C 
HETATM   17  C17 VFQ 7 621     -49.528 143.670  12.856  1.00 16.14     0.020 C 
HETATM   18  C18 VFQ 7 621     -46.739 147.631  12.972  1.00 16.14     0.044 C 
HETATM   19  C19 VFQ 7 621     -45.888 144.579   9.198  1.00 16.14     0.048 C 
HETATM   20  C20 VFQ 7 621     -41.575 141.156   8.151  1.00 16.14     0.048 C 
HETATM   21  O3  VFQ 7 621     -50.629 147.206  15.815  1.00 16.14    -0.395 OA
ATOM     22  H3  VFQ 7 621     -50.144 147.754  16.420  1.00  0.00     0.210 HD
HETATM   23  C21 VFQ 7 621     -34.108 128.144   6.998  1.00 13.13    -0.018 C 
HETATM   24  C22 VFQ 7 621     -33.337 127.403   5.916  1.00 13.13     0.045 C 
HETATM   25  C23 VFQ 7 621     -31.863 127.728   5.843  1.00 13.13     0.123 C 
HETATM   26  C24 VFQ 7 621     -31.679 129.221   5.757  1.00 13.13     0.066 C 
HETATM   27  C25 VFQ 7 621     -32.354 129.917   6.905  1.00 13.13    -0.074 C 
HETATM   28  C26 VFQ 7 621     -33.509 129.474   7.430  1.00 13.13    -0.048 C 
HETATM   29  C27 VFQ 7 621     -34.227 130.225   8.499  1.00 13.13     0.009 C 
HETATM   30  C28 VFQ 7 621     -35.035 131.272   8.287  1.00 13.13     0.007 C 
HETATM   31  C29 VFQ 7 621     -35.730 131.962   9.380  1.00 16.14    -0.062 C 
HETATM   32  C30 VFQ 7 621     -36.740 132.768   9.042  1.00 16.14     0.007 C 
HETATM   33  C31 VFQ 7 621     -37.527 133.532   9.998  1.00 16.14     0.001 C 
HETATM   34  C32 VFQ 7 621     -38.140 134.584   9.476  1.00 16.14     0.007 C 
HETATM   35  C33 VFQ 7 621     -38.985 135.528  10.219  1.00 16.14    -0.062 C 
HETATM   36  C34 VFQ 7 621     -39.457 136.582   9.540  1.00 16.14     0.007 C 
HETATM   37  C35 VFQ 7 621     -40.332 137.590  10.123  1.00 16.14     0.001 C 
HETATM   38  C36 VFQ 7 621     -34.154 127.262   8.237  1.00 13.13     0.020 C 
HETATM   39  C37 VFQ 7 621     -35.509 128.330   6.439  1.00 13.13     0.020 C 
HETATM   40  C38 VFQ 7 621     -31.635 131.123   7.426  1.00 13.13     0.044 C 
HETATM   41  C39 VFQ 7 621     -35.324 131.765  10.807  1.00 16.14     0.048 C 
HETATM   42  C40 VFQ 7 621     -39.267 135.328  11.675  1.00 16.14     0.048 C 
HETATM   43  O23 VFQ 7 621     -31.330 127.141   4.655  1.00 13.13    -0.395 OA
ATOM     44  H23 VFQ 7 621     -30.404 127.345   4.610  1.00  0.00     0.210 HD
ENDROOT
TORSDOF 12
BEGIN_RES PHE A  61
REMARK  2 active torsions:
REMARK  status: ('A' for Active; 'I' for Inactive)
REMARK    1  A    between atoms: CA   and  CB  
REMARK    2  A    between atoms: CB   and  CG  
ROOT
ATOM      1  CA  PHE A  61     -36.237 128.293  12.768  1.00 39.40     0.164 C 
ENDROOT
BRANCH   1   2
ATOM      2  CB  PHE A  61     -36.813 128.951  11.509  1.00 39.41     0.058 C 
BRANCH   2   3
ATOM      3  CG  PHE A  61     -37.024 128.005  10.351  1.00 39.01    -0.020 A 
ATOM      4  CD2 PHE A  61     -36.290 126.834  10.246  1.00 40.32    -0.004 A 
ATOM      5  CE2 PHE A  61     -36.483 125.966   9.179  1.00 40.20    -0.000 A 
ATOM      6  CZ  PHE A  61     -37.414 126.256   8.208  1.00 40.34    -0.000 A 
ATOM      7  CE1 PHE A  61     -38.153 127.415   8.299  1.00 41.51    -0.000 A 
ATOM      8  CD1 PHE A  61     -37.956 128.287   9.362  1.00 39.94    -0.004 A 
ENDBRANCH   2   3
ENDBRANCH   1   2
END_RES PHE A  61
BEGIN_RES VAL A 134
REMARK  1 active torsions:
REMARK  status: ('A' for Active; 'I' for Inactive)
REMARK    3  A    between atoms: CA   and  CB  
ROOT
ATOM      9  CA  VAL A 134     -29.766 132.051   9.815  1.00 40.75     0.159 C 
ENDROOT
BRANCH   9  10
ATOM     10  CB  VAL A 134     -30.864 132.765   9.009  1.00 40.76     0.029 C 
ATOM     11  CG1 VAL A 134     -32.107 132.975   9.861  1.00 41.76     0.002 C 
ATOM     12  CG2 VAL A 134     -30.372 134.086   8.437  1.00 40.56     0.002 C 
ENDBRANCH   9  10
END_RES VAL A 134
BEGIN_RES TYR A 338
REMARK  3 active torsions:
REMARK  status: ('A' for Active; 'I' for Inactive)
REMARK    4  A    between atoms: CA   and  CB  
REMARK    5  A    between atoms: CB   and  CG  
REMARK    6  A    between atoms: CZ   and  OH  
ROOT
ATOM     13  CA  TYR A 338     -41.631 124.950   6.058  1.00 38.23     0.164 C 
ENDROOT
BRANCH  13  14
ATOM     14  CB  TYR A 338     -41.621 126.456   6.339  1.00 39.15     0.058 C 
BRANCH  14  15
ATOM     15  CG  TYR A 338     -40.422 127.213   5.815  1.00 39.03    -0.020 A 
ATOM     16  CD2 TYR A 338     -40.265 128.559   6.098  1.00 40.65    -0.002 A 
ATOM     17  CE2 TYR A 338     -39.187 129.288   5.621  1.00 40.91     0.024 A 
ATOM     18  CZ  TYR A 338     -38.233 128.668   4.837  1.00 42.33     0.089 A 
ATOM     19  CE1 TYR A 338     -38.365 127.323   4.544  1.00 40.63     0.024 A 
ATOM     20  CD1 TYR A 338     -39.458 126.614   5.020  1.00 39.27    -0.002 A 
BRANCH  18  21
ATOM     21  OH  TYR A 338     -37.163 129.377   4.365  1.00 43.36    -0.359 OA
ATOM     22  HH  TYR A 338     -36.723 130.010   4.920  1.00  0.00     0.217 HD
ENDBRANCH  18  21
ENDBRANCH  14  15
ENDBRANCH  13  14
END_RES TYR A 338
ENDMDL
