MODEL 1
REMARK VINA RESULT:   -12.677      0.000      0.000
REMARK INTER + INTRA:         -12.653
REMARK INTER:                 -12.677
REMARK INTRA:                   0.024
REMARK UNBOUND:                 0.024
REMARK  0 active torsions:
REMARK  status: ('A' for Active; 'I' for Inactive)
REMARK       I    between atoms: C3_3  and  O3_21 
REMARK       I    between atoms: C6_6  and  C7_7 
REMARK       I    between atoms: C8_8  and  C9_9 
REMARK       I    between atoms: C10_10  and  C11_11 
REMARK       I    between atoms: C12_12  and  C13_13 
REMARK       I    between atoms: C14_14  and  C15_15 
REMARK       I    between atoms: C23_25  and  O23_43 
REMARK       I    between atoms: C26_28  and  C27_29 
REMARK       I    between atoms: C28_30  and  C29_31 
REMARK       I    between atoms: C30_32  and  C31_33 
REMARK       I    between atoms: C32_34  and  C33_35 
REMARK       I    between atoms: C34_36  and  C35_37 
ROOT
HETATM    1  C1  VFQ G1620     -50.291 144.670  11.130  1.00 59.27    -0.018 C 
HETATM    2  C2  VFQ G1620     -51.208 145.229  12.206  1.00 64.60     0.045 C 
HETATM    3  C3  VFQ G1620     -50.513 146.030  13.285  1.00 63.28     0.123 C 
HETATM    4  C4  VFQ G1620     -49.694 147.130  12.662  1.00 61.00     0.066 C 
HETATM    5  C5  VFQ G1620     -48.720 146.553  11.674  1.00 64.87    -0.074 C 
HETATM    6  C6  VFQ G1620     -48.998 145.453  10.946  1.00 63.96    -0.048 C 
HETATM    7  C7  VFQ G1620     -48.061 144.984   9.890  1.00 64.82     0.009 C 
HETATM    8  C8  VFQ G1620     -47.014 144.195  10.151  1.00 58.91     0.007 C 
HETATM    9  C9  VFQ G1620     -46.100 143.724   9.109  1.00 59.76    -0.062 C 
HETATM   10  C10 VFQ G1620     -45.153 142.874   9.514  1.00 59.44     0.007 C 
HETATM   11  C11 VFQ G1620     -44.142 142.262   8.673  1.00 53.66     0.001 C 
HETATM   12  C12 VFQ G1620     -43.452 141.321   9.297  1.00 59.47     0.007 C 
HETATM   13  C13 VFQ G1620     -42.394 140.534   8.656  1.00 64.69    -0.062 C 
HETATM   14  C14 VFQ G1620     -41.896 139.505   9.346  1.00 66.67     0.007 C 
HETATM   15  C15 VFQ G1620     -40.869 138.630   8.801  1.00 73.65     0.001 C 
HETATM   16  C16 VFQ G1620     -51.137 144.613   9.863  1.00 56.55     0.020 C 
HETATM   17  C17 VFQ G1620     -49.892 143.255  11.522  1.00 59.14     0.020 C 
HETATM   18  C18 VFQ G1620     -47.493 147.396  11.460  1.00 61.00     0.044 C 
HETATM   19  C19 VFQ G1620     -46.234 144.200   7.694  1.00 55.95     0.048 C 
HETATM   20  C20 VFQ G1620     -41.914 140.873   7.279  1.00 67.83     0.048 C 
HETATM   21  O3  VFQ G1620     -51.497 146.611  14.143  1.00 73.40    -0.395 OA
ATOM     22  H3  VFQ G1620     -51.061 147.114  14.821  1.00  0.00     0.210 HD
HETATM   23  C21 VFQ G1620     -34.014 128.065   7.349  1.00 21.58    -0.018 C 
HETATM   24  C22 VFQ G1620     -33.221 127.205   6.342  1.00 21.20     0.045 C 
HETATM   25  C23 VFQ G1620     -31.912 127.727   5.744  1.00 20.61     0.123 C 
HETATM   26  C24 VFQ G1620     -31.588 129.199   6.048  1.00 19.82     0.066 C 
HETATM   27  C25 VFQ G1620     -32.310 129.954   7.121  1.00 19.81    -0.074 C 
HETATM   28  C26 VFQ G1620     -33.442 129.480   7.751  1.00 19.95    -0.048 C 
HETATM   29  C27 VFQ G1620     -34.183 130.213   8.819  1.00 17.10     0.009 C 
HETATM   30  C28 VFQ G1620     -35.070 131.206   8.588  1.00 17.58     0.007 C 
HETATM   31  C29 VFQ G1620     -35.827 131.979   9.536  1.00 93.82    -0.062 C 
HETATM   32  C30 VFQ G1620     -36.661 132.884   9.028  1.00 83.29     0.007 C 
HETATM   33  C31 VFQ G1620     -37.533 133.734   9.814  1.00 75.18     0.001 C 
HETATM   34  C32 VFQ G1620     -38.151 134.670   9.116  1.00 71.38     0.007 C 
HETATM   35  C33 VFQ G1620     -39.105 135.599   9.729  1.00 70.67    -0.062 C 
HETATM   36  C34 VFQ G1620     -39.605 136.578   8.967  1.00 74.09     0.007 C 
HETATM   37  C35 VFQ G1620     -40.589 137.521   9.475  1.00 74.87     0.001 C 
HETATM   38  C36 VFQ G1620     -34.218 127.193   8.610  1.00 19.38     0.020 C 
HETATM   39  C37 VFQ G1620     -35.382 128.209   6.644  1.00 19.65     0.020 C 
HETATM   40  C38 VFQ G1620     -31.582 131.226   7.367  1.00 20.06     0.044 C 
HETATM   41  C39 VFQ G1620     -35.680 131.753  11.010  1.00 99.93     0.048 C 
HETATM   42  C40 VFQ G1620     -39.515 135.418  11.155  1.00 65.73     0.048 C 
HETATM   43  O23 VFQ G1620     -31.887 127.501   4.343  1.00 18.88    -0.395 OA
ATOM     44  H23 VFQ G1620     -31.074 127.825   3.971  1.00  0.00     0.210 HD
ENDROOT
TORSDOF 12
BEGIN_RES PHE A  61
REMARK  2 active torsions:
REMARK  status: ('A' for Active; 'I' for Inactive)
REMARK    1  A    between atoms: CA   and  CB  
REMARK    2  A    between atoms: CB   and  CG  
ROOT
ATOM      1  CA  PHE A  61     -36.237 128.293  12.768  1.00 39.40     0.164 C 
ENDROOT
BRANCH   1   2
ATOM      2  CB  PHE A  61     -36.813 128.951  11.509  1.00 39.41     0.058 C 
BRANCH   2   3
ATOM      3  CG  PHE A  61     -37.055 127.999  10.362  1.00 39.01    -0.020 A 
ATOM      4  CD2 PHE A  61     -36.377 126.793  10.284  1.00 40.32    -0.004 A 
ATOM      5  CE2 PHE A  61     -36.598 125.919   9.226  1.00 40.20    -0.000 A 
ATOM      6  CZ  PHE A  61     -37.502 126.239   8.239  1.00 40.34    -0.000 A 
ATOM      7  CE1 PHE A  61     -38.185 127.433   8.304  1.00 41.51    -0.000 A 
ATOM      8  CD1 PHE A  61     -37.959 128.310   9.357  1.00 39.94    -0.004 A 
ENDBRANCH   2   3
ENDBRANCH   1   2
END_RES PHE A  61
BEGIN_RES VAL A 134
REMARK  1 active torsions:
REMARK  status: ('A' for Active; 'I' for Inactive)
REMARK    3  A    between atoms: CA   and  CB  
ROOT
ATOM      9  CA  VAL A 134     -29.766 132.051   9.815  1.00 40.75     0.159 C 
ENDROOT
BRANCH   9  10
ATOM     10  CB  VAL A 134     -30.864 132.765   9.009  1.00 40.76     0.029 C 
ATOM     11  CG1 VAL A 134     -32.108 132.972   9.860  1.00 41.76     0.002 C 
ATOM     12  CG2 VAL A 134     -30.373 134.087   8.440  1.00 40.56     0.002 C 
ENDBRANCH   9  10
END_RES VAL A 134
BEGIN_RES TYR A 338
REMARK  3 active torsions:
REMARK  status: ('A' for Active; 'I' for Inactive)
REMARK    4  A    between atoms: CA   and  CB  
REMARK    5  A    between atoms: CB   and  CG  
REMARK    6  A    between atoms: CZ   and  OH  
ROOT
ATOM     13  CA  TYR A 338     -41.631 124.950   6.058  1.00 38.23     0.164 C 
ENDROOT
BRANCH  13  14
ATOM     14  CB  TYR A 338     -41.621 126.456   6.339  1.00 39.15     0.058 C 
BRANCH  14  15
ATOM     15  CG  TYR A 338     -40.414 127.210   5.831  1.00 39.03    -0.020 A 
ATOM     16  CD2 TYR A 338     -40.259 128.557   6.112  1.00 40.65    -0.002 A 
ATOM     17  CE2 TYR A 338     -39.173 129.283   5.650  1.00 40.91     0.024 A 
ATOM     18  CZ  TYR A 338     -38.207 128.660   4.882  1.00 42.33     0.089 A 
ATOM     19  CE1 TYR A 338     -38.337 127.313   4.592  1.00 40.63     0.024 A 
ATOM     20  CD1 TYR A 338     -39.437 126.608   5.053  1.00 39.27    -0.002 A 
BRANCH  18  21
ATOM     21  OH  TYR A 338     -37.130 129.365   4.424  1.00 43.36    -0.359 OA
ATOM     22  HH  TYR A 338     -36.951 129.419   3.493  1.00  0.00     0.217 HD
ENDBRANCH  18  21
ENDBRANCH  14  15
ENDBRANCH  13  14
END_RES TYR A 338
ENDMDL
MODEL 2
REMARK VINA RESULT:   -11.202      1.126     16.663
REMARK INTER + INTRA:         -11.178
REMARK INTER:                  -8.213
REMARK INTRA:                  -2.965
REMARK UNBOUND:                 0.024
REMARK  0 active torsions:
REMARK  status: ('A' for Active; 'I' for Inactive)
REMARK       I    between atoms: C3_3  and  O3_21 
REMARK       I    between atoms: C6_6  and  C7_7 
REMARK       I    between atoms: C8_8  and  C9_9 
REMARK       I    between atoms: C10_10  and  C11_11 
REMARK       I    between atoms: C12_12  and  C13_13 
REMARK       I    between atoms: C14_14  and  C15_15 
REMARK       I    between atoms: C23_25  and  O23_43 
REMARK       I    between atoms: C26_28  and  C27_29 
REMARK       I    between atoms: C28_30  and  C29_31 
REMARK       I    between atoms: C30_32  and  C31_33 
REMARK       I    between atoms: C32_34  and  C33_35 
REMARK       I    between atoms: C34_36  and  C35_37 
ROOT
HETATM    1  C1  VFQ G1620     -34.418 126.875   6.229  1.00 59.27    -0.018 C 
HETATM    2  C2  VFQ G1620     -33.854 126.084   5.060  1.00 64.60     0.045 C 
HETATM    3  C3  VFQ G1620     -32.899 126.852   4.172  1.00 63.28     0.123 C 
HETATM    4  C4  VFQ G1620     -31.787 127.439   5.001  1.00 61.00     0.066 C 
HETATM    5  C5  VFQ G1620     -32.356 128.302   6.092  1.00 64.87    -0.074 C 
HETATM    6  C6  VFQ G1620     -33.538 128.031   6.682  1.00 63.96    -0.048 C 
HETATM    7  C7  VFQ G1620     -34.010 128.834   7.842  1.00 64.82     0.009 C 
HETATM    8  C8  VFQ G1620     -34.671 129.988   7.701  1.00 58.91     0.007 C 
HETATM    9  C9  VFQ G1620     -35.146 130.771   8.842  1.00 59.76    -0.062 C 
HETATM   10  C10 VFQ G1620     -35.864 131.856   8.539  1.00 59.44     0.007 C 
HETATM   11  C11 VFQ G1620     -36.452 132.780   9.490  1.00 53.66     0.001 C 
HETATM   12  C12 VFQ G1620     -37.265 133.656   8.921  1.00 59.47     0.007 C 
HETATM   13  C13 VFQ G1620     -38.004 134.678   9.669  1.00 64.69    -0.062 C 
HETATM   14  C14 VFQ G1620     -38.916 135.386   8.998  1.00 66.67     0.007 C 
HETATM   15  C15 VFQ G1620     -39.736 136.401   9.641  1.00 73.65     0.001 C 
HETATM   16  C16 VFQ G1620     -34.667 125.850   7.331  1.00 56.55     0.020 C 
HETATM   17  C17 VFQ G1620     -35.749 127.478   5.807  1.00 59.14     0.020 C 
HETATM   18  C18 VFQ G1620     -31.425 129.382   6.568  1.00 61.00     0.044 C 
HETATM   19  C19 VFQ G1620     -34.813 130.365  10.247  1.00 55.95     0.048 C 
HETATM   20  C20 VFQ G1620     -37.746 134.896  11.128  1.00 67.83     0.048 C 
HETATM   21  O3  VFQ G1620     -32.338 125.958   3.208  1.00 73.40    -0.395 OA
ATOM     22  H3  VFQ G1620     -31.737 126.440   2.650  1.00  0.00     0.210 HD
HETATM   23  C21 VFQ G1620     -49.703 144.029  11.434  1.00 21.58    -0.018 C 
HETATM   24  C22 VFQ G1620     -50.571 144.741  12.493  1.00 21.20     0.045 C 
HETATM   25  C23 VFQ G1620     -49.984 145.876  13.336  1.00 20.61     0.123 C 
HETATM   26  C24 VFQ G1620     -48.467 146.084  13.199  1.00 19.82     0.066 C 
HETATM   27  C25 VFQ G1620     -47.690 145.464  12.079  1.00 19.81    -0.074 C 
HETATM   28  C26 VFQ G1620     -48.210 144.503  11.237  1.00 19.95    -0.048 C 
HETATM   29  C27 VFQ G1620     -47.457 143.866  10.117  1.00 17.10     0.009 C 
HETATM   30  C28 VFQ G1620     -46.575 142.853  10.269  1.00 17.58     0.007 C 
HETATM   31  C29 VFQ G1620     -45.795 142.177   9.269  1.00 93.82    -0.062 C 
HETATM   32  C30 VFQ G1620     -45.021 141.181   9.695  1.00 83.29     0.007 C 
HETATM   33  C31 VFQ G1620     -44.189 140.359   8.840  1.00 75.18     0.001 C 
HETATM   34  C32 VFQ G1620     -43.381 139.541   9.493  1.00 71.38     0.007 C 
HETATM   35  C33 VFQ G1620     -42.494 138.603   8.799  1.00 70.67    -0.062 C 
HETATM   36  C34 VFQ G1620     -41.638 137.888   9.537  1.00 74.09     0.007 C 
HETATM   37  C35 VFQ G1620     -40.749 136.901   8.944  1.00 74.87     0.001 C 
HETATM   38  C36 VFQ G1620     -50.473 144.121  10.097  1.00 19.38     0.020 C 
HETATM   39  C37 VFQ G1620     -49.751 142.560  11.911  1.00 19.65     0.020 C 
HETATM   40  C38 VFQ G1620     -46.339 146.082  12.051  1.00 20.06     0.044 C 
HETATM   41  C39 VFQ G1620     -45.873 142.577   7.827  1.00 99.93     0.048 C 
HETATM   42  C40 VFQ G1620     -42.584 138.444   7.316  1.00 65.73     0.048 C 
HETATM   43  O23 VFQ G1620     -50.332 145.704  14.702  1.00 18.88    -0.395 OA
ATOM     44  H23 VFQ G1620     -49.968 146.408  15.226  1.00  0.00     0.210 HD
ENDROOT
TORSDOF 12
BEGIN_RES PHE A  61
REMARK  2 active torsions:
REMARK  status: ('A' for Active; 'I' for Inactive)
REMARK    1  A    between atoms: CA   and  CB  
REMARK    2  A    between atoms: CB   and  CG  
ROOT
ATOM      1  CA  PHE A  61     -36.237 128.293  12.768  1.00 39.40     0.164 C 
ENDROOT
BRANCH   1   2
ATOM      2  CB  PHE A  61     -36.813 128.951  11.509  1.00 39.41     0.058 C 
BRANCH   2   3
ATOM      3  CG  PHE A  61     -37.041 128.001  10.357  1.00 39.01    -0.020 A 
ATOM      4  CD2 PHE A  61     -36.316 126.825  10.250  1.00 40.32    -0.004 A 
ATOM      5  CE2 PHE A  61     -36.525 125.954   9.188  1.00 40.20    -0.000 A 
ATOM      6  CZ  PHE A  61     -37.463 126.247   8.225  1.00 40.34    -0.000 A 
ATOM      7  CE1 PHE A  61     -38.194 127.410   8.318  1.00 41.51    -0.000 A 
ATOM      8  CD1 PHE A  61     -37.981 128.285   9.376  1.00 39.94    -0.004 A 
ENDBRANCH   2   3
ENDBRANCH   1   2
END_RES PHE A  61
BEGIN_RES VAL A 134
REMARK  1 active torsions:
REMARK  status: ('A' for Active; 'I' for Inactive)
REMARK    3  A    between atoms: CA   and  CB  
ROOT
ATOM      9  CA  VAL A 134     -29.766 132.051   9.815  1.00 40.75     0.159 C 
ENDROOT
BRANCH   9  10
ATOM     10  CB  VAL A 134     -30.864 132.765   9.009  1.00 40.76     0.029 C 
ATOM     11  CG1 VAL A 134     -31.174 132.002   7.729  1.00 41.76     0.002 C 
ATOM     12  CG2 VAL A 134     -32.124 132.969   9.836  1.00 40.56     0.002 C 
ENDBRANCH   9  10
END_RES VAL A 134
BEGIN_RES TYR A 338
REMARK  3 active torsions:
REMARK  status: ('A' for Active; 'I' for Inactive)
REMARK    4  A    between atoms: CA   and  CB  
REMARK    5  A    between atoms: CB   and  CG  
REMARK    6  A    between atoms: CZ   and  OH  
ROOT
ATOM     13  CA  TYR A 338     -41.631 124.950   6.058  1.00 38.23     0.164 C 
ENDROOT
BRANCH  13  14
ATOM     14  CB  TYR A 338     -41.621 126.456   6.339  1.00 39.15     0.058 C 
BRANCH  14  15
ATOM     15  CG  TYR A 338     -40.427 127.215   5.807  1.00 39.03    -0.020 A 
ATOM     16  CD2 TYR A 338     -40.251 128.552   6.119  1.00 40.65    -0.002 A 
ATOM     17  CE2 TYR A 338     -39.176 129.283   5.636  1.00 40.91     0.024 A 
ATOM     18  CZ  TYR A 338     -38.244 128.673   4.817  1.00 42.33     0.089 A 
ATOM     19  CE1 TYR A 338     -38.396 127.336   4.496  1.00 40.63     0.024 A 
ATOM     20  CD1 TYR A 338     -39.485 126.626   4.978  1.00 39.27    -0.002 A 
BRANCH  18  21
ATOM     21  OH  TYR A 338     -37.178 129.383   4.339  1.00 43.36    -0.359 OA
ATOM     22  HH  TYR A 338     -36.884 129.262   3.444  1.00  0.00     0.217 HD
ENDBRANCH  18  21
ENDBRANCH  14  15
ENDBRANCH  13  14
END_RES TYR A 338
ENDMDL
