MODEL 1
REMARK VINA RESULT:   -12.039      0.000      0.000
REMARK INTER + INTRA:         -14.670
REMARK INTER:                 -12.039
REMARK INTRA:                  -2.631
REMARK UNBOUND:                -2.631
REMARK  0 active torsions:
REMARK  status: ('A' for Active; 'I' for Inactive)
REMARK       I    between atoms: C3_3  and  O3_21 
REMARK       I    between atoms: C6_6  and  C7_7 
REMARK       I    between atoms: C8_8  and  C9_9 
REMARK       I    between atoms: C10_10  and  C11_11 
REMARK       I    between atoms: C12_12  and  C13_13 
REMARK       I    between atoms: C14_14  and  C15_15 
REMARK       I    between atoms: C23_25  and  O23_43 
REMARK       I    between atoms: C26_28  and  C27_29 
REMARK       I    between atoms: C28_30  and  C29_31 
REMARK       I    between atoms: C30_32  and  C31_33 
REMARK       I    between atoms: C32_34  and  C33_35 
REMARK       I    between atoms: C34_36  and  C35_37 
ROOT
HETATM    1  C1  VFQ S1621     -34.317 127.000   6.460  1.00 56.99    -0.018 C 
HETATM    2  C2  VFQ S1621     -34.027 126.522   5.039  1.00 56.99     0.045 C 
HETATM    3  C3  VFQ S1621     -32.929 127.233   4.260  1.00 56.99     0.123 C 
HETATM    4  C4  VFQ S1621     -31.843 127.763   5.174  1.00 56.99     0.066 C 
HETATM    5  C5  VFQ S1621     -32.473 128.638   6.219  1.00 56.99    -0.074 C 
HETATM    6  C6  VFQ S1621     -33.584 128.268   6.855  1.00 56.99    -0.048 C 
HETATM    7  C7  VFQ S1621     -34.102 129.096   7.976  1.00 56.99     0.009 C 
HETATM    8  C8  VFQ S1621     -35.027 130.037   7.780  1.00 56.99     0.007 C 
HETATM    9  C9  VFQ S1621     -35.585 130.889   8.847  1.00 56.99    -0.062 C 
HETATM   10  C10 VFQ S1621     -36.493 131.798   8.486  1.00 56.99     0.007 C 
HETATM   11  C11 VFQ S1621     -37.146 132.722   9.401  1.00 56.99     0.001 C 
HETATM   12  C12 VFQ S1621     -37.788 133.728   8.821  1.00 56.99     0.007 C 
HETATM   13  C13 VFQ S1621     -38.541 134.750   9.561  1.00 56.99    -0.062 C 
HETATM   14  C14 VFQ S1621     -39.275 135.605   8.842  1.00 56.99     0.007 C 
HETATM   15  C15 VFQ S1621     -40.103 136.639   9.439  1.00 56.99     0.001 C 
HETATM   16  C16 VFQ S1621     -34.016 125.850   7.419  1.00 56.99     0.020 C 
HETATM   17  C17 VFQ S1621     -35.799 127.305   6.542  1.00 56.99     0.020 C 
HETATM   18  C18 VFQ S1621     -31.655 129.803   6.677  1.00 56.99     0.044 C 
HETATM   19  C19 VFQ S1621     -35.156 130.765  10.274  1.00 56.99     0.048 C 
HETATM   20  C20 VFQ S1621     -38.497 134.821  11.056  1.00 56.99     0.048 C 
HETATM   21  O3  VFQ S1621     -32.334 126.302   3.351  1.00 56.99    -0.395 OA
ATOM     22  H3  VFQ S1621     -33.014 125.969   2.777  1.00  0.00     0.210 HD
HETATM   23  C21 VFQ S1621     -49.687 145.076   9.735  1.00 71.46    -0.018 C 
HETATM   24  C22 VFQ S1621     -50.551 145.835  10.726  1.00 75.98     0.045 C 
HETATM   25  C23 VFQ S1621     -49.885 146.911  11.555  1.00 84.37     0.123 C 
HETATM   26  C24 VFQ S1621     -48.576 146.429  12.112  1.00 79.68     0.066 C 
HETATM   27  C25 VFQ S1621     -47.702 145.945  10.996  1.00 81.86    -0.074 C 
HETATM   28  C26 VFQ S1621     -48.189 145.218   9.978  1.00 72.92    -0.048 C 
HETATM   29  C27 VFQ S1621     -47.257 144.560   9.033  1.00 76.42     0.009 C 
HETATM   30  C28 VFQ S1621     -46.716 143.374   9.308  1.00 69.46     0.007 C 
HETATM   31  C29 VFQ S1621     -45.787 142.693   8.394  1.00 56.99    -0.062 C 
HETATM   32  C30 VFQ S1621     -45.279 141.564   8.873  1.00 56.99     0.007 C 
HETATM   33  C31 VFQ S1621     -44.369 140.677   8.172  1.00 56.99     0.001 C 
HETATM   34  C32 VFQ S1621     -43.491 140.032   8.923  1.00 56.99     0.007 C 
HETATM   35  C33 VFQ S1621     -42.559 139.064   8.343  1.00 56.99    -0.062 C 
HETATM   36  C34 VFQ S1621     -41.717 138.411   9.154  1.00 56.99     0.007 C 
HETATM   37  C35 VFQ S1621     -40.821 137.397   8.621  1.00 56.99     0.001 C 
HETATM   38  C36 VFQ S1621     -49.993 145.588   8.336  1.00 75.59     0.020 C 
HETATM   39  C37 VFQ S1621     -50.171 143.635   9.795  1.00 74.59     0.020 C 
HETATM   40  C38 VFQ S1621     -46.263 146.351  11.084  1.00 90.73     0.044 C 
HETATM   41  C39 VFQ S1621     -45.444 143.211   7.032  1.00 56.99     0.048 C 
HETATM   42  C40 VFQ S1621     -42.599 138.793   6.872  1.00 56.99     0.048 C 
HETATM   43  O23 VFQ S1621     -50.739 147.225  12.655  1.00 94.57    -0.395 OA
ATOM     44  H23 VFQ S1621     -50.321 147.900  13.175  1.00  0.00     0.210 HD
ENDROOT
TORSDOF 12
BEGIN_RES PHE A  61
REMARK  2 active torsions:
REMARK  status: ('A' for Active; 'I' for Inactive)
REMARK    1  A    between atoms: CA   and  CB  
REMARK    2  A    between atoms: CB   and  CG  
ROOT
ATOM      1  CA  PHE A  61     -36.237 128.293  12.768  1.00 39.40     0.164 C 
ENDROOT
BRANCH   1   2
ATOM      2  CB  PHE A  61     -36.813 128.951  11.509  1.00 39.41     0.058 C 
BRANCH   2   3
ATOM      3  CG  PHE A  61     -37.068 127.997  10.367  1.00 39.01    -0.020 A 
ATOM      4  CD2 PHE A  61     -36.318 126.840  10.225  1.00 40.32    -0.004 A 
ATOM      5  CE2 PHE A  61     -36.551 125.964   9.172  1.00 40.20    -0.000 A 
ATOM      6  CZ  PHE A  61     -37.539 126.233   8.252  1.00 40.34    -0.000 A 
ATOM      7  CE1 PHE A  61     -38.295 127.377   8.381  1.00 41.51    -0.000 A 
ATOM      8  CD1 PHE A  61     -38.057 128.256   9.429  1.00 39.94    -0.004 A 
ENDBRANCH   2   3
ENDBRANCH   1   2
END_RES PHE A  61
BEGIN_RES VAL A 134
REMARK  1 active torsions:
REMARK  status: ('A' for Active; 'I' for Inactive)
REMARK    3  A    between atoms: CA   and  CB  
ROOT
ATOM      9  CA  VAL A 134     -29.766 132.051   9.815  1.00 40.75     0.159 C 
ENDROOT
BRANCH   9  10
ATOM     10  CB  VAL A 134     -30.864 132.765   9.009  1.00 40.76     0.029 C 
ATOM     11  CG1 VAL A 134     -30.851 132.306   7.558  1.00 41.76     0.002 C 
ATOM     12  CG2 VAL A 134     -32.238 132.560   9.629  1.00 40.56     0.002 C 
ENDBRANCH   9  10
END_RES VAL A 134
BEGIN_RES TYR A 338
REMARK  3 active torsions:
REMARK  status: ('A' for Active; 'I' for Inactive)
REMARK    4  A    between atoms: CA   and  CB  
REMARK    5  A    between atoms: CB   and  CG  
REMARK    6  A    between atoms: CZ   and  OH  
ROOT
ATOM     13  CA  TYR A 338     -41.631 124.950   6.058  1.00 38.23     0.164 C 
ENDROOT
BRANCH  13  14
ATOM     14  CB  TYR A 338     -41.621 126.456   6.339  1.00 39.15     0.058 C 
BRANCH  14  15
ATOM     15  CG  TYR A 338     -40.411 127.209   5.836  1.00 39.03    -0.020 A 
ATOM     16  CD2 TYR A 338     -40.234 128.545   6.155  1.00 40.65    -0.002 A 
ATOM     17  CE2 TYR A 338     -39.145 129.271   5.698  1.00 40.91     0.024 A 
ATOM     18  CZ  TYR A 338     -38.199 128.658   4.899  1.00 42.33     0.089 A 
ATOM     19  CE1 TYR A 338     -38.351 127.322   4.570  1.00 40.63     0.024 A 
ATOM     20  CD1 TYR A 338     -39.454 126.617   5.026  1.00 39.27    -0.002 A 
BRANCH  18  21
ATOM     21  OH  TYR A 338     -37.118 129.362   4.446  1.00 43.36    -0.359 OA
ATOM     22  HH  TYR A 338     -36.355 129.480   5.000  1.00  0.00     0.217 HD
ENDBRANCH  18  21
ENDBRANCH  14  15
ENDBRANCH  13  14
END_RES TYR A 338
ENDMDL
MODEL 2
REMARK VINA RESULT:    -9.049      1.334     16.731
REMARK INTER + INTRA:         -11.681
REMARK INTER:                 -11.479
REMARK INTRA:                  -0.202
REMARK UNBOUND:                -2.631
REMARK  0 active torsions:
REMARK  status: ('A' for Active; 'I' for Inactive)
REMARK       I    between atoms: C3_3  and  O3_21 
REMARK       I    between atoms: C6_6  and  C7_7 
REMARK       I    between atoms: C8_8  and  C9_9 
REMARK       I    between atoms: C10_10  and  C11_11 
REMARK       I    between atoms: C12_12  and  C13_13 
REMARK       I    between atoms: C14_14  and  C15_15 
REMARK       I    between atoms: C23_25  and  O23_43 
REMARK       I    between atoms: C26_28  and  C27_29 
REMARK       I    between atoms: C28_30  and  C29_31 
REMARK       I    between atoms: C30_32  and  C31_33 
REMARK       I    between atoms: C32_34  and  C33_35 
REMARK       I    between atoms: C34_36  and  C35_37 
ROOT
HETATM    1  C1  VFQ S1621     -49.706 145.412  11.931  1.00 56.99    -0.018 C 
HETATM    2  C2  VFQ S1621     -50.536 145.336  13.211  1.00 56.99     0.045 C 
HETATM    3  C3  VFQ S1621     -49.933 145.913  14.484  1.00 56.99     0.123 C 
HETATM    4  C4  VFQ S1621     -48.999 147.070  14.191  1.00 56.99     0.066 C 
HETATM    5  C5  VFQ S1621     -47.957 146.616  13.210  1.00 56.99    -0.074 C 
HETATM    6  C6  VFQ S1621     -48.284 145.898  12.136  1.00 56.99    -0.048 C 
HETATM    7  C7  VFQ S1621     -47.248 145.583  11.117  1.00 56.99     0.009 C 
HETATM    8  C8  VFQ S1621     -46.557 144.442  11.154  1.00 56.99     0.007 C 
HETATM    9  C9  VFQ S1621     -45.519 144.067  10.173  1.00 56.99    -0.062 C 
HETATM   10  C10 VFQ S1621     -44.905 142.897  10.358  1.00 56.99     0.007 C 
HETATM   11  C11 VFQ S1621     -43.859 142.368   9.494  1.00 56.99     0.001 C 
HETATM   12  C12 VFQ S1621     -43.178 141.347   9.997  1.00 56.99     0.007 C 
HETATM   13  C13 VFQ S1621     -42.107 140.645   9.275  1.00 56.99    -0.062 C 
HETATM   14  C14 VFQ S1621     -41.624 139.532   9.835  1.00 56.99     0.007 C 
HETATM   15  C15 VFQ S1621     -40.596 138.714   9.216  1.00 56.99     0.001 C 
HETATM   16  C16 VFQ S1621     -50.462 146.281  10.927  1.00 56.99     0.020 C 
HETATM   17  C17 VFQ S1621     -49.616 144.010  11.366  1.00 56.99     0.020 C 
HETATM   18  C18 VFQ S1621     -46.600 147.224  13.367  1.00 56.99     0.044 C 
HETATM   19  C19 VFQ S1621     -45.149 144.950   9.026  1.00 56.99     0.048 C 
HETATM   20  C20 VFQ S1621     -41.590 141.151   7.964  1.00 56.99     0.048 C 
HETATM   21  O3  VFQ S1621     -50.991 146.392  15.319  1.00 56.99    -0.395 OA
ATOM     22  H3  VFQ S1621     -51.577 145.667  15.503  1.00  0.00     0.210 HD
HETATM   23  C21 VFQ S1621     -33.982 127.973   7.209  1.00 71.46    -0.018 C 
HETATM   24  C22 VFQ S1621     -33.101 127.317   6.161  1.00 75.98     0.045 C 
HETATM   25  C23 VFQ S1621     -31.740 127.928   5.908  1.00 84.37     0.123 C 
HETATM   26  C24 VFQ S1621     -31.835 129.423   5.794  1.00 79.68     0.066 C 
HETATM   27  C25 VFQ S1621     -32.491 129.980   7.019  1.00 81.86    -0.074 C 
HETATM   28  C26 VFQ S1621     -33.552 129.385   7.588  1.00 72.92    -0.048 C 
HETATM   29  C27 VFQ S1621     -34.314 130.093   8.644  1.00 76.42     0.009 C 
HETATM   30  C28 VFQ S1621     -35.270 130.969   8.336  1.00 69.46     0.007 C 
HETATM   31  C29 VFQ S1621     -36.044 131.691   9.357  1.00 56.99    -0.062 C 
HETATM   32  C30 VFQ S1621     -36.892 132.587   8.867  1.00 56.99     0.007 C 
HETATM   33  C31 VFQ S1621     -37.801 133.411   9.643  1.00 56.99     0.001 C 
HETATM   34  C32 VFQ S1621     -38.055 134.615   9.156  1.00 56.99     0.007 C 
HETATM   35  C33 VFQ S1621     -39.001 135.518   9.813  1.00 56.99    -0.062 C 
HETATM   36  C34 VFQ S1621     -39.250 136.710   9.257  1.00 56.99     0.007 C 
HETATM   37  C35 VFQ S1621     -40.230 137.606   9.849  1.00 56.99     0.001 C 
HETATM   38  C36 VFQ S1621     -33.960 127.115   8.464  1.00 75.59     0.020 C 
HETATM   39  C37 VFQ S1621     -35.396 127.905   6.652  1.00 74.59     0.020 C 
HETATM   40  C38 VFQ S1621     -31.868 131.223   7.574  1.00 90.73     0.044 C 
HETATM   41  C39 VFQ S1621     -35.909 131.437  10.825  1.00 56.99     0.048 C 
HETATM   42  C40 VFQ S1621     -39.698 135.072  11.060  1.00 56.99     0.048 C 
HETATM   43  O23 VFQ S1621     -31.246 127.426   4.666  1.00 94.57    -0.395 OA
ATOM     44  H23 VFQ S1621     -30.392 127.809   4.507  1.00  0.00     0.210 HD
ENDROOT
TORSDOF 12
BEGIN_RES PHE A  61
REMARK  2 active torsions:
REMARK  status: ('A' for Active; 'I' for Inactive)
REMARK    1  A    between atoms: CA   and  CB  
REMARK    2  A    between atoms: CB   and  CG  
ROOT
ATOM      1  CA  PHE A  61     -36.237 128.293  12.768  1.00 39.40     0.164 C 
ENDROOT
BRANCH   1   2
ATOM      2  CB  PHE A  61     -36.813 128.951  11.509  1.00 39.41     0.058 C 
BRANCH   2   3
ATOM      3  CG  PHE A  61     -37.043 128.001  10.358  1.00 39.01    -0.020 A 
ATOM      4  CD2 PHE A  61     -36.344 126.808  10.270  1.00 40.32    -0.004 A 
ATOM      5  CE2 PHE A  61     -36.555 125.936   9.208  1.00 40.20    -0.000 A 
ATOM      6  CZ  PHE A  61     -37.468 126.246   8.227  1.00 40.34    -0.000 A 
ATOM      7  CE1 PHE A  61     -38.173 127.427   8.301  1.00 41.51    -0.000 A 
ATOM      8  CD1 PHE A  61     -37.958 128.302   9.359  1.00 39.94    -0.004 A 
ENDBRANCH   2   3
ENDBRANCH   1   2
END_RES PHE A  61
BEGIN_RES VAL A 134
REMARK  1 active torsions:
REMARK  status: ('A' for Active; 'I' for Inactive)
REMARK    3  A    between atoms: CA   and  CB  
ROOT
ATOM      9  CA  VAL A 134     -29.766 132.051   9.815  1.00 40.75     0.159 C 
ENDROOT
BRANCH   9  10
ATOM     10  CB  VAL A 134     -30.864 132.765   9.009  1.00 40.76     0.029 C 
ATOM     11  CG1 VAL A 134     -32.122 132.936   9.848  1.00 41.76     0.002 C 
ATOM     12  CG2 VAL A 134     -30.385 134.106   8.473  1.00 40.56     0.002 C 
ENDBRANCH   9  10
END_RES VAL A 134
BEGIN_RES TYR A 338
REMARK  3 active torsions:
REMARK  status: ('A' for Active; 'I' for Inactive)
REMARK    4  A    between atoms: CA   and  CB  
REMARK    5  A    between atoms: CB   and  CG  
REMARK    6  A    between atoms: CZ   and  OH  
ROOT
ATOM     13  CA  TYR A 338     -41.631 124.950   6.058  1.00 38.23     0.164 C 
ENDROOT
BRANCH  13  14
ATOM     14  CB  TYR A 338     -41.621 126.456   6.339  1.00 39.15     0.058 C 
BRANCH  14  15
ATOM     15  CG  TYR A 338     -40.413 127.210   5.833  1.00 39.03    -0.020 A 
ATOM     16  CD2 TYR A 338     -40.258 128.557   6.115  1.00 40.65    -0.002 A 
ATOM     17  CE2 TYR A 338     -39.171 129.283   5.654  1.00 40.91     0.024 A 
ATOM     18  CZ  TYR A 338     -38.204 128.659   4.888  1.00 42.33     0.089 A 
ATOM     19  CE1 TYR A 338     -38.333 127.312   4.598  1.00 40.63     0.024 A 
ATOM     20  CD1 TYR A 338     -39.435 126.607   5.057  1.00 39.27    -0.002 A 
BRANCH  18  21
ATOM     21  OH  TYR A 338     -37.125 129.364   4.432  1.00 43.36    -0.359 OA
ATOM     22  HH  TYR A 338     -36.731 129.151   3.594  1.00  0.00     0.217 HD
ENDBRANCH  18  21
ENDBRANCH  14  15
ENDBRANCH  13  14
END_RES TYR A 338
ENDMDL
