MODEL 1
REMARK VINA RESULT:   -10.197      0.000      0.000
REMARK INTER + INTRA:         -12.373
REMARK INTER:                 -10.197
REMARK INTRA:                  -2.176
REMARK UNBOUND:                -2.176
REMARK  0 active torsions:
REMARK  status: ('A' for Active; 'I' for Inactive)
REMARK       I    between atoms: C3_3  and  O3_21 
REMARK       I    between atoms: C6_6  and  C7_7 
REMARK       I    between atoms: C8_8  and  C9_9 
REMARK       I    between atoms: C10_10  and  C11_11 
REMARK       I    between atoms: C12_12  and  C13_13 
REMARK       I    between atoms: C14_14  and  C15_15 
REMARK       I    between atoms: C23_25  and  O23_43 
REMARK       I    between atoms: C26_28  and  C27_29 
REMARK       I    between atoms: C28_30  and  C29_31 
REMARK       I    between atoms: C30_32  and  C31_33 
REMARK       I    between atoms: C32_34  and  C33_35 
REMARK       I    between atoms: C34_36  and  C35_37 
ROOT
HETATM    1  C1  VFQ B1620     -49.131 144.392  12.246  1.00 19.90    -0.018 C 
HETATM    2  C2  VFQ B1620     -49.747 145.142  13.444  1.00 19.41     0.045 C 
HETATM    3  C3  VFQ B1620     -48.897 146.181  14.178  1.00 19.05     0.123 C 
HETATM    4  C4  VFQ B1620     -47.928 146.916  13.267  1.00 17.84     0.066 C 
HETATM    5  C5  VFQ B1620     -47.280 146.154  12.160  1.00 19.18    -0.074 C 
HETATM    6  C6  VFQ B1620     -47.810 144.980  11.662  1.00 19.92    -0.048 C 
HETATM    7  C7  VFQ B1620     -47.144 144.254  10.563  1.00 19.37     0.009 C 
HETATM    8  C8  VFQ B1620     -46.049 143.479  10.671  1.00 19.11     0.007 C 
HETATM    9  C9  VFQ B1620     -45.299 142.851   9.589  1.00 19.13    -0.062 C 
HETATM   10  C10 VFQ B1620     -44.292 142.017   9.929  1.00 19.42     0.007 C 
HETATM   11  C11 VFQ B1620     -43.445 141.265   9.030  1.00 18.74     0.001 C 
HETATM   12  C12 VFQ B1620     -42.604 140.323   9.498  1.00 16.12     0.007 C 
HETATM   13  C13 VFQ B1620     -41.738 139.431   8.718  1.00 17.85    -0.062 C 
HETATM   14  C14 VFQ B1620     -41.062 138.480   9.398  1.00 17.76     0.007 C 
HETATM   15  C15 VFQ B1620     -40.231 137.437   8.868  1.00 19.16     0.001 C 
HETATM   16  C16 VFQ B1620     -50.253 144.441  11.194  1.00 18.85     0.020 C 
HETATM   17  C17 VFQ B1620     -48.922 142.921  12.649  1.00 18.57     0.020 C 
HETATM   18  C18 VFQ B1620     -46.051 146.892  11.752  1.00 19.26     0.044 C 
HETATM   19  C19 VFQ B1620     -45.742 143.128   8.175  1.00 17.89     0.048 C 
HETATM   20  C20 VFQ B1620     -41.722 139.581   7.215  1.00 13.12     0.048 C 
HETATM   21  O3  VFQ B1620     -49.726 147.111  14.860  1.00 18.20    -0.395 OA
ATOM     22  H3  VFQ B1620     -49.198 147.755  15.316  1.00  0.00     0.210 HD
HETATM   23  C21 VFQ B1620     -34.133 126.725   6.749  1.00 45.52    -0.018 C 
HETATM   24  C22 VFQ B1620     -33.353 125.850   5.771  1.00 45.52     0.045 C 
HETATM   25  C23 VFQ B1620     -32.376 126.619   4.890  1.00 45.52     0.123 C 
HETATM   26  C24 VFQ B1620     -32.929 128.003   4.605  1.00 45.52     0.066 C 
HETATM   27  C25 VFQ B1620     -32.976 128.726   5.919  1.00 45.52    -0.074 C 
HETATM   28  C26 VFQ B1620     -33.496 128.073   6.967  1.00 45.52    -0.048 C 
HETATM   29  C27 VFQ B1620     -33.733 128.759   8.239  1.00 45.52     0.009 C 
HETATM   30  C28 VFQ B1620     -34.566 129.781   8.028  1.00 45.52     0.007 C 
HETATM   31  C29 VFQ B1620     -35.161 130.617   9.122  1.00 26.15    -0.062 C 
HETATM   32  C30 VFQ B1620     -35.987 131.620   8.753  1.00 25.30     0.007 C 
HETATM   33  C31 VFQ B1620     -36.695 132.518   9.627  1.00 24.49     0.001 C 
HETATM   34  C32 VFQ B1620     -37.455 133.521   9.164  1.00 22.91     0.007 C 
HETATM   35  C33 VFQ B1620     -38.217 134.527   9.920  1.00 24.18    -0.062 C 
HETATM   36  C34 VFQ B1620     -38.874 135.472   9.213  1.00 22.61     0.007 C 
HETATM   37  C35 VFQ B1620     -39.667 136.555   9.706  1.00 22.05     0.001 C 
HETATM   38  C36 VFQ B1620     -34.255 126.030   8.098  1.00 45.52     0.020 C 
HETATM   39  C37 VFQ B1620     -35.526 126.989   6.191  1.00 45.52     0.020 C 
HETATM   40  C38 VFQ B1620     -32.335 130.091   5.990  1.00 45.52     0.044 C 
HETATM   41  C39 VFQ B1620     -34.807 130.310  10.549  1.00 22.70     0.048 C 
HETATM   42  C40 VFQ B1620     -38.188 134.451  11.419  1.00 23.56     0.048 C 
HETATM   43  O23 VFQ B1620     -32.183 125.927   3.652  1.00 45.52    -0.395 OA
ATOM     44  H23 VFQ B1620     -31.837 125.061   3.831  1.00  0.00     0.210 HD
ENDROOT
TORSDOF 12
BEGIN_RES PHE A  61
REMARK  2 active torsions:
REMARK  status: ('A' for Active; 'I' for Inactive)
REMARK    1  A    between atoms: CA   and  CB  
REMARK    2  A    between atoms: CB   and  CG  
ROOT
ATOM      1  CA  PHE A  61     -36.237 128.293  12.768  1.00 39.40     0.164 C 
ENDROOT
BRANCH   1   2
ATOM      2  CB  PHE A  61     -36.813 128.951  11.509  1.00 39.41     0.058 C 
BRANCH   2   3
ATOM      3  CG  PHE A  61     -37.091 127.993  10.376  1.00 39.01    -0.020 A 
ATOM      4  CD2 PHE A  61     -36.465 126.758  10.318  1.00 40.32    -0.004 A 
ATOM      5  CE2 PHE A  61     -36.719 125.878   9.273  1.00 40.20    -0.000 A 
ATOM      6  CZ  PHE A  61     -37.605 126.222   8.277  1.00 40.34    -0.000 A 
ATOM      7  CE1 PHE A  61     -38.238 127.445   8.321  1.00 41.51    -0.000 A 
ATOM      8  CD1 PHE A  61     -37.978 128.327   9.362  1.00 39.94    -0.004 A 
ENDBRANCH   2   3
ENDBRANCH   1   2
END_RES PHE A  61
BEGIN_RES VAL A 134
REMARK  1 active torsions:
REMARK  status: ('A' for Active; 'I' for Inactive)
REMARK    3  A    between atoms: CA   and  CB  
ROOT
ATOM      9  CA  VAL A 134     -29.766 132.051   9.815  1.00 40.75     0.159 C 
ENDROOT
BRANCH   9  10
ATOM     10  CB  VAL A 134     -30.864 132.765   9.009  1.00 40.76     0.029 C 
ATOM     11  CG1 VAL A 134     -31.003 132.148   7.625  1.00 41.76     0.002 C 
ATOM     12  CG2 VAL A 134     -32.197 132.752   9.742  1.00 40.56     0.002 C 
ENDBRANCH   9  10
END_RES VAL A 134
BEGIN_RES TYR A 338
REMARK  3 active torsions:
REMARK  status: ('A' for Active; 'I' for Inactive)
REMARK    4  A    between atoms: CA   and  CB  
REMARK    5  A    between atoms: CB   and  CG  
REMARK    6  A    between atoms: CZ   and  OH  
ROOT
ATOM     13  CA  TYR A 338     -41.631 124.950   6.058  1.00 38.23     0.164 C 
ENDROOT
BRANCH  13  14
ATOM     14  CB  TYR A 338     -41.621 126.456   6.339  1.00 39.15     0.058 C 
BRANCH  14  15
ATOM     15  CG  TYR A 338     -40.416 127.211   5.826  1.00 39.03    -0.020 A 
ATOM     16  CD2 TYR A 338     -40.234 128.545   6.152  1.00 40.65    -0.002 A 
ATOM     17  CE2 TYR A 338     -39.150 129.272   5.687  1.00 40.91     0.024 A 
ATOM     18  CZ  TYR A 338     -38.214 128.663   4.872  1.00 42.33     0.089 A 
ATOM     19  CE1 TYR A 338     -38.371 127.330   4.537  1.00 40.63     0.024 A 
ATOM     20  CD1 TYR A 338     -39.470 126.623   5.002  1.00 39.27    -0.002 A 
BRANCH  18  21
ATOM     21  OH  TYR A 338     -37.138 129.369   4.411  1.00 43.36    -0.359 OA
ATOM     22  HH  TYR A 338     -37.010 129.496   3.478  1.00  0.00     0.217 HD
ENDBRANCH  18  21
ENDBRANCH  14  15
ENDBRANCH  13  14
END_RES TYR A 338
ENDMDL
MODEL 2
REMARK VINA RESULT:    -8.052      1.212     16.734
REMARK INTER + INTRA:         -10.228
REMARK INTER:                  -9.931
REMARK INTRA:                  -0.297
REMARK UNBOUND:                -2.176
REMARK  0 active torsions:
REMARK  status: ('A' for Active; 'I' for Inactive)
REMARK       I    between atoms: C3_3  and  O3_21 
REMARK       I    between atoms: C6_6  and  C7_7 
REMARK       I    between atoms: C8_8  and  C9_9 
REMARK       I    between atoms: C10_10  and  C11_11 
REMARK       I    between atoms: C12_12  and  C13_13 
REMARK       I    between atoms: C14_14  and  C15_15 
REMARK       I    between atoms: C23_25  and  O23_43 
REMARK       I    between atoms: C26_28  and  C27_29 
REMARK       I    between atoms: C28_30  and  C29_31 
REMARK       I    between atoms: C30_32  and  C31_33 
REMARK       I    between atoms: C32_34  and  C33_35 
REMARK       I    between atoms: C34_36  and  C35_37 
ROOT
HETATM    1  C1  VFQ B1620     -34.174 128.093   6.773  1.00 19.90    -0.018 C 
HETATM    2  C2  VFQ B1620     -33.254 127.483   5.697  1.00 19.41     0.045 C 
HETATM    3  C3  VFQ B1620     -31.981 128.234   5.305  1.00 19.05     0.123 C 
HETATM    4  C4  VFQ B1620     -31.358 129.004   6.457  1.00 17.84     0.066 C 
HETATM    5  C5  VFQ B1620     -32.266 129.656   7.446  1.00 19.18    -0.074 C 
HETATM    6  C6  VFQ B1620     -33.577 129.260   7.619  1.00 19.92    -0.048 C 
HETATM    7  C7  VFQ B1620     -34.446 129.925   8.608  1.00 19.37     0.009 C 
HETATM    8  C8  VFQ B1620     -35.038 131.126   8.467  1.00 19.11     0.007 C 
HETATM    9  C9  VFQ B1620     -35.798 131.861   9.472  1.00 19.13    -0.062 C 
HETATM   10  C10 VFQ B1620     -36.406 133.004   9.083  1.00 19.42     0.007 C 
HETATM   11  C11 VFQ B1620     -37.232 133.868   9.895  1.00 18.74     0.001 C 
HETATM   12  C12 VFQ B1620     -37.935 134.874   9.340  1.00 16.12     0.007 C 
HETATM   13  C13 VFQ B1620     -38.868 135.789  10.009  1.00 17.85    -0.062 C 
HETATM   14  C14 VFQ B1620     -39.552 136.651   9.226  1.00 17.76     0.007 C 
HETATM   15  C15 VFQ B1620     -40.579 137.574   9.616  1.00 19.16     0.001 C 
HETATM   16  C16 VFQ B1620     -34.500 126.888   7.673  1.00 18.85     0.020 C 
HETATM   17  C17 VFQ B1620     -35.480 128.546   6.095  1.00 18.57     0.020 C 
HETATM   18  C18 VFQ B1620     -31.495 130.725   8.142  1.00 19.26     0.044 C 
HETATM   19  C19 VFQ B1620     -35.903 131.261  10.851  1.00 17.89     0.048 C 
HETATM   20  C20 VFQ B1620     -39.060 135.652  11.500  1.00 13.12     0.048 C 
HETATM   21  O3  VFQ B1620     -31.029 127.343   4.743  1.00 18.20    -0.395 OA
ATOM     22  H3  VFQ B1620     -30.239 127.809   4.499  1.00  0.00     0.210 HD
HETATM   23  C21 VFQ B1620     -50.671 144.945  10.115  1.00 45.52    -0.018 C 
HETATM   24  C22 VFQ B1620     -51.643 145.755  10.970  1.00 45.52     0.045 C 
HETATM   25  C23 VFQ B1620     -50.979 146.530  12.102  1.00 45.52     0.123 C 
HETATM   26  C24 VFQ B1620     -49.773 145.761  12.608  1.00 45.52     0.066 C 
HETATM   27  C25 VFQ B1620     -48.784 145.724  11.479  1.00 45.52    -0.074 C 
HETATM   28  C26 VFQ B1620     -49.242 145.397  10.264  1.00 45.52    -0.048 C 
HETATM   29  C27 VFQ B1620     -48.320 145.175   9.148  1.00 45.52     0.009 C 
HETATM   30  C28 VFQ B1620     -47.481 144.189   9.471  1.00 45.52     0.007 C 
HETATM   31  C29 VFQ B1620     -46.498 143.577   8.517  1.00 26.15    -0.062 C 
HETATM   32  C30 VFQ B1620     -45.712 142.586   8.992  1.00 25.30     0.007 C 
HETATM   33  C31 VFQ B1620     -44.733 141.835   8.251  1.00 24.49     0.001 C 
HETATM   34  C32 VFQ B1620     -43.960 140.900   8.824  1.00 22.91     0.007 C 
HETATM   35  C33 VFQ B1620     -42.909 140.071   8.215  1.00 24.18    -0.062 C 
HETATM   36  C34 VFQ B1620     -42.236 139.225   9.024  1.00 22.61     0.007 C 
HETATM   37  C35 VFQ B1620     -41.174 138.330   8.682  1.00 22.05     0.001 C 
HETATM   38  C36 VFQ B1620     -51.053 145.043   8.645  1.00 45.52     0.020 C 
HETATM   39  C37 VFQ B1620     -50.711 143.484  10.550  1.00 45.52     0.020 C 
HETATM   40  C38 VFQ B1620     -47.370 146.165  11.774  1.00 45.52     0.044 C 
HETATM   41  C39 VFQ B1620     -46.430 144.094   7.109  1.00 22.70     0.048 C 
HETATM   42  C40 VFQ B1620     -42.641 140.241   6.747  1.00 23.56     0.048 C 
HETATM   43  O23 VFQ B1620     -51.904 146.712  13.179  1.00 45.52    -0.395 OA
ATOM     44  H23 VFQ B1620     -52.659 147.194  12.863  1.00  0.00     0.210 HD
ENDROOT
TORSDOF 12
BEGIN_RES PHE A  61
REMARK  2 active torsions:
REMARK  status: ('A' for Active; 'I' for Inactive)
REMARK    1  A    between atoms: CA   and  CB  
REMARK    2  A    between atoms: CB   and  CG  
ROOT
ATOM      1  CA  PHE A  61     -36.237 128.293  12.768  1.00 39.40     0.164 C 
ENDROOT
BRANCH   1   2
ATOM      2  CB  PHE A  61     -36.813 128.951  11.509  1.00 39.41     0.058 C 
BRANCH   2   3
ATOM      3  CG  PHE A  61     -37.011 128.008  10.347  1.00 39.01    -0.020 A 
ATOM      4  CD2 PHE A  61     -36.290 126.827  10.258  1.00 40.32    -0.004 A 
ATOM      5  CE2 PHE A  61     -36.471 125.962   9.186  1.00 40.20    -0.000 A 
ATOM      6  CZ  PHE A  61     -37.375 126.265   8.194  1.00 40.34    -0.000 A 
ATOM      7  CE1 PHE A  61     -38.100 127.433   8.269  1.00 41.51    -0.000 A 
ATOM      8  CD1 PHE A  61     -37.916 128.302   9.337  1.00 39.94    -0.004 A 
ENDBRANCH   2   3
ENDBRANCH   1   2
END_RES PHE A  61
BEGIN_RES VAL A 134
REMARK  1 active torsions:
REMARK  status: ('A' for Active; 'I' for Inactive)
REMARK    3  A    between atoms: CA   and  CB  
ROOT
ATOM      9  CA  VAL A 134     -29.766 132.051   9.815  1.00 40.75     0.159 C 
ENDROOT
BRANCH   9  10
ATOM     10  CB  VAL A 134     -30.864 132.765   9.009  1.00 40.76     0.029 C 
ATOM     11  CG1 VAL A 134     -32.106 132.977   9.862  1.00 41.76     0.002 C 
ATOM     12  CG2 VAL A 134     -30.371 134.085   8.436  1.00 40.56     0.002 C 
ENDBRANCH   9  10
END_RES VAL A 134
BEGIN_RES TYR A 338
REMARK  3 active torsions:
REMARK  status: ('A' for Active; 'I' for Inactive)
REMARK    4  A    between atoms: CA   and  CB  
REMARK    5  A    between atoms: CB   and  CG  
REMARK    6  A    between atoms: CZ   and  OH  
ROOT
ATOM     13  CA  TYR A 338     -41.631 124.950   6.058  1.00 38.23     0.164 C 
ENDROOT
BRANCH  13  14
ATOM     14  CB  TYR A 338     -41.621 126.456   6.339  1.00 39.15     0.058 C 
BRANCH  14  15
ATOM     15  CG  TYR A 338     -40.428 127.215   5.805  1.00 39.03    -0.020 A 
ATOM     16  CD2 TYR A 338     -40.272 128.562   6.085  1.00 40.65    -0.002 A 
ATOM     17  CE2 TYR A 338     -39.199 129.293   5.599  1.00 40.91     0.024 A 
ATOM     18  CZ  TYR A 338     -38.248 128.674   4.810  1.00 42.33     0.089 A 
ATOM     19  CE1 TYR A 338     -38.379 127.327   4.520  1.00 40.63     0.024 A 
ATOM     20  CD1 TYR A 338     -39.467 126.617   5.005  1.00 39.27    -0.002 A 
BRANCH  18  21
ATOM     21  OH  TYR A 338     -37.183 129.383   4.329  1.00 43.36    -0.359 OA
ATOM     22  HH  TYR A 338     -37.321 130.120   3.744  1.00  0.00     0.217 HD
ENDBRANCH  18  21
ENDBRANCH  14  15
ENDBRANCH  13  14
END_RES TYR A 338
ENDMDL
