MODEL 1
REMARK VINA RESULT:   -10.796      0.000      0.000
REMARK INTER + INTRA:         -13.498
REMARK INTER:                 -10.796
REMARK INTRA:                  -2.702
REMARK UNBOUND:                -2.702
REMARK  0 active torsions:
REMARK  status: ('A' for Active; 'I' for Inactive)
REMARK       I    between atoms: C3_3  and  O3_21 
REMARK       I    between atoms: C6_6  and  C7_7 
REMARK       I    between atoms: C8_8  and  C9_9 
REMARK       I    between atoms: C10_10  and  C11_11 
REMARK       I    between atoms: C12_12  and  C13_13 
REMARK       I    between atoms: C14_14  and  C15_15 
REMARK       I    between atoms: C23_25  and  O23_43 
REMARK       I    between atoms: C26_28  and  C27_29 
REMARK       I    between atoms: C28_30  and  C29_31 
REMARK       I    between atoms: C30_32  and  C31_33 
REMARK       I    between atoms: C32_34  and  C33_35 
REMARK       I    between atoms: C34_36  and  C35_37 
ROOT
HETATM    1  C1  VFQ U1620     -33.627 129.148   7.052  1.00 22.99    -0.018 C 
HETATM    2  C2  VFQ U1620     -32.828 129.834   5.965  1.00 22.99     0.045 C 
HETATM    3  C3  VFQ U1620     -32.072 131.048   6.436  1.00 22.99     0.123 C 
HETATM    4  C4  VFQ U1620     -31.171 130.566   7.538  1.00 22.99     0.066 C 
HETATM    5  C5  VFQ U1620     -31.994 130.046   8.670  1.00 22.99    -0.074 C 
HETATM    6  C6  VFQ U1620     -33.223 129.601   8.438  1.00 22.99    -0.048 C 
HETATM    7  C7  VFQ U1620     -34.293 129.897   9.383  1.00 22.99     0.009 C 
HETATM    8  C8  VFQ U1620     -34.751 131.120   9.096  1.00 22.99     0.007 C 
HETATM    9  C9  VFQ U1620     -35.845 131.778   9.833  1.00 22.99    -0.062 C 
HETATM   10  C10 VFQ U1620     -36.239 132.989   9.406  1.00 22.99     0.007 C 
HETATM   11  C11 VFQ U1620     -37.331 133.734  10.018  1.00 22.99     0.001 C 
HETATM   12  C12 VFQ U1620     -37.709 134.902   9.513  1.00 22.99     0.007 C 
HETATM   13  C13 VFQ U1620     -38.855 135.609  10.097  1.00 22.99    -0.062 C 
HETATM   14  C14 VFQ U1620     -39.293 136.691   9.447  1.00 22.99     0.007 C 
HETATM   15  C15 VFQ U1620     -40.459 137.481   9.818  1.00 22.99     0.001 C 
HETATM   16  C16 VFQ U1620     -33.441 127.664   6.810  1.00 22.99     0.020 C 
HETATM   17  C17 VFQ U1620     -35.094 129.496   6.862  1.00 22.99     0.020 C 
HETATM   18  C18 VFQ U1620     -31.627 130.913   9.831  1.00 22.99     0.044 C 
HETATM   19  C19 VFQ U1620     -36.478 131.085  11.003  1.00 22.99     0.048 C 
HETATM   20  C20 VFQ U1620     -39.509 135.038  11.312  1.00 22.99     0.048 C 
HETATM   21  O3  VFQ U1620     -31.256 131.525   5.375  1.00 22.99    -0.395 OA
ATOM     22  H3  VFQ U1620     -30.778 132.291   5.673  1.00  0.00     0.210 HD
HETATM   23  C21 VFQ U1620     -50.216 144.810   8.902  1.00 33.87    -0.018 C 
HETATM   24  C22 VFQ U1620     -51.508 145.443   9.403  1.00 33.87     0.045 C 
HETATM   25  C23 VFQ U1620     -51.353 146.225  10.697  1.00 33.87     0.123 C 
HETATM   26  C24 VFQ U1620     -50.306 145.570  11.580  1.00 33.87     0.066 C 
HETATM   27  C25 VFQ U1620     -48.986 145.618  10.865  1.00 33.87    -0.074 C 
HETATM   28  C26 VFQ U1620     -48.989 145.401   9.544  1.00 33.87    -0.048 C 
HETATM   29  C27 VFQ U1620     -47.762 145.386   8.754  1.00 33.87     0.009 C 
HETATM   30  C28 VFQ U1620     -47.019 144.359   9.177  1.00 33.87     0.007 C 
HETATM   31  C29 VFQ U1620     -45.785 143.931   8.480  1.00 22.99    -0.062 C 
HETATM   32  C30 VFQ U1620     -45.206 142.817   8.961  1.00 22.99     0.007 C 
HETATM   33  C31 VFQ U1620     -44.004 142.178   8.427  1.00 22.99     0.001 C 
HETATM   34  C32 VFQ U1620     -43.553 141.076   9.026  1.00 22.99     0.007 C 
HETATM   35  C33 VFQ U1620     -42.350 140.356   8.570  1.00 22.99    -0.062 C 
HETATM   36  C34 VFQ U1620     -41.968 139.293   9.296  1.00 22.99     0.007 C 
HETATM   37  C35 VFQ U1620     -40.798 138.473   9.003  1.00 22.99     0.001 C 
HETATM   38  C36 VFQ U1620     -50.103 144.989   7.393  1.00 33.87     0.020 C 
HETATM   39  C37 VFQ U1620     -50.204 143.326   9.245  1.00 33.87     0.020 C 
HETATM   40  C38 VFQ U1620     -47.775 145.999  11.674  1.00 33.87     0.044 C 
HETATM   41  C39 VFQ U1620     -45.289 144.690   7.283  1.00 22.99     0.048 C 
HETATM   42  C40 VFQ U1620     -41.643 140.818   7.332  1.00 22.99     0.048 C 
HETATM   43  O23 VFQ U1620     -52.600 146.233  11.394  1.00 33.87    -0.395 OA
ATOM     44  H23 VFQ U1620     -52.503 146.721  12.203  1.00  0.00     0.210 HD
ENDROOT
TORSDOF 12
BEGIN_RES PHE A  61
REMARK  2 active torsions:
REMARK  status: ('A' for Active; 'I' for Inactive)
REMARK    1  A    between atoms: CA   and  CB  
REMARK    2  A    between atoms: CB   and  CG  
ROOT
ATOM      1  CA  PHE A  61     -36.237 128.293  12.768  1.00 39.40     0.164 C 
ENDROOT
BRANCH   1   2
ATOM      2  CB  PHE A  61     -36.813 128.951  11.509  1.00 39.41     0.058 C 
BRANCH   2   3
ATOM      3  CG  PHE A  61     -36.762 128.085  10.273  1.00 39.01    -0.020 A 
ATOM      4  CD2 PHE A  61     -37.779 128.126   9.333  1.00 40.32    -0.004 A 
ATOM      5  CE2 PHE A  61     -37.732 127.326   8.198  1.00 40.20    -0.000 A 
ATOM      6  CZ  PHE A  61     -36.667 126.480   7.988  1.00 40.34    -0.000 A 
ATOM      7  CE1 PHE A  61     -35.647 126.430   8.912  1.00 41.51    -0.000 A 
ATOM      8  CD1 PHE A  61     -35.696 127.224  10.051  1.00 39.94    -0.004 A 
ENDBRANCH   2   3
ENDBRANCH   1   2
END_RES PHE A  61
BEGIN_RES VAL A 134
REMARK  1 active torsions:
REMARK  status: ('A' for Active; 'I' for Inactive)
REMARK    3  A    between atoms: CA   and  CB  
ROOT
ATOM      9  CA  VAL A 134     -29.766 132.051   9.815  1.00 40.75     0.159 C 
ENDROOT
BRANCH   9  10
ATOM     10  CB  VAL A 134     -30.864 132.765   9.009  1.00 40.76     0.029 C 
ATOM     11  CG1 VAL A 134     -31.948 133.301   9.933  1.00 41.76     0.002 C 
ATOM     12  CG2 VAL A 134     -30.292 133.878   8.145  1.00 40.56     0.002 C 
ENDBRANCH   9  10
END_RES VAL A 134
BEGIN_RES TYR A 338
REMARK  3 active torsions:
REMARK  status: ('A' for Active; 'I' for Inactive)
REMARK    4  A    between atoms: CA   and  CB  
REMARK    5  A    between atoms: CB   and  CG  
REMARK    6  A    between atoms: CZ   and  OH  
ROOT
ATOM     13  CA  TYR A 338     -41.631 124.950   6.058  1.00 38.23     0.164 C 
ENDROOT
BRANCH  13  14
ATOM     14  CB  TYR A 338     -41.621 126.456   6.339  1.00 39.15     0.058 C 
BRANCH  14  15
ATOM     15  CG  TYR A 338     -40.403 127.206   5.852  1.00 39.03    -0.020 A 
ATOM     16  CD2 TYR A 338     -40.230 128.543   6.167  1.00 40.65    -0.002 A 
ATOM     17  CE2 TYR A 338     -39.133 129.266   5.725  1.00 40.91     0.024 A 
ATOM     18  CZ  TYR A 338     -38.175 128.649   4.944  1.00 42.33     0.089 A 
ATOM     19  CE1 TYR A 338     -38.322 127.312   4.619  1.00 40.63     0.024 A 
ATOM     20  CD1 TYR A 338     -39.433 126.610   5.061  1.00 39.27    -0.002 A 
BRANCH  18  21
ATOM     21  OH  TYR A 338     -37.087 129.351   4.506  1.00 43.36    -0.359 OA
ATOM     22  HH  TYR A 338     -36.458 129.700   5.127  1.00  0.00     0.217 HD
ENDBRANCH  18  21
ENDBRANCH  14  15
ENDBRANCH  13  14
END_RES TYR A 338
ENDMDL
