MODEL 1
REMARK VINA RESULT:   -10.493      0.000      0.000
REMARK INTER + INTRA:         -12.732
REMARK INTER:                 -10.493
REMARK INTRA:                  -2.239
REMARK UNBOUND:                -2.239
REMARK  0 active torsions:
REMARK  status: ('A' for Active; 'I' for Inactive)
REMARK       I    between atoms: C3_3  and  O3_21 
REMARK       I    between atoms: C6_6  and  C7_7 
REMARK       I    between atoms: C8_8  and  C9_9 
REMARK       I    between atoms: C10_10  and  C11_11 
REMARK       I    between atoms: C12_12  and  C13_13 
REMARK       I    between atoms: C14_14  and  C15_15 
REMARK       I    between atoms: C23_25  and  O23_43 
REMARK       I    between atoms: C26_28  and  C27_29 
REMARK       I    between atoms: C28_30  and  C29_31 
REMARK       I    between atoms: C30_32  and  C31_33 
REMARK       I    between atoms: C32_34  and  C33_35 
REMARK       I    between atoms: C34_36  and  C35_37 
ROOT
HETATM    1  C1  VFQ 3 316     -34.305 127.416   6.760  1.00 78.71    -0.018 C 
HETATM    2  C2  VFQ 3 316     -33.682 126.937   5.447  1.00 77.73     0.045 C 
HETATM    3  C3  VFQ 3 316     -32.498 127.749   4.934  1.00 76.79     0.123 C 
HETATM    4  C4  VFQ 3 316     -31.565 128.081   6.082  1.00 76.86     0.066 C 
HETATM    5  C5  VFQ 3 316     -32.332 128.916   7.071  1.00 77.66    -0.074 C 
HETATM    6  C6  VFQ 3 316     -33.574 128.574   7.417  1.00 78.84    -0.048 C 
HETATM    7  C7  VFQ 3 316     -34.285 129.352   8.458  1.00 78.35     0.009 C 
HETATM    8  C8  VFQ 3 316     -34.850 130.515   8.140  1.00 77.95     0.007 C 
HETATM    9  C9  VFQ 3 316     -35.581 131.332   9.125  1.00 78.35    -0.062 C 
HETATM   10  C10 VFQ 3 316     -36.208 132.431   8.684  1.00 77.38     0.007 C 
HETATM   11  C11 VFQ 3 316     -36.985 133.318   9.543  1.00 77.06     0.001 C 
HETATM   12  C12 VFQ 3 316     -37.760 134.194   8.912  1.00 77.59     0.007 C 
HETATM   13  C13 VFQ 3 316     -38.642 135.161   9.592  1.00 77.36    -0.062 C 
HETATM   14  C14 VFQ 3 316     -39.426 135.929   8.821  1.00 75.86     0.007 C 
HETATM   15  C15 VFQ 3 316     -40.361 136.906   9.364  1.00 74.54     0.001 C 
HETATM   16  C16 VFQ 3 316     -34.333 126.248   7.740  1.00 78.56     0.020 C 
HETATM   17  C17 VFQ 3 316     -35.736 127.863   6.477  1.00 78.60     0.020 C 
HETATM   18  C18 VFQ 3 316     -31.579 129.984   7.810  1.00 77.80     0.044 C 
HETATM   19  C19 VFQ 3 316     -35.628 130.935  10.571  1.00 79.41     0.048 C 
HETATM   20  C20 VFQ 3 316     -38.670 135.270  11.088  1.00 77.68     0.048 C 
HETATM   21  O3  VFQ 3 316     -31.780 126.996   3.950  1.00 76.23    -0.395 OA
ATOM     22  H3  VFQ 3 316     -31.043 127.502   3.630  1.00  0.00     0.210 HD
HETATM   23  C21 VFQ 3 316     -50.075 145.065   9.544  1.00 21.11    -0.017 C 
HETATM   24  C22 VFQ 3 316     -51.174 145.929  10.187  1.00 20.11     0.049 C 
HETATM   25  C23 VFQ 3 316     -50.792 147.150  11.023  1.00 19.41     0.142 C 
HETATM   26  C24 VFQ 3 316     -49.296 147.491  11.072  1.00 18.39     0.012 C 
HETATM   27  C25 VFQ 3 316     -48.295 146.782  10.222  1.00 18.34    -0.056 C 
HETATM   28  C26 VFQ 3 316     -48.612 145.648   9.511  1.00 19.81    -0.044 C 
HETATM   29  C27 VFQ 3 316     -47.673 144.887   8.656  1.00 19.02     0.009 C 
HETATM   30  C28 VFQ 3 316     -46.779 143.984   9.105  1.00 17.97     0.007 C 
HETATM   31  C29 VFQ 3 316     -45.850 143.222   8.302  1.00 87.05    -0.062 C 
HETATM   32  C30 VFQ 3 316     -45.130 142.249   8.873  1.00 83.33     0.007 C 
HETATM   33  C31 VFQ 3 316     -44.185 141.425   8.128  1.00 80.71     0.001 C 
HETATM   34  C32 VFQ 3 316     -43.515 140.514   8.825  1.00 78.86     0.007 C 
HETATM   35  C33 VFQ 3 316     -42.530 139.594   8.230  1.00 77.40    -0.062 C 
HETATM   36  C34 VFQ 3 316     -41.981 138.661   9.022  1.00 76.14     0.007 C 
HETATM   37  C35 VFQ 3 316     -41.014 137.694   8.517  1.00 74.61     0.001 C 
HETATM   38  C36 VFQ 3 316     -50.573 144.762   8.115  1.00 19.56     0.020 C 
HETATM   39  C37 VFQ 3 316     -50.122 143.747  10.356  1.00 18.49     0.020 C 
HETATM   40  C38 VFQ 3 316     -47.010 147.521  10.279  1.00 16.89     0.048 C 
HETATM   41  C39 VFQ 3 316     -45.713 143.525   6.838  1.00 86.53     0.048 C 
HETATM   42  C40 VFQ 3 316     -42.153 139.700   6.783  1.00 77.09     0.048 C 
HETATM   43  O23 VFQ 3 316     -51.309 147.025  12.336  1.00 18.27    -0.392 OA
ATOM     44  H23 VFQ 3 316     -52.235 146.814  12.306  1.00  0.00     0.210 HD
ENDROOT
TORSDOF 12
BEGIN_RES PHE A  61
REMARK  2 active torsions:
REMARK  status: ('A' for Active; 'I' for Inactive)
REMARK    1  A    between atoms: CA   and  CB  
REMARK    2  A    between atoms: CB   and  CG  
ROOT
ATOM      1  CA  PHE A  61     -36.237 128.293  12.768  1.00 39.40     0.164 C 
ENDROOT
BRANCH   1   2
ATOM      2  CB  PHE A  61     -36.813 128.951  11.509  1.00 39.41     0.058 C 
BRANCH   2   3
ATOM      3  CG  PHE A  61     -37.083 127.994  10.373  1.00 39.01    -0.020 A 
ATOM      4  CD2 PHE A  61     -36.385 126.801  10.265  1.00 40.32    -0.004 A 
ATOM      5  CE2 PHE A  61     -36.633 125.923   9.218  1.00 40.20    -0.000 A 
ATOM      6  CZ  PHE A  61     -37.583 126.226   8.269  1.00 40.34    -0.000 A 
ATOM      7  CE1 PHE A  61     -38.286 127.406   8.362  1.00 41.51    -0.000 A 
ATOM      8  CD1 PHE A  61     -38.035 128.287   9.406  1.00 39.94    -0.004 A 
ENDBRANCH   2   3
ENDBRANCH   1   2
END_RES PHE A  61
BEGIN_RES VAL A 134
REMARK  1 active torsions:
REMARK  status: ('A' for Active; 'I' for Inactive)
REMARK    3  A    between atoms: CA   and  CB  
ROOT
ATOM      9  CA  VAL A 134     -29.766 132.051   9.815  1.00 40.75     0.159 C 
ENDROOT
BRANCH   9  10
ATOM     10  CB  VAL A 134     -30.864 132.765   9.009  1.00 40.76     0.029 C 
ATOM     11  CG1 VAL A 134     -30.873 132.281   7.566  1.00 41.76     0.002 C 
ATOM     12  CG2 VAL A 134     -32.233 132.588   9.647  1.00 40.56     0.002 C 
ENDBRANCH   9  10
END_RES VAL A 134
BEGIN_RES TYR A 338
REMARK  3 active torsions:
REMARK  status: ('A' for Active; 'I' for Inactive)
REMARK    4  A    between atoms: CA   and  CB  
REMARK    5  A    between atoms: CB   and  CG  
REMARK    6  A    between atoms: CZ   and  OH  
ROOT
ATOM     13  CA  TYR A 338     -41.631 124.950   6.058  1.00 38.23     0.164 C 
ENDROOT
BRANCH  13  14
ATOM     14  CB  TYR A 338     -41.621 126.456   6.339  1.00 39.15     0.058 C 
BRANCH  14  15
ATOM     15  CG  TYR A 338     -40.423 127.213   5.814  1.00 39.03    -0.020 A 
ATOM     16  CD2 TYR A 338     -40.255 128.555   6.114  1.00 40.65    -0.002 A 
ATOM     17  CE2 TYR A 338     -39.177 129.284   5.638  1.00 40.91     0.024 A 
ATOM     18  CZ  TYR A 338     -38.233 128.669   4.836  1.00 42.33     0.089 A 
ATOM     19  CE1 TYR A 338     -38.376 127.328   4.527  1.00 40.63     0.024 A 
ATOM     20  CD1 TYR A 338     -39.469 126.620   5.003  1.00 39.27    -0.002 A 
BRANCH  18  21
ATOM     21  OH  TYR A 338     -37.164 129.377   4.364  1.00 43.36    -0.359 OA
ATOM     22  HH  TYR A 338     -37.203 129.796   3.512  1.00  0.00     0.217 HD
ENDBRANCH  18  21
ENDBRANCH  14  15
ENDBRANCH  13  14
END_RES TYR A 338
ENDMDL
MODEL 2
REMARK VINA RESULT:    -8.535      0.660      0.932
REMARK INTER + INTRA:         -10.774
REMARK INTER:                  -9.420
REMARK INTRA:                  -1.354
REMARK UNBOUND:                -2.239
REMARK  0 active torsions:
REMARK  status: ('A' for Active; 'I' for Inactive)
REMARK       I    between atoms: C3_3  and  O3_21 
REMARK       I    between atoms: C6_6  and  C7_7 
REMARK       I    between atoms: C8_8  and  C9_9 
REMARK       I    between atoms: C10_10  and  C11_11 
REMARK       I    between atoms: C12_12  and  C13_13 
REMARK       I    between atoms: C14_14  and  C15_15 
REMARK       I    between atoms: C23_25  and  O23_43 
REMARK       I    between atoms: C26_28  and  C27_29 
REMARK       I    between atoms: C28_30  and  C29_31 
REMARK       I    between atoms: C30_32  and  C31_33 
REMARK       I    between atoms: C32_34  and  C33_35 
REMARK       I    between atoms: C34_36  and  C35_37 
ROOT
HETATM    1  C1  VFQ 3 316     -34.275 127.618   6.932  1.00 78.71    -0.018 C 
HETATM    2  C2  VFQ 3 316     -33.731 127.148   5.580  1.00 77.73     0.045 C 
HETATM    3  C3  VFQ 3 316     -32.584 127.967   5.000  1.00 76.79     0.123 C 
HETATM    4  C4  VFQ 3 316     -31.584 128.297   6.091  1.00 76.86     0.066 C 
HETATM    5  C5  VFQ 3 316     -32.292 129.124   7.129  1.00 77.66    -0.074 C 
HETATM    6  C6  VFQ 3 316     -33.510 128.776   7.548  1.00 78.84    -0.048 C 
HETATM    7  C7  VFQ 3 316     -34.159 129.545   8.635  1.00 78.35     0.009 C 
HETATM    8  C8  VFQ 3 316     -34.745 130.708   8.358  1.00 77.95     0.007 C 
HETATM    9  C9  VFQ 3 316     -35.419 131.517   9.391  1.00 78.35    -0.062 C 
HETATM   10  C10 VFQ 3 316     -36.075 132.616   8.995  1.00 77.38     0.007 C 
HETATM   11  C11 VFQ 3 316     -36.801 133.496   9.904  1.00 77.06     0.001 C 
HETATM   12  C12 VFQ 3 316     -37.616 134.372   9.325  1.00 77.59     0.007 C 
HETATM   13  C13 VFQ 3 316     -38.459 135.332  10.063  1.00 77.36    -0.062 C 
HETATM   14  C14 VFQ 3 316     -39.291 136.101   9.346  1.00 75.86     0.007 C 
HETATM   15  C15 VFQ 3 316     -40.195 137.071   9.950  1.00 74.54     0.001 C 
HETATM   16  C16 VFQ 3 316     -34.239 126.445   7.905  1.00 78.56     0.020 C 
HETATM   17  C17 VFQ 3 316     -35.722 128.061   6.739  1.00 78.60     0.020 C 
HETATM   18  C18 VFQ 3 316     -31.499 130.191   7.827  1.00 77.80     0.044 C 
HETATM   19  C19 VFQ 3 316     -35.375 131.113  10.835  1.00 79.41     0.048 C 
HETATM   20  C20 VFQ 3 316     -38.396 135.433  11.559  1.00 77.68     0.048 C 
HETATM   21  O3  VFQ 3 316     -31.925 127.222   3.971  1.00 76.23    -0.395 OA
ATOM     22  H3  VFQ 3 316     -31.210 127.732   3.609  1.00  0.00     0.210 HD
HETATM   23  C21 VFQ 3 316     -49.909 145.192  10.765  1.00 21.11    -0.017 C 
HETATM   24  C22 VFQ 3 316     -50.969 146.049  11.478  1.00 20.11     0.049 C 
HETATM   25  C23 VFQ 3 316     -50.540 147.267  12.296  1.00 19.41     0.142 C 
HETATM   26  C24 VFQ 3 316     -49.046 147.613  12.255  1.00 18.39     0.012 C 
HETATM   27  C25 VFQ 3 316     -48.096 146.913  11.342  1.00 18.34    -0.056 C 
HETATM   28  C26 VFQ 3 316     -48.452 145.781  10.646  1.00 19.81    -0.044 C 
HETATM   29  C27 VFQ 3 316     -47.564 145.027   9.731  1.00 19.02     0.009 C 
HETATM   30  C28 VFQ 3 316     -46.641 144.126  10.120  1.00 17.97     0.007 C 
HETATM   31  C29 VFQ 3 316     -45.760 143.372   9.257  1.00 87.05    -0.062 C 
HETATM   32  C30 VFQ 3 316     -45.003 142.398   9.779  1.00 83.33     0.007 C 
HETATM   33  C31 VFQ 3 316     -44.102 141.582   8.973  1.00 80.71     0.001 C 
HETATM   34  C32 VFQ 3 316     -43.388 140.670   9.623  1.00 78.86     0.007 C 
HETATM   35  C33 VFQ 3 316     -42.438 139.756   8.964  1.00 77.40    -0.062 C 
HETATM   36  C34 VFQ 3 316     -41.838 138.822   9.716  1.00 76.14     0.007 C 
HETATM   37  C35 VFQ 3 316     -40.901 137.862   9.148  1.00 74.61     0.001 C 
HETATM   38  C36 VFQ 3 316     -50.492 144.895   9.367  1.00 19.56     0.020 C 
HETATM   39  C37 VFQ 3 316     -49.901 143.870  11.572  1.00 18.49     0.020 C 
HETATM   40  C38 VFQ 3 316     -46.812 147.656  11.324  1.00 16.89     0.048 C 
HETATM   41  C39 VFQ 3 316     -45.714 143.682   7.790  1.00 86.53     0.048 C 
HETATM   42  C40 VFQ 3 316     -42.150 139.872   7.497  1.00 77.09     0.048 C 
HETATM   43  O23 VFQ 3 316     -50.977 147.134  13.637  1.00 18.27    -0.392 OA
ATOM     44  H23 VFQ 3 316     -51.902 146.919  13.662  1.00  0.00     0.210 HD
ENDROOT
TORSDOF 12
BEGIN_RES PHE A  61
REMARK  2 active torsions:
REMARK  status: ('A' for Active; 'I' for Inactive)
REMARK    1  A    between atoms: CA   and  CB  
REMARK    2  A    between atoms: CB   and  CG  
ROOT
ATOM      1  CA  PHE A  61     -36.237 128.293  12.768  1.00 39.40     0.164 C 
ENDROOT
BRANCH   1   2
ATOM      2  CB  PHE A  61     -36.813 128.951  11.509  1.00 39.41     0.058 C 
BRANCH   2   3
ATOM      3  CG  PHE A  61     -37.125 127.988  10.389  1.00 39.01    -0.020 A 
ATOM      4  CD2 PHE A  61     -36.497 126.755  10.315  1.00 40.32    -0.004 A 
ATOM      5  CE2 PHE A  61     -36.782 125.871   9.281  1.00 40.20    -0.000 A 
ATOM      6  CZ  PHE A  61     -37.701 126.208   8.314  1.00 40.34    -0.000 A 
ATOM      7  CE1 PHE A  61     -38.336 127.429   8.374  1.00 41.51    -0.000 A 
ATOM      8  CD1 PHE A  61     -38.046 128.316   9.403  1.00 39.94    -0.004 A 
ENDBRANCH   2   3
ENDBRANCH   1   2
END_RES PHE A  61
BEGIN_RES VAL A 134
REMARK  1 active torsions:
REMARK  status: ('A' for Active; 'I' for Inactive)
REMARK    3  A    between atoms: CA   and  CB  
ROOT
ATOM      9  CA  VAL A 134     -29.766 132.051   9.815  1.00 40.75     0.159 C 
ENDROOT
BRANCH   9  10
ATOM     10  CB  VAL A 134     -30.864 132.765   9.009  1.00 40.76     0.029 C 
ATOM     11  CG1 VAL A 134     -30.749 132.431   7.529  1.00 41.76     0.002 C 
ATOM     12  CG2 VAL A 134     -32.252 132.429   9.532  1.00 40.56     0.002 C 
ENDBRANCH   9  10
END_RES VAL A 134
BEGIN_RES TYR A 338
REMARK  3 active torsions:
REMARK  status: ('A' for Active; 'I' for Inactive)
REMARK    4  A    between atoms: CA   and  CB  
REMARK    5  A    between atoms: CB   and  CG  
REMARK    6  A    between atoms: CZ   and  OH  
ROOT
ATOM     13  CA  TYR A 338     -41.631 124.950   6.058  1.00 38.23     0.164 C 
ENDROOT
BRANCH  13  14
ATOM     14  CB  TYR A 338     -41.621 126.456   6.339  1.00 39.15     0.058 C 
BRANCH  14  15
ATOM     15  CG  TYR A 338     -40.417 127.211   5.825  1.00 39.03    -0.020 A 
ATOM     16  CD2 TYR A 338     -39.431 126.555   5.108  1.00 40.65    -0.002 A 
ATOM     17  CE2 TYR A 338     -38.306 127.212   4.635  1.00 40.91     0.024 A 
ATOM     18  CZ  TYR A 338     -38.149 128.564   4.879  1.00 42.33     0.089 A 
ATOM     19  CE1 TYR A 338     -39.123 129.244   5.588  1.00 40.63     0.024 A 
ATOM     20  CD1 TYR A 338     -40.234 128.565   6.064  1.00 39.27    -0.002 A 
BRANCH  18  21
ATOM     21  OH  TYR A 338     -37.046 129.224   4.413  1.00 43.36    -0.359 OA
ATOM     22  HH  TYR A 338     -36.202 128.788   4.382  1.00  0.00     0.217 HD
ENDBRANCH  18  21
ENDBRANCH  14  15
ENDBRANCH  13  14
END_RES TYR A 338
ENDMDL
