MODEL 1
REMARK VINA RESULT:    -9.365      0.000      0.000
REMARK INTER + INTRA:         -11.494
REMARK INTER:                  -9.365
REMARK INTRA:                  -2.128
REMARK UNBOUND:                -2.128
REMARK  0 active torsions:
REMARK  status: ('A' for Active; 'I' for Inactive)
REMARK       I    between atoms: C3_3  and  O3_21 
REMARK       I    between atoms: C6_6  and  C7_7 
REMARK       I    between atoms: C8_8  and  C9_9 
REMARK       I    between atoms: C10_10  and  C11_11 
REMARK       I    between atoms: C12_12  and  C13_13 
REMARK       I    between atoms: C14_14  and  C15_15 
REMARK       I    between atoms: C23_25  and  O23_43 
REMARK       I    between atoms: C26_28  and  C27_29 
REMARK       I    between atoms: C28_30  and  C29_31 
REMARK       I    between atoms: C30_32  and  C31_33 
REMARK       I    between atoms: C32_34  and  C33_35 
REMARK       I    between atoms: C34_36  and  C35_37 
ROOT
HETATM    1  C1  VFQ A 620     -49.492 144.395  12.943  1.00 22.96    -0.018 C 
HETATM    2  C2  VFQ A 620     -49.976 145.253  14.134  1.00 23.40     0.045 C 
HETATM    3  C3  VFQ A 620     -49.141 146.457  14.564  1.00 22.69     0.123 C 
HETATM    4  C4  VFQ A 620     -48.351 147.106  13.428  1.00 22.06     0.066 C 
HETATM    5  C5  VFQ A 620     -47.832 146.243  12.327  1.00 21.38    -0.074 C 
HETATM    6  C6  VFQ A 620     -48.337 144.985  12.073  1.00 22.58    -0.048 C 
HETATM    7  C7  VFQ A 620     -47.811 144.159  10.967  1.00 22.00     0.009 C 
HETATM    8  C8  VFQ A 620     -46.668 143.445  10.942  1.00 20.93     0.007 C 
HETATM    9  C9  VFQ A 620     -46.108 142.750   9.782  1.00 21.87    -0.062 C 
HETATM   10  C10 VFQ A 620     -45.006 141.989   9.967  1.00 20.24     0.007 C 
HETATM   11  C11 VFQ A 620     -44.314 141.218   8.964  1.00 21.04     0.001 C 
HETATM   12  C12 VFQ A 620     -43.356 140.350   9.323  1.00 22.18     0.007 C 
HETATM   13  C13 VFQ A 620     -42.553 139.435   8.500  1.00 24.17    -0.062 C 
HETATM   14  C14 VFQ A 620     -41.734 138.582   9.155  1.00 25.88     0.007 C 
HETATM   15  C15 VFQ A 620     -40.906 137.538   8.621  1.00 26.51     0.001 C 
HETATM   16  C16 VFQ A 620     -50.759 144.213  12.086  1.00 20.65     0.020 C 
HETATM   17  C17 VFQ A 620     -49.098 143.014  13.499  1.00 21.73     0.020 C 
HETATM   18  C18 VFQ A 620     -46.761 147.005  11.628  1.00 21.05     0.044 C 
HETATM   19  C19 VFQ A 620     -46.831 142.890   8.470  1.00 19.19     0.048 C 
HETATM   20  C20 VFQ A 620     -42.748 139.451   7.013  1.00 21.80     0.048 C 
HETATM   21  O3  VFQ A 620     -49.959 147.425  15.205  1.00 22.00    -0.395 OA
ATOM     22  H3  VFQ A 620     -49.439 148.174  15.472  1.00  0.00     0.210 HD
HETATM   23  C21 VFQ A 620     -34.475 126.885   6.377  1.00 19.54    -0.018 C 
HETATM   24  C22 VFQ A 620     -33.876 126.084   5.224  1.00 19.54     0.045 C 
HETATM   25  C23 VFQ A 620     -32.477 126.425   4.750  1.00 19.54     0.123 C 
HETATM   26  C24 VFQ A 620     -32.332 127.921   4.636  1.00 19.54     0.066 C 
HETATM   27  C25 VFQ A 620     -32.733 128.606   5.918  1.00 19.54    -0.074 C 
HETATM   28  C26 VFQ A 620     -33.781 128.205   6.658  1.00 19.54    -0.048 C 
HETATM   29  C27 VFQ A 620     -34.257 129.027   7.811  1.00 19.54     0.009 C 
HETATM   30  C28 VFQ A 620     -35.122 130.043   7.694  1.00 19.54     0.007 C 
HETATM   31  C29 VFQ A 620     -35.622 130.879   8.826  1.00 37.91    -0.062 C 
HETATM   32  C30 VFQ A 620     -36.487 131.873   8.530  1.00 37.54     0.007 C 
HETATM   33  C31 VFQ A 620     -37.102 132.800   9.445  1.00 35.36     0.001 C 
HETATM   34  C32 VFQ A 620     -37.928 133.763   8.989  1.00 32.59     0.007 C 
HETATM   35  C33 VFQ A 620     -38.644 134.819   9.721  1.00 30.48    -0.062 C 
HETATM   36  C34 VFQ A 620     -39.404 135.670   8.998  1.00 28.06     0.007 C 
HETATM   37  C35 VFQ A 620     -40.201 136.767   9.465  1.00 27.79     0.001 C 
HETATM   38  C36 VFQ A 620     -34.378 126.062   7.653  1.00 19.54     0.020 C 
HETATM   39  C37 VFQ A 620     -35.948 127.068   6.032  1.00 19.54     0.020 C 
HETATM   40  C38 VFQ A 620     -31.876 129.761   6.329  1.00 19.54     0.044 C 
HETATM   41  C39 VFQ A 620     -35.134 130.580  10.214  1.00 38.40     0.048 C 
HETATM   42  C40 VFQ A 620     -38.477 134.882  11.217  1.00 28.72     0.048 C 
HETATM   43  O23 VFQ A 620     -32.283 125.856   3.453  1.00 19.54    -0.395 OA
ATOM     44  H23 VFQ A 620     -31.406 126.069   3.156  1.00  0.00     0.210 HD
ENDROOT
TORSDOF 12
BEGIN_RES PHE A  61
REMARK  2 active torsions:
REMARK  status: ('A' for Active; 'I' for Inactive)
REMARK    1  A    between atoms: CA   and  CB  
REMARK    2  A    between atoms: CB   and  CG  
ROOT
ATOM      1  CA  PHE A  61     -36.237 128.293  12.768  1.00 39.40     0.164 C 
ENDROOT
BRANCH   1   2
ATOM      2  CB  PHE A  61     -36.813 128.951  11.509  1.00 39.41     0.058 C 
BRANCH   2   3
ATOM      3  CG  PHE A  61     -37.087 127.993  10.374  1.00 39.01    -0.020 A 
ATOM      4  CD2 PHE A  61     -36.379 126.808  10.257  1.00 40.32    -0.004 A 
ATOM      5  CE2 PHE A  61     -36.630 125.929   9.210  1.00 40.20    -0.000 A 
ATOM      6  CZ  PHE A  61     -37.593 126.224   8.273  1.00 40.34    -0.000 A 
ATOM      7  CE1 PHE A  61     -38.307 127.397   8.376  1.00 41.51    -0.000 A 
ATOM      8  CD1 PHE A  61     -38.052 128.279   9.419  1.00 39.94    -0.004 A 
ENDBRANCH   2   3
ENDBRANCH   1   2
END_RES PHE A  61
BEGIN_RES VAL A 134
REMARK  1 active torsions:
REMARK  status: ('A' for Active; 'I' for Inactive)
REMARK    3  A    between atoms: CA   and  CB  
ROOT
ATOM      9  CA  VAL A 134     -29.766 132.051   9.815  1.00 40.75     0.159 C 
ENDROOT
BRANCH   9  10
ATOM     10  CB  VAL A 134     -30.864 132.765   9.009  1.00 40.76     0.029 C 
ATOM     11  CG1 VAL A 134     -30.842 132.316   7.555  1.00 41.76     0.002 C 
ATOM     12  CG2 VAL A 134     -32.240 132.549   9.621  1.00 40.56     0.002 C 
ENDBRANCH   9  10
END_RES VAL A 134
BEGIN_RES TYR A 338
REMARK  3 active torsions:
REMARK  status: ('A' for Active; 'I' for Inactive)
REMARK    4  A    between atoms: CA   and  CB  
REMARK    5  A    between atoms: CB   and  CG  
REMARK    6  A    between atoms: CZ   and  OH  
ROOT
ATOM     13  CA  TYR A 338     -41.631 124.950   6.058  1.00 38.23     0.164 C 
ENDROOT
BRANCH  13  14
ATOM     14  CB  TYR A 338     -41.621 126.456   6.339  1.00 39.15     0.058 C 
BRANCH  14  15
ATOM     15  CG  TYR A 338     -40.421 127.213   5.818  1.00 39.03    -0.020 A 
ATOM     16  CD2 TYR A 338     -40.234 128.544   6.149  1.00 40.65    -0.002 A 
ATOM     17  CE2 TYR A 338     -39.153 129.273   5.677  1.00 40.91     0.024 A 
ATOM     18  CZ  TYR A 338     -38.227 128.668   4.849  1.00 42.33     0.089 A 
ATOM     19  CE1 TYR A 338     -38.390 127.337   4.507  1.00 40.63     0.024 A 
ATOM     20  CD1 TYR A 338     -39.484 126.629   4.979  1.00 39.27    -0.002 A 
BRANCH  18  21
ATOM     21  OH  TYR A 338     -37.155 129.375   4.380  1.00 43.36    -0.359 OA
ATOM     22  HH  TYR A 338     -37.217 129.857   3.564  1.00  0.00     0.217 HD
ENDBRANCH  18  21
ENDBRANCH  14  15
ENDBRANCH  13  14
END_RES TYR A 338
ENDMDL
MODEL 2
REMARK VINA RESULT:    -7.949      0.415     16.961
REMARK INTER + INTRA:         -10.078
REMARK INTER:                  -7.059
REMARK INTRA:                  -3.019
REMARK UNBOUND:                -2.128
REMARK  0 active torsions:
REMARK  status: ('A' for Active; 'I' for Inactive)
REMARK       I    between atoms: C3_3  and  O3_21 
REMARK       I    between atoms: C6_6  and  C7_7 
REMARK       I    between atoms: C8_8  and  C9_9 
REMARK       I    between atoms: C10_10  and  C11_11 
REMARK       I    between atoms: C12_12  and  C13_13 
REMARK       I    between atoms: C14_14  and  C15_15 
REMARK       I    between atoms: C23_25  and  O23_43 
REMARK       I    between atoms: C26_28  and  C27_29 
REMARK       I    between atoms: C28_30  and  C29_31 
REMARK       I    between atoms: C30_32  and  C31_33 
REMARK       I    between atoms: C32_34  and  C33_35 
REMARK       I    between atoms: C34_36  and  C35_37 
ROOT
HETATM    1  C1  VFQ A 620     -34.566 126.949   5.954  1.00 22.96    -0.018 C 
HETATM    2  C2  VFQ A 620     -33.981 126.208   4.731  1.00 23.40     0.045 C 
HETATM    3  C3  VFQ A 620     -32.822 126.846   3.967  1.00 22.69     0.123 C 
HETATM    4  C4  VFQ A 620     -31.920 127.731   4.826  1.00 22.06     0.066 C 
HETATM    5  C5  VFQ A 620     -32.526 128.494   5.957  1.00 21.38    -0.074 C 
HETATM    6  C6  VFQ A 620     -33.747 128.159   6.505  1.00 22.58    -0.048 C 
HETATM    7  C7  VFQ A 620     -34.314 128.925   7.633  1.00 22.00     0.009 C 
HETATM    8  C8  VFQ A 620     -34.930 130.123   7.589  1.00 20.93     0.007 C 
HETATM    9  C9  VFQ A 620     -35.357 130.919   8.742  1.00 21.87    -0.062 C 
HETATM   10  C10 VFQ A 620     -36.062 132.049   8.509  1.00 20.24     0.007 C 
HETATM   11  C11 VFQ A 620     -36.583 132.957   9.500  1.00 21.04     0.001 C 
HETATM   12  C12 VFQ A 620     -37.434 133.930   9.142  1.00 22.18     0.007 C 
HETATM   13  C13 VFQ A 620     -38.122 134.935   9.965  1.00 24.17    -0.062 C 
HETATM   14  C14 VFQ A 620     -39.023 135.724   9.339  1.00 25.88     0.007 C 
HETATM   15  C15 VFQ A 620     -39.890 136.722   9.899  1.00 26.51     0.001 C 
HETATM   16  C16 VFQ A 620     -34.674 125.850   7.028  1.00 20.65     0.020 C 
HETATM   17  C17 VFQ A 620     -35.996 127.388   5.586  1.00 21.73     0.020 C 
HETATM   18  C18 VFQ A 620     -31.575 129.578   6.325  1.00 21.05     0.044 C 
HETATM   19  C19 VFQ A 620     -35.026 130.392  10.112  1.00 19.19     0.048 C 
HETATM   20  C20 VFQ A 620     -37.843 134.967  11.438  1.00 21.80     0.048 C 
HETATM   21  O3  VFQ A 620     -32.049 125.850   3.314  1.00 22.00    -0.395 OA
ATOM     22  H3  VFQ A 620     -31.329 126.247   2.839  1.00  0.00     0.210 HD
HETATM   23  C21 VFQ A 620     -49.469 144.434  12.840  1.00 19.54    -0.018 C 
HETATM   24  C22 VFQ A 620     -49.999 145.276  13.997  1.00 19.54     0.045 C 
HETATM   25  C23 VFQ A 620     -49.480 146.691  14.165  1.00 19.54     0.123 C 
HETATM   26  C24 VFQ A 620     -47.982 146.704  13.995  1.00 19.54     0.066 C 
HETATM   27  C25 VFQ A 620     -47.577 146.048  12.699  1.00 19.54    -0.074 C 
HETATM   28  C26 VFQ A 620     -48.179 144.944  12.224  1.00 19.54    -0.048 C 
HETATM   29  C27 VFQ A 620     -47.621 144.220  11.043  1.00 19.54     0.009 C 
HETATM   30  C28 VFQ A 620     -46.664 143.288  11.126  1.00 19.54     0.007 C 
HETATM   31  C29 VFQ A 620     -46.089 142.542   9.965  1.00 37.91    -0.062 C 
HETATM   32  C30 VFQ A 620     -45.120 141.638  10.226  1.00 37.54     0.007 C 
HETATM   33  C31 VFQ A 620     -44.423 140.804   9.281  1.00 35.36     0.001 C 
HETATM   34  C32 VFQ A 620     -43.452 139.966   9.695  1.00 32.59     0.007 C 
HETATM   35  C33 VFQ A 620     -42.602 139.047   8.923  1.00 30.48    -0.062 C 
HETATM   36  C34 VFQ A 620     -41.687 138.326   9.605  1.00 28.06     0.007 C 
HETATM   37  C35 VFQ A 620     -40.753 137.363   9.095  1.00 27.79     0.001 C 
HETATM   38  C36 VFQ A 620     -50.506 144.417  11.727  1.00 19.54     0.020 C 
HETATM   39  C37 VFQ A 620     -49.328 143.019  13.389  1.00 19.54     0.020 C 
HETATM   40  C38 VFQ A 620     -46.461 146.715  11.958  1.00 19.54     0.044 C 
HETATM   41  C39 VFQ A 620     -46.606 142.841   8.589  1.00 38.40     0.048 C 
HETATM   42  C40 VFQ A 620     -42.807 138.979   7.432  1.00 28.72     0.048 C 
HETATM   43  O23 VFQ A 620     -49.783 147.134  15.490  1.00 19.54    -0.395 OA
ATOM     44  H23 VFQ A 620     -49.458 148.021  15.595  1.00  0.00     0.210 HD
ENDROOT
TORSDOF 12
BEGIN_RES PHE A  61
REMARK  2 active torsions:
REMARK  status: ('A' for Active; 'I' for Inactive)
REMARK    1  A    between atoms: CA   and  CB  
REMARK    2  A    between atoms: CB   and  CG  
ROOT
ATOM      1  CA  PHE A  61     -36.237 128.293  12.768  1.00 39.40     0.164 C 
ENDROOT
BRANCH   1   2
ATOM      2  CB  PHE A  61     -36.813 128.951  11.509  1.00 39.41     0.058 C 
BRANCH   2   3
ATOM      3  CG  PHE A  61     -37.000 128.010  10.343  1.00 39.01    -0.020 A 
ATOM      4  CD2 PHE A  61     -36.204 126.885  10.201  1.00 40.32    -0.004 A 
ATOM      5  CE2 PHE A  61     -36.375 126.021   9.127  1.00 40.20    -0.000 A 
ATOM      6  CZ  PHE A  61     -37.347 126.271   8.184  1.00 40.34    -0.000 A 
ATOM      7  CE1 PHE A  61     -38.148 127.384   8.312  1.00 41.51    -0.000 A 
ATOM      8  CD1 PHE A  61     -37.973 128.251   9.383  1.00 39.94    -0.004 A 
ENDBRANCH   2   3
ENDBRANCH   1   2
END_RES PHE A  61
BEGIN_RES VAL A 134
REMARK  1 active torsions:
REMARK  status: ('A' for Active; 'I' for Inactive)
REMARK    3  A    between atoms: CA   and  CB  
ROOT
ATOM      9  CA  VAL A 134     -29.766 132.051   9.815  1.00 40.75     0.159 C 
ENDROOT
BRANCH   9  10
ATOM     10  CB  VAL A 134     -30.864 132.765   9.009  1.00 40.76     0.029 C 
ATOM     11  CG1 VAL A 134     -30.931 132.219   7.590  1.00 41.76     0.002 C 
ATOM     12  CG2 VAL A 134     -32.219 132.662   9.692  1.00 40.56     0.002 C 
ENDBRANCH   9  10
END_RES VAL A 134
BEGIN_RES TYR A 338
REMARK  3 active torsions:
REMARK  status: ('A' for Active; 'I' for Inactive)
REMARK    4  A    between atoms: CA   and  CB  
REMARK    5  A    between atoms: CB   and  CG  
REMARK    6  A    between atoms: CZ   and  OH  
ROOT
ATOM     13  CA  TYR A 338     -41.631 124.950   6.058  1.00 38.23     0.164 C 
ENDROOT
BRANCH  13  14
ATOM     14  CB  TYR A 338     -41.621 126.456   6.339  1.00 39.15     0.058 C 
BRANCH  14  15
ATOM     15  CG  TYR A 338     -40.438 127.218   5.788  1.00 39.03    -0.020 A 
ATOM     16  CD2 TYR A 338     -40.230 128.541   6.142  1.00 40.65    -0.002 A 
ATOM     17  CE2 TYR A 338     -39.165 129.275   5.643  1.00 40.91     0.024 A 
ATOM     18  CZ  TYR A 338     -38.276 128.684   4.765  1.00 42.33     0.089 A 
ATOM     19  CE1 TYR A 338     -38.460 127.363   4.399  1.00 40.63     0.024 A 
ATOM     20  CD1 TYR A 338     -39.539 126.650   4.899  1.00 39.27    -0.002 A 
BRANCH  18  21
ATOM     21  OH  TYR A 338     -37.220 129.397   4.270  1.00 43.36    -0.359 OA
ATOM     22  HH  TYR A 338     -37.363 130.233   3.841  1.00  0.00     0.217 HD
ENDBRANCH  18  21
ENDBRANCH  14  15
ENDBRANCH  13  14
END_RES TYR A 338
ENDMDL
