MODEL 1
REMARK VINA RESULT:    -9.805      0.000      0.000
REMARK INTER + INTRA:         -13.019
REMARK INTER:                  -9.805
REMARK INTRA:                  -3.214
REMARK UNBOUND:                -3.214
REMARK  0 active torsions:
REMARK  status: ('A' for Active; 'I' for Inactive)
REMARK       I    between atoms: C3_3  and  O3_21 
REMARK       I    between atoms: C6_6  and  C7_7 
REMARK       I    between atoms: C8_8  and  C9_9 
REMARK       I    between atoms: C10_10  and  C11_11 
REMARK       I    between atoms: C12_12  and  C13_13 
REMARK       I    between atoms: C14_14  and  C15_15 
REMARK       I    between atoms: C23_25  and  O23_43 
REMARK       I    between atoms: C26_28  and  C27_29 
REMARK       I    between atoms: C28_30  and  C29_31 
REMARK       I    between atoms: C30_32  and  C31_33 
REMARK       I    between atoms: C32_34  and  C33_35 
REMARK       I    between atoms: C34_36  and  C35_37 
ROOT
HETATM    1  C1  VFQ N1621     -34.361 127.007   6.302  1.00 51.88    -0.018 C 
HETATM    2  C2  VFQ N1621     -33.967 126.435   4.947  1.00 51.88     0.045 C 
HETATM    3  C3  VFQ N1621     -32.797 127.089   4.246  1.00 51.88     0.123 C 
HETATM    4  C4  VFQ N1621     -31.716 127.413   5.248  1.00 51.88     0.066 C 
HETATM    5  C5  VFQ N1621     -32.270 128.343   6.285  1.00 51.88    -0.074 C 
HETATM    6  C6  VFQ N1621     -33.469 128.118   6.827  1.00 51.88    -0.048 C 
HETATM    7  C7  VFQ N1621     -33.993 128.925   7.960  1.00 51.88     0.009 C 
HETATM    8  C8  VFQ N1621     -34.600 130.100   7.779  1.00 51.88     0.007 C 
HETATM    9  C9  VFQ N1621     -35.175 130.907   8.863  1.00 51.88    -0.062 C 
HETATM   10  C10 VFQ N1621     -36.071 131.813   8.471  1.00 51.88     0.007 C 
HETATM   11  C11 VFQ N1621     -36.826 132.715   9.325  1.00 51.88     0.001 C 
HETATM   12  C12 VFQ N1621     -37.676 133.497   8.673  1.00 51.88     0.007 C 
HETATM   13  C13 VFQ N1621     -38.572 134.439   9.356  1.00 51.88    -0.062 C 
HETATM   14  C14 VFQ N1621     -39.379 135.207   8.613  1.00 51.88     0.007 C 
HETATM   15  C15 VFQ N1621     -40.319 136.135   9.227  1.00 51.88     0.001 C 
HETATM   16  C16 VFQ N1621     -34.440 125.850   7.285  1.00 51.88     0.020 C 
HETATM   17  C17 VFQ N1621     -35.752 127.579   6.158  1.00 51.88     0.020 C 
HETATM   18  C18 VFQ N1621     -31.291 129.321   6.857  1.00 51.88     0.044 C 
HETATM   19  C19 VFQ N1621     -34.790 130.719  10.297  1.00 51.88     0.048 C 
HETATM   20  C20 VFQ N1621     -38.600 134.491  10.852  1.00 51.88     0.048 C 
HETATM   21  O3  VFQ N1621     -32.258 126.166   3.295  1.00 51.88    -0.395 OA
ATOM     22  H3  VFQ N1621     -31.523 126.576   2.854  1.00  0.00     0.210 HD
HETATM   23  C21 VFQ N1621     -49.796 144.810  10.062  1.00 48.43    -0.018 C 
HETATM   24  C22 VFQ N1621     -50.743 145.697  10.858  1.00 44.61     0.045 C 
HETATM   25  C23 VFQ N1621     -50.095 146.693  11.800  1.00 44.41     0.123 C 
HETATM   26  C24 VFQ N1621     -48.927 146.068  12.522  1.00 41.53     0.066 C 
HETATM   27  C25 VFQ N1621     -47.931 145.632  11.494  1.00 37.72    -0.074 C 
HETATM   28  C26 VFQ N1621     -48.329 144.932  10.433  1.00 43.52    -0.048 C 
HETATM   29  C27 VFQ N1621     -47.358 144.263   9.536  1.00 44.60     0.009 C 
HETATM   30  C28 VFQ N1621     -46.829 143.080   9.823  1.00 43.22     0.007 C 
HETATM   31  C29 VFQ N1621     -45.900 142.409   8.898  1.00 51.88    -0.062 C 
HETATM   32  C30 VFQ N1621     -45.499 141.178   9.234  1.00 51.88     0.007 C 
HETATM   33  C31 VFQ N1621     -44.585 140.359   8.448  1.00 51.88     0.001 C 
HETATM   34  C32 VFQ N1621     -43.764 139.551   9.117  1.00 51.88     0.007 C 
HETATM   35  C33 VFQ N1621     -42.804 138.677   8.427  1.00 51.88    -0.062 C 
HETATM   36  C34 VFQ N1621     -41.993 137.868   9.125  1.00 51.88     0.007 C 
HETATM   37  C35 VFQ N1621     -41.037 136.971   8.480  1.00 51.88     0.001 C 
HETATM   38  C36 VFQ N1621     -49.856 145.199   8.597  1.00 47.48     0.020 C 
HETATM   39  C37 VFQ N1621     -50.321 143.388  10.232  1.00 54.25     0.020 C 
HETATM   40  C38 VFQ N1621     -46.507 146.022  11.712  1.00 37.77     0.044 C 
HETATM   41  C39 VFQ N1621     -45.435 143.086   7.647  1.00 51.88     0.048 C 
HETATM   42  C40 VFQ N1621     -42.759 138.711   6.941  1.00 51.88     0.048 C 
HETATM   43  O23 VFQ N1621     -51.059 147.114  12.765  1.00 48.83    -0.395 OA
ATOM     44  H23 VFQ N1621     -50.653 147.737  13.355  1.00  0.00     0.210 HD
ENDROOT
TORSDOF 12
BEGIN_RES PHE A  61
REMARK  2 active torsions:
REMARK  status: ('A' for Active; 'I' for Inactive)
REMARK    1  A    between atoms: CA   and  CB  
REMARK    2  A    between atoms: CB   and  CG  
ROOT
ATOM      1  CA  PHE A  61     -36.237 128.293  12.768  1.00 39.40     0.164 C 
ENDROOT
BRANCH   1   2
ATOM      2  CB  PHE A  61     -36.813 128.951  11.509  1.00 39.41     0.058 C 
BRANCH   2   3
ATOM      3  CG  PHE A  61     -37.030 128.004  10.353  1.00 39.01    -0.020 A 
ATOM      4  CD2 PHE A  61     -36.277 126.846  10.231  1.00 40.32    -0.004 A 
ATOM      5  CE2 PHE A  61     -36.475 125.977   9.165  1.00 40.20    -0.000 A 
ATOM      6  CZ  PHE A  61     -37.430 126.253   8.213  1.00 40.34    -0.000 A 
ATOM      7  CE1 PHE A  61     -38.187 127.398   8.321  1.00 41.51    -0.000 A 
ATOM      8  CD1 PHE A  61     -37.985 128.271   9.383  1.00 39.94    -0.004 A 
ENDBRANCH   2   3
ENDBRANCH   1   2
END_RES PHE A  61
BEGIN_RES VAL A 134
REMARK  1 active torsions:
REMARK  status: ('A' for Active; 'I' for Inactive)
REMARK    3  A    between atoms: CA   and  CB  
ROOT
ATOM      9  CA  VAL A 134     -29.766 132.051   9.815  1.00 40.75     0.159 C 
ENDROOT
BRANCH   9  10
ATOM     10  CB  VAL A 134     -30.864 132.765   9.009  1.00 40.76     0.029 C 
ATOM     11  CG1 VAL A 134     -31.175 132.002   7.730  1.00 41.76     0.002 C 
ATOM     12  CG2 VAL A 134     -32.124 132.969   9.836  1.00 40.56     0.002 C 
ENDBRANCH   9  10
END_RES VAL A 134
BEGIN_RES TYR A 338
REMARK  3 active torsions:
REMARK  status: ('A' for Active; 'I' for Inactive)
REMARK    4  A    between atoms: CA   and  CB  
REMARK    5  A    between atoms: CB   and  CG  
REMARK    6  A    between atoms: CZ   and  OH  
ROOT
ATOM     13  CA  TYR A 338     -41.631 124.950   6.058  1.00 38.23     0.164 C 
ENDROOT
BRANCH  13  14
ATOM     14  CB  TYR A 338     -41.621 126.456   6.339  1.00 39.15     0.058 C 
BRANCH  14  15
ATOM     15  CG  TYR A 338     -40.423 127.214   5.813  1.00 39.03    -0.020 A 
ATOM     16  CD2 TYR A 338     -40.252 128.553   6.119  1.00 40.65    -0.002 A 
ATOM     17  CE2 TYR A 338     -39.174 129.282   5.642  1.00 40.91     0.024 A 
ATOM     18  CZ  TYR A 338     -38.235 128.670   4.834  1.00 42.33     0.089 A 
ATOM     19  CE1 TYR A 338     -38.382 127.331   4.518  1.00 40.63     0.024 A 
ATOM     20  CD1 TYR A 338     -39.474 126.622   4.995  1.00 39.27    -0.002 A 
BRANCH  18  21
ATOM     21  OH  TYR A 338     -37.166 129.378   4.360  1.00 43.36    -0.359 OA
ATOM     22  HH  TYR A 338     -37.018 130.272   4.645  1.00  0.00     0.217 HD
ENDBRANCH  18  21
ENDBRANCH  14  15
ENDBRANCH  13  14
END_RES TYR A 338
ENDMDL
MODEL 2
REMARK VINA RESULT:    -7.306      1.430     16.861
REMARK INTER + INTRA:         -10.519
REMARK INTER:                 -10.259
REMARK INTRA:                  -0.260
REMARK UNBOUND:                -3.214
REMARK  0 active torsions:
REMARK  status: ('A' for Active; 'I' for Inactive)
REMARK       I    between atoms: C3_3  and  O3_21 
REMARK       I    between atoms: C6_6  and  C7_7 
REMARK       I    between atoms: C8_8  and  C9_9 
REMARK       I    between atoms: C10_10  and  C11_11 
REMARK       I    between atoms: C12_12  and  C13_13 
REMARK       I    between atoms: C14_14  and  C15_15 
REMARK       I    between atoms: C23_25  and  O23_43 
REMARK       I    between atoms: C26_28  and  C27_29 
REMARK       I    between atoms: C28_30  and  C29_31 
REMARK       I    between atoms: C30_32  and  C31_33 
REMARK       I    between atoms: C32_34  and  C33_35 
REMARK       I    between atoms: C34_36  and  C35_37 
ROOT
HETATM    1  C1  VFQ N1621     -49.692 145.699  11.873  1.00 51.88    -0.018 C 
HETATM    2  C2  VFQ N1621     -50.564 145.822  13.115  1.00 51.88     0.045 C 
HETATM    3  C3  VFQ N1621     -49.976 146.572  14.290  1.00 51.88     0.123 C 
HETATM    4  C4  VFQ N1621     -49.224 147.785  13.797  1.00 51.88     0.066 C 
HETATM    5  C5  VFQ N1621     -48.127 147.343  12.875  1.00 51.88    -0.074 C 
HETATM    6  C6  VFQ N1621     -48.360 146.425  11.936  1.00 51.88    -0.048 C 
HETATM    7  C7  VFQ N1621     -47.348 146.065  10.908  1.00 51.88     0.009 C 
HETATM    8  C8  VFQ N1621     -46.376 145.181  11.142  1.00 51.88     0.007 C 
HETATM    9  C9  VFQ N1621     -45.385 144.760  10.143  1.00 51.88    -0.062 C 
HETATM   10  C10 VFQ N1621     -44.770 143.609  10.415  1.00 51.88     0.007 C 
HETATM   11  C11 VFQ N1621     -43.782 142.935   9.590  1.00 51.88     0.001 C 
HETATM   12  C12 VFQ N1621     -43.351 141.783  10.087  1.00 51.88     0.007 C 
HETATM   13  C13 VFQ N1621     -42.395 140.921   9.382  1.00 51.88    -0.062 C 
HETATM   14  C14 VFQ N1621     -41.998 139.787   9.974  1.00 51.88     0.007 C 
HETATM   15  C15 VFQ N1621     -41.081 138.867   9.314  1.00 51.88     0.001 C 
HETATM   16  C16 VFQ N1621     -50.518 146.160  10.683  1.00 51.88     0.020 C 
HETATM   17  C17 VFQ N1621     -49.395 144.231  11.680  1.00 51.88     0.020 C 
HETATM   18  C18 VFQ N1621     -46.894 148.193  12.893  1.00 51.88     0.044 C 
HETATM   19  C19 VFQ N1621     -45.096 145.558   8.911  1.00 51.88     0.048 C 
HETATM   20  C20 VFQ N1621     -41.921 141.297   8.012  1.00 51.88     0.048 C 
HETATM   21  O3  VFQ N1621     -51.043 147.023  15.128  1.00 51.88    -0.395 OA
ATOM     22  H3  VFQ N1621     -50.673 147.494  15.866  1.00  0.00     0.210 HD
HETATM   23  C21 VFQ N1621     -34.011 128.276   7.418  1.00 48.43    -0.018 C 
HETATM   24  C22 VFQ N1621     -33.081 127.410   6.580  1.00 44.61     0.045 C 
HETATM   25  C23 VFQ N1621     -31.773 128.049   6.154  1.00 44.41     0.123 C 
HETATM   26  C24 VFQ N1621     -31.988 129.482   5.731  1.00 41.53     0.066 C 
HETATM   27  C25 VFQ N1621     -32.550 130.226   6.901  1.00 37.72    -0.074 C 
HETATM   28  C26 VFQ N1621     -33.574 129.721   7.585  1.00 43.52    -0.048 C 
HETATM   29  C27 VFQ N1621     -34.324 130.531   8.574  1.00 44.60     0.009 C 
HETATM   30  C28 VFQ N1621     -35.284 131.374   8.215  1.00 43.22     0.007 C 
HETATM   31  C29 VFQ N1621     -36.049 132.138   9.215  1.00 51.88    -0.062 C 
HETATM   32  C30 VFQ N1621     -37.060 132.886   8.758  1.00 51.88     0.007 C 
HETATM   33  C31 VFQ N1621     -37.927 133.708   9.592  1.00 51.88     0.001 C 
HETATM   34  C32 VFQ N1621     -38.381 134.844   9.064  1.00 51.88     0.007 C 
HETATM   35  C33 VFQ N1621     -39.266 135.748   9.812  1.00 51.88    -0.062 C 
HETATM   36  C34 VFQ N1621     -39.713 136.883   9.253  1.00 51.88     0.007 C 
HETATM   37  C35 VFQ N1621     -40.608 137.800   9.954  1.00 51.88     0.001 C 
HETATM   38  C36 VFQ N1621     -34.070 127.726   8.831  1.00 47.48     0.020 C 
HETATM   39  C37 VFQ N1621     -35.386 128.156   6.768  1.00 54.25     0.020 C 
HETATM   40  C38 VFQ N1621     -31.910 131.527   7.255  1.00 37.77     0.044 C 
HETATM   41  C39 VFQ N1621     -35.698 132.073  10.669  1.00 51.88     0.048 C 
HETATM   42  C40 VFQ N1621     -39.653 135.371  11.198  1.00 51.88     0.048 C 
HETATM   43  O23 VFQ N1621     -31.240 127.320   5.048  1.00 48.83    -0.395 OA
ATOM     44  H23 VFQ N1621     -30.421 127.721   4.781  1.00  0.00     0.210 HD
ENDROOT
TORSDOF 12
BEGIN_RES PHE A  61
REMARK  2 active torsions:
REMARK  status: ('A' for Active; 'I' for Inactive)
REMARK    1  A    between atoms: CA   and  CB  
REMARK    2  A    between atoms: CB   and  CG  
ROOT
ATOM      1  CA  PHE A  61     -36.237 128.293  12.768  1.00 39.40     0.164 C 
ENDROOT
BRANCH   1   2
ATOM      2  CB  PHE A  61     -36.813 128.951  11.509  1.00 39.41     0.058 C 
BRANCH   2   3
ATOM      3  CG  PHE A  61     -37.041 128.001  10.357  1.00 39.01    -0.020 A 
ATOM      4  CD2 PHE A  61     -36.322 126.821  10.254  1.00 40.32    -0.004 A 
ATOM      5  CE2 PHE A  61     -36.530 125.950   9.193  1.00 40.20    -0.000 A 
ATOM      6  CZ  PHE A  61     -37.463 126.247   8.225  1.00 40.34    -0.000 A 
ATOM      7  CE1 PHE A  61     -38.188 127.414   8.314  1.00 41.51    -0.000 A 
ATOM      8  CD1 PHE A  61     -37.975 128.289   9.372  1.00 39.94    -0.004 A 
ENDBRANCH   2   3
ENDBRANCH   1   2
END_RES PHE A  61
BEGIN_RES VAL A 134
REMARK  1 active torsions:
REMARK  status: ('A' for Active; 'I' for Inactive)
REMARK    3  A    between atoms: CA   and  CB  
ROOT
ATOM      9  CA  VAL A 134     -29.766 132.051   9.815  1.00 40.75     0.159 C 
ENDROOT
BRANCH   9  10
ATOM     10  CB  VAL A 134     -30.864 132.765   9.009  1.00 40.76     0.029 C 
ATOM     11  CG1 VAL A 134     -32.108 132.973   9.861  1.00 41.76     0.002 C 
ATOM     12  CG2 VAL A 134     -30.372 134.087   8.439  1.00 40.56     0.002 C 
ENDBRANCH   9  10
END_RES VAL A 134
BEGIN_RES TYR A 338
REMARK  3 active torsions:
REMARK  status: ('A' for Active; 'I' for Inactive)
REMARK    4  A    between atoms: CA   and  CB  
REMARK    5  A    between atoms: CB   and  CG  
REMARK    6  A    between atoms: CZ   and  OH  
ROOT
ATOM     13  CA  TYR A 338     -41.631 124.950   6.058  1.00 38.23     0.164 C 
ENDROOT
BRANCH  13  14
ATOM     14  CB  TYR A 338     -41.621 126.456   6.339  1.00 39.15     0.058 C 
BRANCH  14  15
ATOM     15  CG  TYR A 338     -40.411 127.209   5.835  1.00 39.03    -0.020 A 
ATOM     16  CD2 TYR A 338     -40.256 128.555   6.120  1.00 40.65    -0.002 A 
ATOM     17  CE2 TYR A 338     -39.167 129.281   5.661  1.00 40.91     0.024 A 
ATOM     18  CZ  TYR A 338     -38.200 128.657   4.895  1.00 42.33     0.089 A 
ATOM     19  CE1 TYR A 338     -38.331 127.312   4.601  1.00 40.63     0.024 A 
ATOM     20  CD1 TYR A 338     -39.434 126.607   5.058  1.00 39.27    -0.002 A 
BRANCH  18  21
ATOM     21  OH  TYR A 338     -37.121 129.362   4.441  1.00 43.36    -0.359 OA
ATOM     22  HH  TYR A 338     -36.399 129.565   5.025  1.00  0.00     0.217 HD
ENDBRANCH  18  21
ENDBRANCH  14  15
ENDBRANCH  13  14
END_RES TYR A 338
ENDMDL
