MODEL 1
REMARK VINA RESULT:    -6.967      0.000      0.000
REMARK INTER + INTRA:         -13.513
REMARK INTER:                  -6.967
REMARK INTRA:                  -6.546
REMARK UNBOUND:                -6.546
REMARK  0 active torsions:
REMARK  status: ('A' for Active; 'I' for Inactive)
REMARK       I    between atoms: C3_3  and  O3_21 
REMARK       I    between atoms: C6_6  and  C7_7 
REMARK       I    between atoms: C8_8  and  C9_9 
REMARK       I    between atoms: C10_10  and  C11_11 
REMARK       I    between atoms: C12_12  and  C13_13 
REMARK       I    between atoms: C14_14  and  C15_15 
REMARK       I    between atoms: C23_25  and  O23_43 
REMARK       I    between atoms: C26_28  and  C27_29 
REMARK       I    between atoms: C28_30  and  C29_31 
REMARK       I    between atoms: C30_32  and  C31_33 
REMARK       I    between atoms: C32_34  and  C33_35 
REMARK       I    between atoms: C34_36  and  C35_37 
ROOT
HETATM    1  C1  VFQ 1 617     -49.620 149.989   7.390  1.00 38.90    -0.018 C 
HETATM    2  C2  VFQ 1 617     -50.105 149.655   5.980  1.00 38.90     0.045 C 
HETATM    3  C3  VFQ 1 617     -51.393 148.841   5.905  1.00 38.90     0.123 C 
HETATM    4  C4  VFQ 1 617     -52.187 148.989   7.189  1.00 38.90     0.066 C 
HETATM    5  C5  VFQ 1 617     -51.307 148.450   8.279  1.00 38.90    -0.074 C 
HETATM    6  C6  VFQ 1 617     -50.103 149.010   8.434  1.00 38.90    -0.048 C 
HETATM    7  C7  VFQ 1 617     -49.164 148.527   9.461  1.00 38.90     0.009 C 
HETATM    8  C8  VFQ 1 617     -49.049 147.200   9.473  1.00 38.90     0.007 C 
HETATM    9  C9  VFQ 1 617     -48.021 146.520  10.282  1.00 38.90    -0.062 C 
HETATM   10  C10 VFQ 1 617     -47.749 145.256   9.934  1.00 38.90     0.007 C 
HETATM   11  C11 VFQ 1 617     -46.684 144.452  10.523  1.00 38.90     0.001 C 
HETATM   12  C12 VFQ 1 617     -46.366 143.300   9.947  1.00 38.90     0.007 C 
HETATM   13  C13 VFQ 1 617     -45.251 142.465  10.424  1.00 38.90    -0.062 C 
HETATM   14  C14 VFQ 1 617     -44.918 141.423   9.648  1.00 38.90     0.007 C 
HETATM   15  C15 VFQ 1 617     -43.828 140.492   9.916  1.00 38.90     0.001 C 
HETATM   16  C16 VFQ 1 617     -50.181 151.350   7.795  1.00 38.90     0.020 C 
HETATM   17  C17 VFQ 1 617     -48.098 150.043   7.419  1.00 38.90     0.020 C 
HETATM   18  C18 VFQ 1 617     -52.042 147.737   9.388  1.00 38.90     0.044 C 
HETATM   19  C19 VFQ 1 617     -47.314 147.250  11.388  1.00 38.90     0.048 C 
HETATM   20  C20 VFQ 1 617     -44.548 142.830  11.697  1.00 38.90     0.048 C 
HETATM   21  O3  VFQ 1 617     -52.195 149.291   4.810  1.00 38.90    -0.395 OA
ATOM     22  H3  VFQ 1 617     -52.997 148.784   4.763  1.00  0.00     0.210 HD
HETATM   23  C21 VFQ 1 617     -35.265 130.955   8.188  1.00 22.20    -0.018 C 
HETATM   24  C22 VFQ 1 617     -34.119 130.242   8.895  1.00 22.20     0.045 C 
HETATM   25  C23 VFQ 1 617     -33.989 130.467  10.386  1.00 22.20     0.123 C 
HETATM   26  C24 VFQ 1 617     -34.628 131.780  10.765  1.00 22.20     0.066 C 
HETATM   27  C25 VFQ 1 617     -36.060 131.672  10.357  1.00 22.20    -0.074 C 
HETATM   28  C26 VFQ 1 617     -36.351 131.468   9.087  1.00 22.20    -0.048 C 
HETATM   29  C27 VFQ 1 617     -37.608 131.908   8.465  1.00 22.20     0.009 C 
HETATM   30  C28 VFQ 1 617     -38.171 133.038   8.880  1.00 22.20     0.007 C 
HETATM   31  C29 VFQ 1 617     -39.298 133.625   8.107  1.00 38.90    -0.062 C 
HETATM   32  C30 VFQ 1 617     -39.744 134.781   8.613  1.00 38.90     0.007 C 
HETATM   33  C31 VFQ 1 617     -40.837 135.579   8.078  1.00 38.90     0.001 C 
HETATM   34  C32 VFQ 1 617     -41.158 136.667   8.767  1.00 38.90     0.007 C 
HETATM   35  C33 VFQ 1 617     -42.263 137.559   8.386  1.00 38.90    -0.062 C 
HETATM   36  C34 VFQ 1 617     -42.540 138.566   9.233  1.00 38.90     0.007 C 
HETATM   37  C35 VFQ 1 617     -43.614 139.531   9.029  1.00 38.90     0.001 C 
HETATM   38  C36 VFQ 1 617     -35.822 130.012   7.149  1.00 22.20     0.020 C 
HETATM   39  C37 VFQ 1 617     -34.731 132.185   7.478  1.00 22.20     0.020 C 
HETATM   40  C38 VFQ 1 617     -37.109 131.655  11.411  1.00 22.20     0.044 C 
HETATM   41  C39 VFQ 1 617     -39.829 132.970   6.866  1.00 38.90     0.048 C 
HETATM   42  C40 VFQ 1 617     -43.014 137.276   7.120  1.00 38.90     0.048 C 
HETATM   43  O23 VFQ 1 617     -32.598 130.503  10.674  1.00 22.20    -0.395 OA
ATOM     44  H23 VFQ 1 617     -32.516 130.644  11.610  1.00  0.00     0.210 HD
ENDROOT
TORSDOF 12
BEGIN_RES PHE A  61
REMARK  2 active torsions:
REMARK  status: ('A' for Active; 'I' for Inactive)
REMARK    1  A    between atoms: CA   and  CB  
REMARK    2  A    between atoms: CB   and  CG  
ROOT
ATOM      1  CA  PHE A  61     -36.237 128.293  12.768  1.00 39.40     0.164 C 
ENDROOT
BRANCH   1   2
ATOM      2  CB  PHE A  61     -36.813 128.951  11.509  1.00 39.41     0.058 C 
BRANCH   2   3
ATOM      3  CG  PHE A  61     -36.686 128.118  10.256  1.00 39.01    -0.020 A 
ATOM      4  CD2 PHE A  61     -37.733 128.026   9.353  1.00 40.32    -0.004 A 
ATOM      5  CE2 PHE A  61     -37.616 127.257   8.202  1.00 40.20    -0.000 A 
ATOM      6  CZ  PHE A  61     -36.449 126.576   7.939  1.00 40.34    -0.000 A 
ATOM      7  CE1 PHE A  61     -35.398 126.659   8.825  1.00 41.51    -0.000 A 
ATOM      8  CD1 PHE A  61     -35.518 127.422   9.979  1.00 39.94    -0.004 A 
ENDBRANCH   2   3
ENDBRANCH   1   2
END_RES PHE A  61
BEGIN_RES VAL A 134
REMARK  1 active torsions:
REMARK  status: ('A' for Active; 'I' for Inactive)
REMARK    3  A    between atoms: CA   and  CB  
ROOT
ATOM      9  CA  VAL A 134     -29.766 132.051   9.815  1.00 40.75     0.159 C 
ENDROOT
BRANCH   9  10
ATOM     10  CB  VAL A 134     -30.864 132.765   9.009  1.00 40.76     0.029 C 
ATOM     11  CG1 VAL A 134     -31.377 131.871   7.890  1.00 41.76     0.002 C 
ATOM     12  CG2 VAL A 134     -32.007 133.224   9.901  1.00 40.56     0.002 C 
ENDBRANCH   9  10
END_RES VAL A 134
BEGIN_RES TYR A 338
REMARK  3 active torsions:
REMARK  status: ('A' for Active; 'I' for Inactive)
REMARK    4  A    between atoms: CA   and  CB  
REMARK    5  A    between atoms: CB   and  CG  
REMARK    6  A    between atoms: CZ   and  OH  
ROOT
ATOM     13  CA  TYR A 338     -41.631 124.950   6.058  1.00 38.23     0.164 C 
ENDROOT
BRANCH  13  14
ATOM     14  CB  TYR A 338     -41.621 126.456   6.339  1.00 39.15     0.058 C 
BRANCH  14  15
ATOM     15  CG  TYR A 338     -40.409 127.209   5.840  1.00 39.03    -0.020 A 
ATOM     16  CD2 TYR A 338     -39.444 126.562   5.087  1.00 40.65    -0.002 A 
ATOM     17  CE2 TYR A 338     -38.312 127.217   4.626  1.00 40.91     0.024 A 
ATOM     18  CZ  TYR A 338     -38.126 128.555   4.919  1.00 42.33     0.089 A 
ATOM     19  CE1 TYR A 338     -39.080 129.224   5.666  1.00 40.63     0.024 A 
ATOM     20  CD1 TYR A 338     -40.198 128.548   6.129  1.00 39.27    -0.002 A 
BRANCH  18  21
ATOM     21  OH  TYR A 338     -37.017 129.212   4.466  1.00 43.36    -0.359 OA
ATOM     22  HH  TYR A 338     -36.544 128.890   3.708  1.00  0.00     0.217 HD
ENDBRANCH  18  21
ENDBRANCH  14  15
ENDBRANCH  13  14
END_RES TYR A 338
ENDMDL
MODEL 2
REMARK VINA RESULT:    -5.851      2.585     16.648
REMARK INTER + INTRA:         -12.396
REMARK INTER:                  -9.932
REMARK INTRA:                  -2.464
REMARK UNBOUND:                -6.546
REMARK  0 active torsions:
REMARK  status: ('A' for Active; 'I' for Inactive)
REMARK       I    between atoms: C3_3  and  O3_21 
REMARK       I    between atoms: C6_6  and  C7_7 
REMARK       I    between atoms: C8_8  and  C9_9 
REMARK       I    between atoms: C10_10  and  C11_11 
REMARK       I    between atoms: C12_12  and  C13_13 
REMARK       I    between atoms: C14_14  and  C15_15 
REMARK       I    between atoms: C23_25  and  O23_43 
REMARK       I    between atoms: C26_28  and  C27_29 
REMARK       I    between atoms: C28_30  and  C29_31 
REMARK       I    between atoms: C30_32  and  C31_33 
REMARK       I    between atoms: C32_34  and  C33_35 
REMARK       I    between atoms: C34_36  and  C35_37 
ROOT
HETATM    1  C1  VFQ 1 617     -34.235 127.095   6.515  1.00 38.90    -0.018 C 
HETATM    2  C2  VFQ 1 617     -34.275 127.220   4.993  1.00 38.90     0.045 C 
HETATM    3  C3  VFQ 1 617     -33.175 128.079   4.376  1.00 38.90     0.123 C 
HETATM    4  C4  VFQ 1 617     -31.994 128.185   5.322  1.00 38.90     0.066 C 
HETATM    5  C5  VFQ 1 617     -32.522 128.846   6.562  1.00 38.90    -0.074 C 
HETATM    6  C6  VFQ 1 617     -33.542 128.255   7.190  1.00 38.90    -0.048 C 
HETATM    7  C7  VFQ 1 617     -34.140 128.848   8.399  1.00 38.90     0.009 C 
HETATM    8  C8  VFQ 1 617     -34.384 130.151   8.270  1.00 38.90     0.007 C 
HETATM    9  C9  VFQ 1 617     -35.156 130.898   9.280  1.00 38.90    -0.062 C 
HETATM   10  C10 VFQ 1 617     -35.658 132.072   8.876  1.00 38.90     0.007 C 
HETATM   11  C11 VFQ 1 617     -36.551 132.903   9.677  1.00 38.90     0.001 C 
HETATM   12  C12 VFQ 1 617     -37.159 133.927   9.092  1.00 38.90     0.007 C 
HETATM   13  C13 VFQ 1 617     -38.138 134.768   9.801  1.00 38.90    -0.062 C 
HETATM   14  C14 VFQ 1 617     -38.814 135.650   9.050  1.00 38.90     0.007 C 
HETATM   15  C15 VFQ 1 617     -39.848 136.552   9.543  1.00 38.90     0.001 C 
HETATM   16  C16 VFQ 1 617     -33.432 125.850   6.886  1.00 38.90     0.020 C 
HETATM   17  C17 VFQ 1 617     -35.649 126.965   7.065  1.00 38.90     0.020 C 
HETATM   18  C18 VFQ 1 617     -31.543 129.769   7.249  1.00 38.90     0.044 C 
HETATM   19  C19 VFQ 1 617     -35.382 130.321  10.648  1.00 38.90     0.048 C 
HETATM   20  C20 VFQ 1 617     -38.344 134.577  11.274  1.00 38.90     0.048 C 
HETATM   21  O3  VFQ 1 617     -32.732 127.500   3.146  1.00 38.90    -0.395 OA
ATOM     22  H3  VFQ 1 617     -32.047 128.035   2.762  1.00  0.00     0.210 HD
HETATM   23  C21 VFQ 1 617     -49.460 145.207   9.544  1.00 22.20    -0.018 C 
HETATM   24  C22 VFQ 1 617     -50.380 145.963  10.494  1.00 22.20     0.045 C 
HETATM   25  C23 VFQ 1 617     -49.991 145.977  11.957  1.00 22.20     0.123 C 
HETATM   26  C24 VFQ 1 617     -49.128 144.780  12.271  1.00 22.20     0.066 C 
HETATM   27  C25 VFQ 1 617     -47.928 144.896  11.391  1.00 22.20    -0.074 C 
HETATM   28  C26 VFQ 1 617     -48.091 144.905  10.083  1.00 22.20    -0.048 C 
HETATM   29  C27 VFQ 1 617     -47.068 144.439   9.137  1.00 22.20     0.009 C 
HETATM   30  C28 VFQ 1 617     -46.285 143.423   9.486  1.00 22.20     0.007 C 
HETATM   31  C29 VFQ 1 617     -45.417 142.779   8.464  1.00 38.90    -0.062 C 
HETATM   32  C30 VFQ 1 617     -44.711 141.746   8.940  1.00 38.90     0.007 C 
HETATM   33  C31 VFQ 1 617     -43.775 140.932   8.180  1.00 38.90     0.001 C 
HETATM   34  C32 VFQ 1 617     -43.134 139.989   8.860  1.00 38.90     0.007 C 
HETATM   35  C33 VFQ 1 617     -42.127 139.108   8.251  1.00 38.90    -0.062 C 
HETATM   36  C34 VFQ 1 617     -41.484 138.269   9.083  1.00 38.90     0.007 C 
HETATM   37  C35 VFQ 1 617     -40.440 137.342   8.659  1.00 38.90     0.001 C 
HETATM   38  C36 VFQ 1 617     -49.374 145.996   8.261  1.00 22.20     0.020 C 
HETATM   39  C37 VFQ 1 617     -50.063 143.850   9.231  1.00 22.20     0.020 C 
HETATM   40  C38 VFQ 1 617     -46.600 145.141  12.015  1.00 22.20     0.044 C 
HETATM   41  C39 VFQ 1 617     -45.392 143.251   7.040  1.00 38.90     0.048 C 
HETATM   42  C40 VFQ 1 617     -41.865 139.221   6.780  1.00 38.90     0.048 C 
HETATM   43  O23 VFQ 1 617     -51.200 145.914  12.702  1.00 22.20    -0.395 OA
ATOM     44  H23 VFQ 1 617     -50.956 145.924  13.620  1.00  0.00     0.210 HD
ENDROOT
TORSDOF 12
BEGIN_RES PHE A  61
REMARK  2 active torsions:
REMARK  status: ('A' for Active; 'I' for Inactive)
REMARK    1  A    between atoms: CA   and  CB  
REMARK    2  A    between atoms: CB   and  CG  
ROOT
ATOM      1  CA  PHE A  61     -36.237 128.293  12.768  1.00 39.40     0.164 C 
ENDROOT
BRANCH   1   2
ATOM      2  CB  PHE A  61     -36.813 128.951  11.509  1.00 39.41     0.058 C 
BRANCH   2   3
ATOM      3  CG  PHE A  61     -37.097 127.992  10.378  1.00 39.01    -0.020 A 
ATOM      4  CD2 PHE A  61     -36.387 126.808  10.253  1.00 40.32    -0.004 A 
ATOM      5  CE2 PHE A  61     -36.646 125.928   9.210  1.00 40.20    -0.000 A 
ATOM      6  CZ  PHE A  61     -37.620 126.220   8.283  1.00 40.34    -0.000 A 
ATOM      7  CE1 PHE A  61     -38.336 127.391   8.393  1.00 41.51    -0.000 A 
ATOM      8  CD1 PHE A  61     -38.072 128.274   9.432  1.00 39.94    -0.004 A 
ENDBRANCH   2   3
ENDBRANCH   1   2
END_RES PHE A  61
BEGIN_RES VAL A 134
REMARK  1 active torsions:
REMARK  status: ('A' for Active; 'I' for Inactive)
REMARK    3  A    between atoms: CA   and  CB  
ROOT
ATOM      9  CA  VAL A 134     -29.766 132.051   9.815  1.00 40.75     0.159 C 
ENDROOT
BRANCH   9  10
ATOM     10  CB  VAL A 134     -30.864 132.765   9.009  1.00 40.76     0.029 C 
ATOM     11  CG1 VAL A 134     -30.928 132.222   7.589  1.00 41.76     0.002 C 
ATOM     12  CG2 VAL A 134     -32.220 132.658   9.690  1.00 40.56     0.002 C 
ENDBRANCH   9  10
END_RES VAL A 134
BEGIN_RES TYR A 338
REMARK  3 active torsions:
REMARK  status: ('A' for Active; 'I' for Inactive)
REMARK    4  A    between atoms: CA   and  CB  
REMARK    5  A    between atoms: CB   and  CG  
REMARK    6  A    between atoms: CZ   and  OH  
ROOT
ATOM     13  CA  TYR A 338     -41.631 124.950   6.058  1.00 38.23     0.164 C 
ENDROOT
BRANCH  13  14
ATOM     14  CB  TYR A 338     -41.621 126.456   6.339  1.00 39.15     0.058 C 
BRANCH  14  15
ATOM     15  CG  TYR A 338     -40.396 127.204   5.865  1.00 39.03    -0.020 A 
ATOM     16  CD2 TYR A 338     -40.229 128.543   6.174  1.00 40.65    -0.002 A 
ATOM     17  CE2 TYR A 338     -39.127 129.264   5.742  1.00 40.91     0.024 A 
ATOM     18  CZ  TYR A 338     -38.156 128.642   4.980  1.00 42.33     0.089 A 
ATOM     19  CE1 TYR A 338     -38.298 127.303   4.662  1.00 40.63     0.024 A 
ATOM     20  CD1 TYR A 338     -39.415 126.603   5.092  1.00 39.27    -0.002 A 
BRANCH  18  21
ATOM     21  OH  TYR A 338     -37.062 129.342   4.553  1.00 43.36    -0.359 OA
ATOM     22  HH  TYR A 338     -36.873 130.202   4.908  1.00  0.00     0.217 HD
ENDBRANCH  18  21
ENDBRANCH  14  15
ENDBRANCH  13  14
END_RES TYR A 338
ENDMDL
MODEL 3
REMARK VINA RESULT:    -4.285      2.723      4.401
REMARK INTER + INTRA:         -10.830
REMARK INTER:                 -10.447
REMARK INTRA:                  -0.383
REMARK UNBOUND:                -6.546
REMARK  0 active torsions:
REMARK  status: ('A' for Active; 'I' for Inactive)
REMARK       I    between atoms: C3_3  and  O3_21 
REMARK       I    between atoms: C6_6  and  C7_7 
REMARK       I    between atoms: C8_8  and  C9_9 
REMARK       I    between atoms: C10_10  and  C11_11 
REMARK       I    between atoms: C12_12  and  C13_13 
REMARK       I    between atoms: C14_14  and  C15_15 
REMARK       I    between atoms: C23_25  and  O23_43 
REMARK       I    between atoms: C26_28  and  C27_29 
REMARK       I    between atoms: C28_30  and  C29_31 
REMARK       I    between atoms: C30_32  and  C31_33 
REMARK       I    between atoms: C32_34  and  C33_35 
REMARK       I    between atoms: C34_36  and  C35_37 
ROOT
HETATM    1  C1  VFQ 1 617     -50.214 145.152  10.509  1.00 38.90    -0.018 C 
HETATM    2  C2  VFQ 1 617     -50.839 144.442  11.709  1.00 38.90     0.045 C 
HETATM    3  C3  VFQ 1 617     -50.321 144.883  13.075  1.00 38.90     0.123 C 
HETATM    4  C4  VFQ 1 617     -49.706 146.266  12.984  1.00 38.90     0.066 C 
HETATM    5  C5  VFQ 1 617     -48.561 146.143  12.022  1.00 38.90    -0.074 C 
HETATM    6  C6  VFQ 1 617     -48.834 145.698  10.792  1.00 38.90    -0.048 C 
HETATM    7  C7  VFQ 1 617     -47.769 145.521   9.791  1.00 38.90     0.009 C 
HETATM    8  C8  VFQ 1 617     -46.705 144.882  10.274  1.00 38.90     0.007 C 
HETATM    9  C9  VFQ 1 617     -45.610 144.426   9.398  1.00 38.90    -0.062 C 
HETATM   10  C10 VFQ 1 617     -44.807 143.487   9.913  1.00 38.90     0.007 C 
HETATM   11  C11 VFQ 1 617     -43.746 142.816   9.169  1.00 38.90     0.001 C 
HETATM   12  C12 VFQ 1 617     -43.166 141.752   9.711  1.00 38.90     0.007 C 
HETATM   13  C13 VFQ 1 617     -42.146 140.965   8.999  1.00 38.90    -0.062 C 
HETATM   14  C14 VFQ 1 617     -41.774 139.814   9.579  1.00 38.90     0.007 C 
HETATM   15  C15 VFQ 1 617     -40.808 138.871   9.029  1.00 38.90     0.001 C 
HETATM   16  C16 VFQ 1 617     -51.079 146.357  10.144  1.00 38.90     0.020 C 
HETATM   17  C17 VFQ 1 617     -50.145 144.203   9.320  1.00 38.90     0.020 C 
HETATM   18  C18 VFQ 1 617     -47.367 147.008  12.348  1.00 38.90     0.044 C 
HETATM   19  C19 VFQ 1 617     -45.470 144.972   8.006  1.00 38.90     0.048 C 
HETATM   20  C20 VFQ 1 617     -41.616 141.461   7.686  1.00 38.90     0.048 C 
HETATM   21  O3  VFQ 1 617     -51.394 144.914  14.020  1.00 38.90    -0.395 OA
ATOM     22  H3  VFQ 1 617     -51.071 145.189  14.870  1.00  0.00     0.210 HD
HETATM   23  C21 VFQ 1 617     -33.789 128.110   7.544  1.00 22.20    -0.018 C 
HETATM   24  C22 VFQ 1 617     -32.724 127.499   6.642  1.00 22.20     0.045 C 
HETATM   25  C23 VFQ 1 617     -31.985 128.444   5.718  1.00 22.20     0.123 C 
HETATM   26  C24 VFQ 1 617     -32.831 129.663   5.446  1.00 22.20     0.066 C 
HETATM   27  C25 VFQ 1 617     -33.084 130.293   6.775  1.00 22.20    -0.074 C 
HETATM   28  C26 VFQ 1 617     -33.715 129.601   7.703  1.00 22.20    -0.048 C 
HETATM   29  C27 VFQ 1 617     -34.519 130.219   8.767  1.00 22.20     0.009 C 
HETATM   30  C28 VFQ 1 617     -35.195 131.331   8.498  1.00 22.20     0.007 C 
HETATM   31  C29 VFQ 1 617     -36.200 131.835   9.472  1.00 38.90    -0.062 C 
HETATM   32  C30 VFQ 1 617     -36.833 132.939   9.060  1.00 38.90     0.007 C 
HETATM   33  C31 VFQ 1 617     -37.857 133.660   9.801  1.00 38.90     0.001 C 
HETATM   34  C32 VFQ 1 617     -38.318 134.768   9.234  1.00 38.90     0.007 C 
HETATM   35  C33 VFQ 1 617     -39.324 135.633   9.868  1.00 38.90    -0.062 C 
HETATM   36  C34 VFQ 1 617     -39.621 136.777   9.225  1.00 38.90     0.007 C 
HETATM   37  C35 VFQ 1 617     -40.575 137.764   9.717  1.00 38.90     0.001 C 
HETATM   38  C36 VFQ 1 617     -33.711 127.418   8.882  1.00 22.20     0.020 C 
HETATM   39  C37 VFQ 1 617     -35.161 127.849   6.951  1.00 22.20     0.020 C 
HETATM   40  C38 VFQ 1 617     -32.494 131.628   7.062  1.00 22.20     0.044 C 
HETATM   41  C39 VFQ 1 617     -36.470 131.122  10.765  1.00 38.90     0.048 C 
HETATM   42  C40 VFQ 1 617     -39.918 135.209  11.176  1.00 38.90     0.048 C 
HETATM   43  O23 VFQ 1 617     -31.751 127.734   4.509  1.00 22.20    -0.395 OA
ATOM     44  H23 VFQ 1 617     -31.287 128.327   3.929  1.00  0.00     0.210 HD
ENDROOT
TORSDOF 12
BEGIN_RES PHE A  61
REMARK  2 active torsions:
REMARK  status: ('A' for Active; 'I' for Inactive)
REMARK    1  A    between atoms: CA   and  CB  
REMARK    2  A    between atoms: CB   and  CG  
ROOT
ATOM      1  CA  PHE A  61     -36.237 128.293  12.768  1.00 39.40     0.164 C 
ENDROOT
BRANCH   1   2
ATOM      2  CB  PHE A  61     -36.813 128.951  11.509  1.00 39.41     0.058 C 
BRANCH   2   3
ATOM      3  CG  PHE A  61     -37.040 128.002  10.357  1.00 39.01    -0.020 A 
ATOM      4  CD2 PHE A  61     -36.317 126.824  10.252  1.00 40.32    -0.004 A 
ATOM      5  CE2 PHE A  61     -36.524 125.953   9.190  1.00 40.20    -0.000 A 
ATOM      6  CZ  PHE A  61     -37.460 126.247   8.224  1.00 40.34    -0.000 A 
ATOM      7  CE1 PHE A  61     -38.189 127.412   8.315  1.00 41.51    -0.000 A 
ATOM      8  CD1 PHE A  61     -37.977 128.287   9.373  1.00 39.94    -0.004 A 
ENDBRANCH   2   3
ENDBRANCH   1   2
END_RES PHE A  61
BEGIN_RES VAL A 134
REMARK  1 active torsions:
REMARK  status: ('A' for Active; 'I' for Inactive)
REMARK    3  A    between atoms: CA   and  CB  
ROOT
ATOM      9  CA  VAL A 134     -29.766 132.051   9.815  1.00 40.75     0.159 C 
ENDROOT
BRANCH   9  10
ATOM     10  CB  VAL A 134     -30.864 132.765   9.009  1.00 40.76     0.029 C 
ATOM     11  CG1 VAL A 134     -32.118 132.947   9.852  1.00 41.76     0.002 C 
ATOM     12  CG2 VAL A 134     -30.381 134.100   8.463  1.00 40.56     0.002 C 
ENDBRANCH   9  10
END_RES VAL A 134
BEGIN_RES TYR A 338
REMARK  3 active torsions:
REMARK  status: ('A' for Active; 'I' for Inactive)
REMARK    4  A    between atoms: CA   and  CB  
REMARK    5  A    between atoms: CB   and  CG  
REMARK    6  A    between atoms: CZ   and  OH  
ROOT
ATOM     13  CA  TYR A 338     -41.631 124.950   6.058  1.00 38.23     0.164 C 
ENDROOT
BRANCH  13  14
ATOM     14  CB  TYR A 338     -41.621 126.456   6.339  1.00 39.15     0.058 C 
BRANCH  14  15
ATOM     15  CG  TYR A 338     -40.398 127.205   5.860  1.00 39.03    -0.020 A 
ATOM     16  CD2 TYR A 338     -40.231 128.544   6.169  1.00 40.65    -0.002 A 
ATOM     17  CE2 TYR A 338     -39.131 129.265   5.733  1.00 40.91     0.024 A 
ATOM     18  CZ  TYR A 338     -38.163 128.644   4.966  1.00 42.33     0.089 A 
ATOM     19  CE1 TYR A 338     -38.305 127.305   4.649  1.00 40.63     0.024 A 
ATOM     20  CD1 TYR A 338     -39.420 126.605   5.083  1.00 39.27    -0.002 A 
BRANCH  18  21
ATOM     21  OH  TYR A 338     -37.071 129.345   4.535  1.00 43.36    -0.359 OA
ATOM     22  HH  TYR A 338     -36.210 129.160   4.891  1.00  0.00     0.217 HD
ENDBRANCH  18  21
ENDBRANCH  14  15
ENDBRANCH  13  14
END_RES TYR A 338
ENDMDL
