MODEL 1
REMARK VINA RESULT:    -9.727      0.000      0.000
REMARK INTER + INTRA:         -12.999
REMARK INTER:                  -9.727
REMARK INTRA:                  -3.272
REMARK UNBOUND:                -3.272
REMARK  0 active torsions:
REMARK  status: ('A' for Active; 'I' for Inactive)
REMARK       I    between atoms: C3_3  and  O3_21 
REMARK       I    between atoms: C6_6  and  C7_7 
REMARK       I    between atoms: C8_8  and  C9_9 
REMARK       I    between atoms: C10_10  and  C11_11 
REMARK       I    between atoms: C12_12  and  C13_13 
REMARK       I    between atoms: C14_14  and  C15_15 
REMARK       I    between atoms: C23_25  and  O23_43 
REMARK       I    between atoms: C26_28  and  C27_29 
REMARK       I    between atoms: C28_30  and  C29_31 
REMARK       I    between atoms: C30_32  and  C31_33 
REMARK       I    between atoms: C32_34  and  C33_35 
REMARK       I    between atoms: C34_36  and  C35_37 
ROOT
HETATM    1  C1  VFQ N1621     -34.345 127.013   6.294  1.00 51.88    -0.018 C 
HETATM    2  C2  VFQ N1621     -33.944 126.450   4.938  1.00 51.88     0.045 C 
HETATM    3  C3  VFQ N1621     -32.771 127.109   4.247  1.00 51.88     0.123 C 
HETATM    4  C4  VFQ N1621     -31.695 127.428   5.257  1.00 51.88     0.066 C 
HETATM    5  C5  VFQ N1621     -32.256 128.351   6.297  1.00 51.88    -0.074 C 
HETATM    6  C6  VFQ N1621     -33.457 128.122   6.830  1.00 51.88    -0.048 C 
HETATM    7  C7  VFQ N1621     -33.988 128.921   7.966  1.00 51.88     0.009 C 
HETATM    8  C8  VFQ N1621     -34.595 130.096   7.789  1.00 51.88     0.007 C 
HETATM    9  C9  VFQ N1621     -35.176 130.896   8.875  1.00 51.88    -0.062 C 
HETATM   10  C10 VFQ N1621     -36.072 131.804   8.484  1.00 51.88     0.007 C 
HETATM   11  C11 VFQ N1621     -36.832 132.700   9.339  1.00 51.88     0.001 C 
HETATM   12  C12 VFQ N1621     -37.680 133.485   8.688  1.00 51.88     0.007 C 
HETATM   13  C13 VFQ N1621     -38.580 134.422   9.371  1.00 51.88    -0.062 C 
HETATM   14  C14 VFQ N1621     -39.384 135.193   8.629  1.00 51.88     0.007 C 
HETATM   15  C15 VFQ N1621     -40.329 136.117   9.244  1.00 51.88     0.001 C 
HETATM   16  C16 VFQ N1621     -34.428 125.850   7.270  1.00 51.88     0.020 C 
HETATM   17  C17 VFQ N1621     -35.736 127.584   6.147  1.00 51.88     0.020 C 
HETATM   18  C18 VFQ N1621     -31.281 129.327   6.879  1.00 51.88     0.044 C 
HETATM   19  C19 VFQ N1621     -34.799 130.701  10.309  1.00 51.88     0.048 C 
HETATM   20  C20 VFQ N1621     -38.616 134.465  10.867  1.00 51.88     0.048 C 
HETATM   21  O3  VFQ N1621     -32.226 126.192   3.293  1.00 51.88    -0.395 OA
ATOM     22  H3  VFQ N1621     -31.489 126.606   2.859  1.00  0.00     0.210 HD
HETATM   23  C21 VFQ N1621     -49.822 144.823  10.155  1.00 27.67    -0.018 C 
HETATM   24  C22 VFQ N1621     -50.722 145.734  10.987  1.00 27.67     0.045 C 
HETATM   25  C23 VFQ N1621     -50.040 146.640  12.002  1.00 27.67     0.123 C 
HETATM   26  C24 VFQ N1621     -48.869 145.938  12.651  1.00 27.67     0.066 C 
HETATM   27  C25 VFQ N1621     -47.911 145.584  11.553  1.00 27.67    -0.074 C 
HETATM   28  C26 VFQ N1621     -48.341 144.909  10.485  1.00 27.67    -0.048 C 
HETATM   29  C27 VFQ N1621     -47.385 144.241   9.568  1.00 27.67     0.009 C 
HETATM   30  C28 VFQ N1621     -46.849 143.052   9.846  1.00 27.67     0.007 C 
HETATM   31  C29 VFQ N1621     -45.915 142.386   8.924  1.00 51.88    -0.062 C 
HETATM   32  C30 VFQ N1621     -45.514 141.154   9.254  1.00 51.88     0.007 C 
HETATM   33  C31 VFQ N1621     -44.595 140.340   8.468  1.00 51.88     0.001 C 
HETATM   34  C32 VFQ N1621     -43.777 139.530   9.136  1.00 51.88     0.007 C 
HETATM   35  C33 VFQ N1621     -42.813 138.661   8.446  1.00 51.88    -0.062 C 
HETATM   36  C34 VFQ N1621     -42.004 137.848   9.144  1.00 51.88     0.007 C 
HETATM   37  C35 VFQ N1621     -41.044 136.957   8.498  1.00 51.88     0.001 C 
HETATM   38  C36 VFQ N1621     -49.973 145.219   8.693  1.00 27.67     0.020 C 
HETATM   39  C37 VFQ N1621     -50.338 143.397  10.325  1.00 27.67     0.020 C 
HETATM   40  C38 VFQ N1621     -46.489 146.037  11.701  1.00 27.67     0.044 C 
HETATM   41  C39 VFQ N1621     -45.444 143.071   7.679  1.00 51.88     0.048 C 
HETATM   42  C40 VFQ N1621     -42.760 138.703   6.960  1.00 51.88     0.048 C 
HETATM   43  O23 VFQ N1621     -50.989 147.001  13.007  1.00 27.67    -0.395 OA
ATOM     44  H23 VFQ N1621     -50.563 147.567  13.641  1.00  0.00     0.210 HD
ENDROOT
TORSDOF 12
BEGIN_RES PHE A  61
REMARK  2 active torsions:
REMARK  status: ('A' for Active; 'I' for Inactive)
REMARK    1  A    between atoms: CA   and  CB  
REMARK    2  A    between atoms: CB   and  CG  
ROOT
ATOM      1  CA  PHE A  61     -36.237 128.293  12.768  1.00 39.40     0.164 C 
ENDROOT
BRANCH   1   2
ATOM      2  CB  PHE A  61     -36.813 128.951  11.509  1.00 39.41     0.058 C 
BRANCH   2   3
ATOM      3  CG  PHE A  61     -37.027 128.004  10.352  1.00 39.01    -0.020 A 
ATOM      4  CD2 PHE A  61     -36.278 126.844  10.235  1.00 40.32    -0.004 A 
ATOM      5  CE2 PHE A  61     -36.474 125.975   9.168  1.00 40.20    -0.000 A 
ATOM      6  CZ  PHE A  61     -37.422 126.255   8.210  1.00 40.34    -0.000 A 
ATOM      7  CE1 PHE A  61     -38.176 127.403   8.314  1.00 41.51    -0.000 A 
ATOM      8  CD1 PHE A  61     -37.976 128.275   9.377  1.00 39.94    -0.004 A 
ENDBRANCH   2   3
ENDBRANCH   1   2
END_RES PHE A  61
BEGIN_RES VAL A 134
REMARK  1 active torsions:
REMARK  status: ('A' for Active; 'I' for Inactive)
REMARK    3  A    between atoms: CA   and  CB  
ROOT
ATOM      9  CA  VAL A 134     -29.766 132.051   9.815  1.00 40.75     0.159 C 
ENDROOT
BRANCH   9  10
ATOM     10  CB  VAL A 134     -30.864 132.765   9.009  1.00 40.76     0.029 C 
ATOM     11  CG1 VAL A 134     -31.179 131.999   7.732  1.00 41.76     0.002 C 
ATOM     12  CG2 VAL A 134     -32.122 132.974   9.838  1.00 40.56     0.002 C 
ENDBRANCH   9  10
END_RES VAL A 134
BEGIN_RES TYR A 338
REMARK  3 active torsions:
REMARK  status: ('A' for Active; 'I' for Inactive)
REMARK    4  A    between atoms: CA   and  CB  
REMARK    5  A    between atoms: CB   and  CG  
REMARK    6  A    between atoms: CZ   and  OH  
ROOT
ATOM     13  CA  TYR A 338     -41.631 124.950   6.058  1.00 38.23     0.164 C 
ENDROOT
BRANCH  13  14
ATOM     14  CB  TYR A 338     -41.621 126.456   6.339  1.00 39.15     0.058 C 
BRANCH  14  15
ATOM     15  CG  TYR A 338     -40.421 127.213   5.817  1.00 39.03    -0.020 A 
ATOM     16  CD2 TYR A 338     -40.249 128.552   6.125  1.00 40.65    -0.002 A 
ATOM     17  CE2 TYR A 338     -39.170 129.281   5.650  1.00 40.91     0.024 A 
ATOM     18  CZ  TYR A 338     -38.229 128.668   4.844  1.00 42.33     0.089 A 
ATOM     19  CE1 TYR A 338     -38.376 127.329   4.527  1.00 40.63     0.024 A 
ATOM     20  CD1 TYR A 338     -39.470 126.621   5.000  1.00 39.27    -0.002 A 
BRANCH  18  21
ATOM     21  OH  TYR A 338     -37.158 129.376   4.375  1.00 43.36    -0.359 OA
ATOM     22  HH  TYR A 338     -36.973 130.246   4.708  1.00  0.00     0.217 HD
ENDBRANCH  18  21
ENDBRANCH  14  15
ENDBRANCH  13  14
END_RES TYR A 338
ENDMDL
MODEL 2
REMARK VINA RESULT:    -7.492      1.499     16.858
REMARK INTER + INTRA:         -10.764
REMARK INTER:                 -10.406
REMARK INTRA:                  -0.358
REMARK UNBOUND:                -3.272
REMARK  0 active torsions:
REMARK  status: ('A' for Active; 'I' for Inactive)
REMARK       I    between atoms: C3_3  and  O3_21 
REMARK       I    between atoms: C6_6  and  C7_7 
REMARK       I    between atoms: C8_8  and  C9_9 
REMARK       I    between atoms: C10_10  and  C11_11 
REMARK       I    between atoms: C12_12  and  C13_13 
REMARK       I    between atoms: C14_14  and  C15_15 
REMARK       I    between atoms: C23_25  and  O23_43 
REMARK       I    between atoms: C26_28  and  C27_29 
REMARK       I    between atoms: C28_30  and  C29_31 
REMARK       I    between atoms: C30_32  and  C31_33 
REMARK       I    between atoms: C32_34  and  C33_35 
REMARK       I    between atoms: C34_36  and  C35_37 
ROOT
HETATM    1  C1  VFQ N1621     -49.308 145.753  12.107  1.00 51.88    -0.018 C 
HETATM    2  C2  VFQ N1621     -50.170 145.880  13.355  1.00 51.88     0.045 C 
HETATM    3  C3  VFQ N1621     -49.561 146.606  14.534  1.00 51.88     0.123 C 
HETATM    4  C4  VFQ N1621     -48.787 147.809  14.049  1.00 51.88     0.066 C 
HETATM    5  C5  VFQ N1621     -47.705 147.354  13.117  1.00 51.88    -0.074 C 
HETATM    6  C6  VFQ N1621     -47.961 146.451  12.169  1.00 51.88    -0.048 C 
HETATM    7  C7  VFQ N1621     -46.962 146.082  11.132  1.00 51.88     0.009 C 
HETATM    8  C8  VFQ N1621     -46.007 145.177  11.351  1.00 51.88     0.007 C 
HETATM    9  C9  VFQ N1621     -45.030 144.747  10.342  1.00 51.88    -0.062 C 
HETATM   10  C10 VFQ N1621     -44.437 143.581  10.598  1.00 51.88     0.007 C 
HETATM   11  C11 VFQ N1621     -43.467 142.896   9.760  1.00 51.88     0.001 C 
HETATM   12  C12 VFQ N1621     -43.057 141.730  10.243  1.00 51.88     0.007 C 
HETATM   13  C13 VFQ N1621     -42.122 140.857   9.523  1.00 51.88    -0.062 C 
HETATM   14  C14 VFQ N1621     -41.744 139.709  10.100  1.00 51.88     0.007 C 
HETATM   15  C15 VFQ N1621     -40.849 138.779   9.425  1.00 51.88     0.001 C 
HETATM   16  C16 VFQ N1621     -50.131 146.243  10.926  1.00 51.88     0.020 C 
HETATM   17  C17 VFQ N1621     -49.041 144.281  11.896  1.00 51.88     0.020 C 
HETATM   18  C18 VFQ N1621     -46.455 148.179  13.137  1.00 51.88     0.044 C 
HETATM   19  C19 VFQ N1621     -44.732 145.552   9.117  1.00 51.88     0.048 C 
HETATM   20  C20 VFQ N1621     -41.648 141.238   8.155  1.00 51.88     0.048 C 
HETATM   21  O3  VFQ N1621     -50.614 147.068  15.383  1.00 51.88    -0.395 OA
ATOM     22  H3  VFQ N1621     -50.231 147.524  16.124  1.00  0.00     0.210 HD
HETATM   23  C21 VFQ N1621     -33.937 128.077   7.321  1.00 27.67    -0.018 C 
HETATM   24  C22 VFQ N1621     -32.983 127.252   6.459  1.00 27.67     0.045 C 
HETATM   25  C23 VFQ N1621     -31.720 127.945   5.969  1.00 27.67     0.123 C 
HETATM   26  C24 VFQ N1621     -31.998 129.390   5.617  1.00 27.67     0.066 C 
HETATM   27  C25 VFQ N1621     -32.497 130.053   6.866  1.00 27.67    -0.074 C 
HETATM   28  C26 VFQ N1621     -33.516 129.520   7.542  1.00 27.67    -0.048 C 
HETATM   29  C27 VFQ N1621     -34.258 130.311   8.554  1.00 27.67     0.009 C 
HETATM   30  C28 VFQ N1621     -35.209 131.183   8.216  1.00 27.67     0.007 C 
HETATM   31  C29 VFQ N1621     -35.953 131.952   9.226  1.00 51.88    -0.062 C 
HETATM   32  C30 VFQ N1621     -36.952 132.725   8.784  1.00 51.88     0.007 C 
HETATM   33  C31 VFQ N1621     -37.798 133.555   9.631  1.00 51.88     0.001 C 
HETATM   34  C32 VFQ N1621     -38.231 134.705   9.118  1.00 51.88     0.007 C 
HETATM   35  C33 VFQ N1621     -39.094 135.618   9.881  1.00 51.88    -0.062 C 
HETATM   36  C34 VFQ N1621     -39.522 136.768   9.336  1.00 51.88     0.007 C 
HETATM   37  C35 VFQ N1621     -40.394 137.696  10.052  1.00 51.88     0.001 C 
HETATM   38  C36 VFQ N1621     -34.018 127.423   8.692  1.00 27.67     0.020 C 
HETATM   39  C37 VFQ N1621     -35.315 128.003   6.669  1.00 27.67     0.020 C 
HETATM   40  C38 VFQ N1621     -31.794 131.298   7.317  1.00 27.67     0.044 C 
HETATM   41  C39 VFQ N1621     -35.596 131.864  10.677  1.00 51.88     0.048 C 
HETATM   42  C40 VFQ N1621     -39.481 135.235  11.264  1.00 51.88     0.048 C 
HETATM   43  O23 VFQ N1621     -31.240 127.263   4.809  1.00 27.67    -0.395 OA
ATOM     44  H23 VFQ N1621     -30.452 127.695   4.503  1.00  0.00     0.210 HD
ENDROOT
TORSDOF 12
BEGIN_RES PHE A  61
REMARK  2 active torsions:
REMARK  status: ('A' for Active; 'I' for Inactive)
REMARK    1  A    between atoms: CA   and  CB  
REMARK    2  A    between atoms: CB   and  CG  
ROOT
ATOM      1  CA  PHE A  61     -36.237 128.293  12.768  1.00 39.40     0.164 C 
ENDROOT
BRANCH   1   2
ATOM      2  CB  PHE A  61     -36.813 128.951  11.509  1.00 39.41     0.058 C 
BRANCH   2   3
ATOM      3  CG  PHE A  61     -37.033 128.003  10.355  1.00 39.01    -0.020 A 
ATOM      4  CD2 PHE A  61     -36.313 126.823  10.255  1.00 40.32    -0.004 A 
ATOM      5  CE2 PHE A  61     -36.515 125.953   9.191  1.00 40.20    -0.000 A 
ATOM      6  CZ  PHE A  61     -37.440 126.251   8.217  1.00 40.34    -0.000 A 
ATOM      7  CE1 PHE A  61     -38.166 127.419   8.302  1.00 41.51    -0.000 A 
ATOM      8  CD1 PHE A  61     -37.960 128.292   9.363  1.00 39.94    -0.004 A 
ENDBRANCH   2   3
ENDBRANCH   1   2
END_RES PHE A  61
BEGIN_RES VAL A 134
REMARK  1 active torsions:
REMARK  status: ('A' for Active; 'I' for Inactive)
REMARK    3  A    between atoms: CA   and  CB  
ROOT
ATOM      9  CA  VAL A 134     -29.766 132.051   9.815  1.00 40.75     0.159 C 
ENDROOT
BRANCH   9  10
ATOM     10  CB  VAL A 134     -30.864 132.765   9.009  1.00 40.76     0.029 C 
ATOM     11  CG1 VAL A 134     -32.112 132.963   9.857  1.00 41.76     0.002 C 
ATOM     12  CG2 VAL A 134     -30.376 134.092   8.448  1.00 40.56     0.002 C 
ENDBRANCH   9  10
END_RES VAL A 134
BEGIN_RES TYR A 338
REMARK  3 active torsions:
REMARK  status: ('A' for Active; 'I' for Inactive)
REMARK    4  A    between atoms: CA   and  CB  
REMARK    5  A    between atoms: CB   and  CG  
REMARK    6  A    between atoms: CZ   and  OH  
ROOT
ATOM     13  CA  TYR A 338     -41.631 124.950   6.058  1.00 38.23     0.164 C 
ENDROOT
BRANCH  13  14
ATOM     14  CB  TYR A 338     -41.621 126.456   6.339  1.00 39.15     0.058 C 
BRANCH  14  15
ATOM     15  CG  TYR A 338     -40.411 127.209   5.837  1.00 39.03    -0.020 A 
ATOM     16  CD2 TYR A 338     -40.252 128.554   6.127  1.00 40.65    -0.002 A 
ATOM     17  CE2 TYR A 338     -39.162 129.279   5.670  1.00 40.91     0.024 A 
ATOM     18  CZ  TYR A 338     -38.198 128.657   4.899  1.00 42.33     0.089 A 
ATOM     19  CE1 TYR A 338     -38.332 127.313   4.600  1.00 40.63     0.024 A 
ATOM     20  CD1 TYR A 338     -39.436 126.608   5.055  1.00 39.27    -0.002 A 
BRANCH  18  21
ATOM     21  OH  TYR A 338     -37.118 129.361   4.446  1.00 43.36    -0.359 OA
ATOM     22  HH  TYR A 338     -36.704 129.131   3.623  1.00  0.00     0.217 HD
ENDBRANCH  18  21
ENDBRANCH  14  15
ENDBRANCH  13  14
END_RES TYR A 338
ENDMDL
