MODEL 1
REMARK VINA RESULT:    -8.997      0.000      0.000
REMARK INTER + INTRA:         -11.362
REMARK INTER:                  -8.997
REMARK INTRA:                  -2.365
REMARK UNBOUND:                -2.365
REMARK  0 active torsions:
REMARK  status: ('A' for Active; 'I' for Inactive)
REMARK       I    between atoms: C3_3  and  O3_21 
REMARK       I    between atoms: C6_6  and  C7_7 
REMARK       I    between atoms: C8_8  and  C9_9 
REMARK       I    between atoms: C10_10  and  C11_11 
REMARK       I    between atoms: C12_12  and  C13_13 
REMARK       I    between atoms: C14_14  and  C15_15 
REMARK       I    between atoms: C23_25  and  O23_43 
REMARK       I    between atoms: C26_28  and  C27_29 
REMARK       I    between atoms: C28_30  and  C29_31 
REMARK       I    between atoms: C30_32  and  C31_33 
REMARK       I    between atoms: C32_34  and  C33_35 
REMARK       I    between atoms: C34_36  and  C35_37 
ROOT
HETATM    1  C1  VFQ V1620     -34.276 127.205   6.697  1.00 15.23    -0.018 C 
HETATM    2  C2  VFQ V1620     -34.088 127.271   5.194  1.00 15.23     0.045 C 
HETATM    3  C3  VFQ V1620     -33.201 128.391   4.719  1.00 15.23     0.123 C 
HETATM    4  C4  VFQ V1620     -31.969 128.392   5.574  1.00 15.23     0.066 C 
HETATM    5  C5  VFQ V1620     -32.324 128.668   7.002  1.00 15.23    -0.074 C 
HETATM    6  C6  VFQ V1620     -33.473 128.199   7.496  1.00 15.23    -0.048 C 
HETATM    7  C7  VFQ V1620     -34.136 128.830   8.641  1.00 15.23     0.009 C 
HETATM    8  C8  VFQ V1620     -34.342 130.135   8.440  1.00 15.23     0.007 C 
HETATM    9  C9  VFQ V1620     -35.173 130.937   9.359  1.00 15.23    -0.062 C 
HETATM   10  C10 VFQ V1620     -35.594 132.128   8.911  1.00 15.23     0.007 C 
HETATM   11  C11 VFQ V1620     -36.526 132.978   9.639  1.00 15.23     0.001 C 
HETATM   12  C12 VFQ V1620     -37.083 134.006   9.018  1.00 15.23     0.007 C 
HETATM   13  C13 VFQ V1620     -38.108 134.833   9.671  1.00 15.23    -0.062 C 
HETATM   14  C14 VFQ V1620     -38.770 135.705   8.905  1.00 15.23     0.007 C 
HETATM   15  C15 VFQ V1620     -39.850 136.563   9.382  1.00 15.23     0.001 C 
HETATM   16  C16 VFQ V1620     -33.751 125.850   7.133  1.00 15.23     0.020 C 
HETATM   17  C17 VFQ V1620     -35.758 127.338   6.995  1.00 15.23     0.020 C 
HETATM   18  C18 VFQ V1620     -31.498 129.740   7.649  1.00 15.23     0.044 C 
HETATM   19  C19 VFQ V1620     -35.548 130.390  10.706  1.00 15.23     0.048 C 
HETATM   20  C20 VFQ V1620     -38.389 134.631  11.122  1.00 15.23     0.048 C 
HETATM   21  O3  VFQ V1620     -32.781 128.124   3.386  1.00 15.23    -0.395 OA
ATOM     22  H3  VFQ V1620     -32.221 128.830   3.086  1.00  0.00     0.210 HD
HETATM   23  C21 VFQ V1620     -49.664 144.095  10.207  1.00 50.20    -0.018 C 
HETATM   24  C22 VFQ V1620     -50.682 144.950  10.952  1.00 50.20     0.045 C 
HETATM   25  C23 VFQ V1620     -50.217 146.334  11.379  1.00 50.20     0.123 C 
HETATM   26  C24 VFQ V1620     -48.793 146.306  11.891  1.00 50.20     0.066 C 
HETATM   27  C25 VFQ V1620     -47.922 145.791  10.784  1.00 50.20    -0.074 C 
HETATM   28  C26 VFQ V1620     -48.302 144.745  10.050  1.00 50.20    -0.048 C 
HETATM   29  C27 VFQ V1620     -47.379 144.184   9.041  1.00 50.20     0.009 C 
HETATM   30  C28 VFQ V1620     -46.524 143.226   9.389  1.00 50.20     0.007 C 
HETATM   31  C29 VFQ V1620     -45.593 142.621   8.431  1.00 15.23    -0.062 C 
HETATM   32  C30 VFQ V1620     -44.891 141.590   8.906  1.00 15.23     0.007 C 
HETATM   33  C31 VFQ V1620     -43.910 140.821   8.162  1.00 15.23     0.001 C 
HETATM   34  C32 VFQ V1620     -43.257 139.871   8.822  1.00 15.23     0.007 C 
HETATM   35  C33 VFQ V1620     -42.214 139.059   8.190  1.00 15.23    -0.062 C 
HETATM   36  C34 VFQ V1620     -41.548 138.204   8.977  1.00 15.23     0.007 C 
HETATM   37  C35 VFQ V1620     -40.466 137.347   8.516  1.00 15.23     0.001 C 
HETATM   38  C36 VFQ V1620     -50.200 143.813   8.811  1.00 50.20     0.020 C 
HETATM   39  C37 VFQ V1620     -49.533 142.772  10.954  1.00 50.20     0.020 C 
HETATM   40  C38 VFQ V1620     -46.629 146.503  10.528  1.00 50.20     0.044 C 
HETATM   41  C39 VFQ V1620     -45.518 143.130   7.026  1.00 15.23     0.048 C 
HETATM   42  C40 VFQ V1620     -41.950 139.254   6.734  1.00 15.23     0.048 C 
HETATM   43  O23 VFQ V1620     -51.081 146.821  12.408  1.00 50.20    -0.395 OA
ATOM     44  H23 VFQ V1620     -51.975 146.838  12.086  1.00  0.00     0.210 HD
ENDROOT
TORSDOF 12
BEGIN_RES PHE A  61
REMARK  2 active torsions:
REMARK  status: ('A' for Active; 'I' for Inactive)
REMARK    1  A    between atoms: CA   and  CB  
REMARK    2  A    between atoms: CB   and  CG  
ROOT
ATOM      1  CA  PHE A  61     -36.237 128.293  12.768  1.00 39.40     0.164 C 
ENDROOT
BRANCH   1   2
ATOM      2  CB  PHE A  61     -36.813 128.951  11.509  1.00 39.41     0.058 C 
BRANCH   2   3
ATOM      3  CG  PHE A  61     -37.106 127.990  10.382  1.00 39.01    -0.020 A 
ATOM      4  CD2 PHE A  61     -36.398 126.807  10.252  1.00 40.32    -0.004 A 
ATOM      5  CE2 PHE A  61     -36.666 125.925   9.213  1.00 40.20    -0.000 A 
ATOM      6  CZ  PHE A  61     -37.649 126.215   8.294  1.00 40.34    -0.000 A 
ATOM      7  CE1 PHE A  61     -38.364 127.387   8.409  1.00 41.51    -0.000 A 
ATOM      8  CD1 PHE A  61     -38.091 128.271   9.445  1.00 39.94    -0.004 A 
ENDBRANCH   2   3
ENDBRANCH   1   2
END_RES PHE A  61
BEGIN_RES VAL A 134
REMARK  1 active torsions:
REMARK  status: ('A' for Active; 'I' for Inactive)
REMARK    3  A    between atoms: CA   and  CB  
ROOT
ATOM      9  CA  VAL A 134     -29.766 132.051   9.815  1.00 40.75     0.159 C 
ENDROOT
BRANCH   9  10
ATOM     10  CB  VAL A 134     -30.864 132.765   9.009  1.00 40.76     0.029 C 
ATOM     11  CG1 VAL A 134     -30.993 132.158   7.620  1.00 41.76     0.002 C 
ATOM     12  CG2 VAL A 134     -32.200 132.740   9.736  1.00 40.56     0.002 C 
ENDBRANCH   9  10
END_RES VAL A 134
BEGIN_RES TYR A 338
REMARK  3 active torsions:
REMARK  status: ('A' for Active; 'I' for Inactive)
REMARK    4  A    between atoms: CA   and  CB  
REMARK    5  A    between atoms: CB   and  CG  
REMARK    6  A    between atoms: CZ   and  OH  
ROOT
ATOM     13  CA  TYR A 338     -41.631 124.950   6.058  1.00 38.23     0.164 C 
ENDROOT
BRANCH  13  14
ATOM     14  CB  TYR A 338     -41.621 126.456   6.339  1.00 39.15     0.058 C 
BRANCH  14  15
ATOM     15  CG  TYR A 338     -40.402 127.206   5.853  1.00 39.03    -0.020 A 
ATOM     16  CD2 TYR A 338     -40.230 128.543   6.168  1.00 40.65    -0.002 A 
ATOM     17  CE2 TYR A 338     -39.133 129.266   5.727  1.00 40.91     0.024 A 
ATOM     18  CZ  TYR A 338     -38.173 128.648   4.946  1.00 42.33     0.089 A 
ATOM     19  CE1 TYR A 338     -38.321 127.311   4.622  1.00 40.63     0.024 A 
ATOM     20  CD1 TYR A 338     -39.432 126.610   5.062  1.00 39.27    -0.002 A 
BRANCH  18  21
ATOM     21  OH  TYR A 338     -37.085 129.350   4.509  1.00 43.36    -0.359 OA
ATOM     22  HH  TYR A 338     -36.445 129.680   5.129  1.00  0.00     0.217 HD
ENDBRANCH  18  21
ENDBRANCH  14  15
ENDBRANCH  13  14
END_RES TYR A 338
ENDMDL
MODEL 2
REMARK VINA RESULT:    -7.678      1.381      2.021
REMARK INTER + INTRA:         -10.043
REMARK INTER:                  -7.943
REMARK INTRA:                  -2.100
REMARK UNBOUND:                -2.365
REMARK  0 active torsions:
REMARK  status: ('A' for Active; 'I' for Inactive)
REMARK       I    between atoms: C3_3  and  O3_21 
REMARK       I    between atoms: C6_6  and  C7_7 
REMARK       I    between atoms: C8_8  and  C9_9 
REMARK       I    between atoms: C10_10  and  C11_11 
REMARK       I    between atoms: C12_12  and  C13_13 
REMARK       I    between atoms: C14_14  and  C15_15 
REMARK       I    between atoms: C23_25  and  O23_43 
REMARK       I    between atoms: C26_28  and  C27_29 
REMARK       I    between atoms: C28_30  and  C29_31 
REMARK       I    between atoms: C30_32  and  C31_33 
REMARK       I    between atoms: C32_34  and  C33_35 
REMARK       I    between atoms: C34_36  and  C35_37 
ROOT
HETATM    1  C1  VFQ V1620     -33.641 129.277   6.961  1.00 15.23    -0.018 C 
HETATM    2  C2  VFQ V1620     -32.762 129.873   5.879  1.00 15.23     0.045 C 
HETATM    3  C3  VFQ V1620     -31.846 130.974   6.346  1.00 15.23     0.123 C 
HETATM    4  C4  VFQ V1620     -31.179 130.508   7.606  1.00 15.23     0.066 C 
HETATM    5  C5  VFQ V1620     -32.195 130.275   8.680  1.00 15.23    -0.074 C 
HETATM    6  C6  VFQ V1620     -33.399 129.799   8.355  1.00 15.23    -0.048 C 
HETATM    7  C7  VFQ V1620     -34.577 130.036   9.195  1.00 15.23     0.009 C 
HETATM    8  C8  VFQ V1620     -34.763 131.336   9.437  1.00 15.23     0.007 C 
HETATM    9  C9  VFQ V1620     -35.991 131.835  10.085  1.00 15.23    -0.062 C 
HETATM   10  C10 VFQ V1620     -36.237 133.148   9.986  1.00 15.23     0.007 C 
HETATM   11  C11 VFQ V1620     -37.467 133.774  10.452  1.00 15.23     0.001 C 
HETATM   12  C12 VFQ V1620     -37.738 135.019  10.089  1.00 15.23     0.007 C 
HETATM   13  C13 VFQ V1620     -39.011 135.661  10.443  1.00 15.23    -0.062 C 
HETATM   14  C14 VFQ V1620     -39.291 136.829   9.856  1.00 15.23     0.007 C 
HETATM   15  C15 VFQ V1620     -40.530 137.572  10.057  1.00 15.23     0.001 C 
HETATM   16  C16 VFQ V1620     -33.286 127.805   7.036  1.00 15.23     0.020 C 
HETATM   17  C17 VFQ V1620     -35.090 129.469   6.553  1.00 15.23     0.020 C 
HETATM   18  C18 VFQ V1620     -31.866 130.922   9.994  1.00 15.23     0.044 C 
HETATM   19  C19 VFQ V1620     -36.922 130.877  10.771  1.00 15.23     0.048 C 
HETATM   20  C20 VFQ V1620     -39.936 134.972  11.388  1.00 15.23     0.048 C 
HETATM   21  O3  VFQ V1620     -30.819 131.171   5.382  1.00 15.23    -0.395 OA
ATOM     22  H3  VFQ V1620     -30.241 131.865   5.677  1.00  0.00     0.210 HD
HETATM   23  C21 VFQ V1620     -50.093 145.391   8.980  1.00 50.20    -0.018 C 
HETATM   24  C22 VFQ V1620     -51.407 146.025   9.422  1.00 50.20     0.045 C 
HETATM   25  C23 VFQ V1620     -51.313 147.084  10.509  1.00 50.20     0.123 C 
HETATM   26  C24 VFQ V1620     -50.311 146.696  11.575  1.00 50.20     0.066 C 
HETATM   27  C25 VFQ V1620     -48.979 146.527  10.907  1.00 50.20    -0.074 C 
HETATM   28  C26 VFQ V1620     -48.878 145.883   9.744  1.00 50.20    -0.048 C 
HETATM   29  C27 VFQ V1620     -47.544 145.628   9.161  1.00 50.20     0.009 C 
HETATM   30  C28 VFQ V1620     -46.889 144.514   9.473  1.00 50.20     0.007 C 
HETATM   31  C29 VFQ V1620     -45.568 144.199   8.917  1.00 15.23    -0.062 C 
HETATM   32  C30 VFQ V1620     -45.102 142.988   9.231  1.00 15.23     0.007 C 
HETATM   33  C31 VFQ V1620     -43.828 142.437   8.806  1.00 15.23     0.001 C 
HETATM   34  C32 VFQ V1620     -43.499 141.240   9.274  1.00 15.23     0.007 C 
HETATM   35  C33 VFQ V1620     -42.221 140.600   8.952  1.00 15.23    -0.062 C 
HETATM   36  C34 VFQ V1620     -41.949 139.440   9.564  1.00 15.23     0.007 C 
HETATM   37  C35 VFQ V1620     -40.715 138.690   9.378  1.00 15.23     0.001 C 
HETATM   38  C36 VFQ V1620     -49.871 145.715   7.510  1.00 50.20     0.020 C 
HETATM   39  C37 VFQ V1620     -50.234 143.880   9.130  1.00 50.20     0.020 C 
HETATM   40  C38 VFQ V1620     -47.781 147.120  11.583  1.00 50.20     0.044 C 
HETATM   41  C39 VFQ V1620     -44.869 145.180   8.030  1.00 15.23     0.048 C 
HETATM   42  C40 VFQ V1620     -41.308 141.288   7.992  1.00 15.23     0.048 C 
HETATM   43  O23 VFQ V1620     -52.599 147.255  11.108  1.00 50.20    -0.395 OA
ATOM     44  H23 VFQ V1620     -53.228 147.499  10.438  1.00  0.00     0.210 HD
ENDROOT
TORSDOF 12
BEGIN_RES PHE A  61
REMARK  2 active torsions:
REMARK  status: ('A' for Active; 'I' for Inactive)
REMARK    1  A    between atoms: CA   and  CB  
REMARK    2  A    between atoms: CB   and  CG  
ROOT
ATOM      1  CA  PHE A  61     -36.237 128.293  12.768  1.00 39.40     0.164 C 
ENDROOT
BRANCH   1   2
ATOM      2  CB  PHE A  61     -36.813 128.951  11.509  1.00 39.41     0.058 C 
BRANCH   2   3
ATOM      3  CG  PHE A  61     -36.725 128.100  10.265  1.00 39.01    -0.020 A 
ATOM      4  CD2 PHE A  61     -37.674 128.209   9.260  1.00 40.32    -0.004 A 
ATOM      5  CE2 PHE A  61     -37.594 127.424   8.117  1.00 40.20    -0.000 A 
ATOM      6  CZ  PHE A  61     -36.564 126.524   7.964  1.00 40.34    -0.000 A 
ATOM      7  CE1 PHE A  61     -35.612 126.405   8.952  1.00 41.51    -0.000 A 
ATOM      8  CD1 PHE A  61     -35.695 127.185  10.098  1.00 39.94    -0.004 A 
ENDBRANCH   2   3
ENDBRANCH   1   2
END_RES PHE A  61
BEGIN_RES VAL A 134
REMARK  1 active torsions:
REMARK  status: ('A' for Active; 'I' for Inactive)
REMARK    3  A    between atoms: CA   and  CB  
ROOT
ATOM      9  CA  VAL A 134     -29.766 132.051   9.815  1.00 40.75     0.159 C 
ENDROOT
BRANCH   9  10
ATOM     10  CB  VAL A 134     -30.864 132.765   9.009  1.00 40.76     0.029 C 
ATOM     11  CG1 VAL A 134     -31.879 133.413   9.939  1.00 41.76     0.002 C 
ATOM     12  CG2 VAL A 134     -30.279 133.789   8.049  1.00 40.56     0.002 C 
ENDBRANCH   9  10
END_RES VAL A 134
BEGIN_RES TYR A 338
REMARK  3 active torsions:
REMARK  status: ('A' for Active; 'I' for Inactive)
REMARK    4  A    between atoms: CA   and  CB  
REMARK    5  A    between atoms: CB   and  CG  
REMARK    6  A    between atoms: CZ   and  OH  
ROOT
ATOM     13  CA  TYR A 338     -41.631 124.950   6.058  1.00 38.23     0.164 C 
ENDROOT
BRANCH  13  14
ATOM     14  CB  TYR A 338     -41.621 126.456   6.339  1.00 39.15     0.058 C 
BRANCH  14  15
ATOM     15  CG  TYR A 338     -40.430 127.216   5.802  1.00 39.03    -0.020 A 
ATOM     16  CD2 TYR A 338     -39.474 126.570   5.036  1.00 40.65    -0.002 A 
ATOM     17  CE2 TYR A 338     -38.361 127.232   4.541  1.00 40.91     0.024 A 
ATOM     18  CZ  TYR A 338     -38.185 128.576   4.812  1.00 42.33     0.089 A 
ATOM     19  CE1 TYR A 338     -39.129 129.244   5.571  1.00 40.63     0.024 A 
ATOM     20  CD1 TYR A 338     -40.228 128.561   6.069  1.00 39.27    -0.002 A 
BRANCH  18  21
ATOM     21  OH  TYR A 338     -37.093 129.239   4.325  1.00 43.36    -0.359 OA
ATOM     22  HH  TYR A 338     -36.404 129.526   4.913  1.00  0.00     0.217 HD
ENDBRANCH  18  21
ENDBRANCH  14  15
ENDBRANCH  13  14
END_RES TYR A 338
ENDMDL
MODEL 3
REMARK VINA RESULT:    -6.352      1.179     16.329
REMARK INTER + INTRA:          -8.718
REMARK INTER:                  -8.302
REMARK INTRA:                  -0.416
REMARK UNBOUND:                -2.365
REMARK  0 active torsions:
REMARK  status: ('A' for Active; 'I' for Inactive)
REMARK       I    between atoms: C3_3  and  O3_21 
REMARK       I    between atoms: C6_6  and  C7_7 
REMARK       I    between atoms: C8_8  and  C9_9 
REMARK       I    between atoms: C10_10  and  C11_11 
REMARK       I    between atoms: C12_12  and  C13_13 
REMARK       I    between atoms: C14_14  and  C15_15 
REMARK       I    between atoms: C23_25  and  O23_43 
REMARK       I    between atoms: C26_28  and  C27_29 
REMARK       I    between atoms: C28_30  and  C29_31 
REMARK       I    between atoms: C30_32  and  C31_33 
REMARK       I    between atoms: C32_34  and  C33_35 
REMARK       I    between atoms: C34_36  and  C35_37 
ROOT
HETATM    1  C1  VFQ V1620     -50.168 144.624  10.594  1.00 15.23    -0.018 C 
HETATM    2  C2  VFQ V1620     -50.638 144.256  11.988  1.00 15.23     0.045 C 
HETATM    3  C3  VFQ V1620     -49.715 144.685  13.098  1.00 15.23     0.123 C 
HETATM    4  C4  VFQ V1620     -49.332 146.113  12.847  1.00 15.23     0.066 C 
HETATM    5  C5  VFQ V1620     -48.580 146.234  11.559  1.00 15.23    -0.074 C 
HETATM    6  C6  VFQ V1620     -48.906 145.446  10.531  1.00 15.23    -0.048 C 
HETATM    7  C7  VFQ V1620     -47.944 145.116   9.475  1.00 15.23     0.009 C 
HETATM    8  C8  VFQ V1620     -46.815 144.603   9.972  1.00 15.23     0.007 C 
HETATM    9  C9  VFQ V1620     -45.785 144.008   9.099  1.00 15.23    -0.062 C 
HETATM   10  C10 VFQ V1620     -44.865 143.234   9.689  1.00 15.23     0.007 C 
HETATM   11  C11 VFQ V1620     -43.865 142.470   8.955  1.00 15.23     0.001 C 
HETATM   12  C12 VFQ V1620     -43.166 141.542   9.590  1.00 15.23     0.007 C 
HETATM   13  C13 VFQ V1620     -42.222 140.671   8.877  1.00 15.23    -0.062 C 
HETATM   14  C14 VFQ V1620     -41.726 139.626   9.547  1.00 15.23     0.007 C 
HETATM   15  C15 VFQ V1620     -40.819 138.638   8.974  1.00 15.23     0.001 C 
HETATM   16  C16 VFQ V1620     -51.240 145.520  10.005  1.00 15.23     0.020 C 
HETATM   17  C17 VFQ V1620     -50.024 143.344   9.791  1.00 15.23     0.020 C 
HETATM   18  C18 VFQ V1620     -47.300 147.009  11.660  1.00 15.23     0.044 C 
HETATM   19  C19 VFQ V1620     -45.829 144.242   7.616  1.00 15.23     0.048 C 
HETATM   20  C20 VFQ V1620     -41.901 140.960   7.449  1.00 15.23     0.048 C 
HETATM   21  O3  VFQ V1620     -50.421 144.656  14.333  1.00 15.23    -0.395 OA
ATOM     22  H3  VFQ V1620     -49.839 144.926  15.033  1.00  0.00     0.210 HD
HETATM   23  C21 VFQ V1620     -34.094 128.469   6.715  1.00 50.20    -0.018 C 
HETATM   24  C22 VFQ V1620     -33.088 127.631   5.934  1.00 50.20     0.045 C 
HETATM   25  C23 VFQ V1620     -31.620 127.937   6.179  1.00 50.20     0.123 C 
HETATM   26  C24 VFQ V1620     -31.376 129.427   6.291  1.00 50.20     0.066 C 
HETATM   27  C25 VFQ V1620     -32.204 129.938   7.433  1.00 50.20    -0.074 C 
HETATM   28  C26 VFQ V1620     -33.465 129.536   7.592  1.00 50.20    -0.048 C 
HETATM   29  C27 VFQ V1620     -34.298 130.138   8.655  1.00 50.20     0.009 C 
HETATM   30  C28 VFQ V1620     -35.012 131.229   8.395  1.00 50.20     0.007 C 
HETATM   31  C29 VFQ V1620     -35.867 131.864   9.404  1.00 15.23    -0.062 C 
HETATM   32  C30 VFQ V1620     -36.613 132.874   8.951  1.00 15.23     0.007 C 
HETATM   33  C31 VFQ V1620     -37.539 133.662   9.743  1.00 15.23     0.001 C 
HETATM   34  C32 VFQ V1620     -38.145 134.676   9.137  1.00 15.23     0.007 C 
HETATM   35  C33 VFQ V1620     -39.067 135.568   9.843  1.00 15.23    -0.062 C 
HETATM   36  C34 VFQ V1620     -39.539 136.621   9.161  1.00 15.23     0.007 C 
HETATM   37  C35 VFQ V1620     -40.440 137.617   9.722  1.00 15.23     0.001 C 
HETATM   38  C36 VFQ V1620     -34.892 127.543   7.622  1.00 50.20     0.020 C 
HETATM   39  C37 VFQ V1620     -35.047 129.107   5.710  1.00 50.20     0.020 C 
HETATM   40  C38 VFQ V1620     -31.558 130.895   8.387  1.00 50.20     0.044 C 
HETATM   41  C39 VFQ V1620     -35.896 131.342  10.805  1.00 15.23     0.048 C 
HETATM   42  C40 VFQ V1620     -39.397 135.262  11.267  1.00 15.23     0.048 C 
HETATM   43  O23 VFQ V1620     -30.846 127.411   5.099  1.00 50.20    -0.395 OA
ATOM     44  H23 VFQ V1620     -30.999 126.476   5.028  1.00  0.00     0.210 HD
ENDROOT
TORSDOF 12
BEGIN_RES PHE A  61
REMARK  2 active torsions:
REMARK  status: ('A' for Active; 'I' for Inactive)
REMARK    1  A    between atoms: CA   and  CB  
REMARK    2  A    between atoms: CB   and  CG  
ROOT
ATOM      1  CA  PHE A  61     -36.237 128.293  12.768  1.00 39.40     0.164 C 
ENDROOT
BRANCH   1   2
ATOM      2  CB  PHE A  61     -36.813 128.951  11.509  1.00 39.41     0.058 C 
BRANCH   2   3
ATOM      3  CG  PHE A  61     -37.024 128.005  10.351  1.00 39.01    -0.020 A 
ATOM      4  CD2 PHE A  61     -36.276 126.844  10.235  1.00 40.32    -0.004 A 
ATOM      5  CE2 PHE A  61     -36.469 125.976   9.168  1.00 40.20    -0.000 A 
ATOM      6  CZ  PHE A  61     -37.415 126.256   8.208  1.00 40.34    -0.000 A 
ATOM      7  CE1 PHE A  61     -38.168 127.405   8.310  1.00 41.51    -0.000 A 
ATOM      8  CD1 PHE A  61     -37.971 128.276   9.374  1.00 39.94    -0.004 A 
ENDBRANCH   2   3
ENDBRANCH   1   2
END_RES PHE A  61
BEGIN_RES VAL A 134
REMARK  1 active torsions:
REMARK  status: ('A' for Active; 'I' for Inactive)
REMARK    3  A    between atoms: CA   and  CB  
ROOT
ATOM      9  CA  VAL A 134     -29.766 132.051   9.815  1.00 40.75     0.159 C 
ENDROOT
BRANCH   9  10
ATOM     10  CB  VAL A 134     -30.864 132.765   9.009  1.00 40.76     0.029 C 
ATOM     11  CG1 VAL A 134     -32.105 132.980   9.863  1.00 41.76     0.002 C 
ATOM     12  CG2 VAL A 134     -30.370 134.083   8.433  1.00 40.56     0.002 C 
ENDBRANCH   9  10
END_RES VAL A 134
BEGIN_RES TYR A 338
REMARK  3 active torsions:
REMARK  status: ('A' for Active; 'I' for Inactive)
REMARK    4  A    between atoms: CA   and  CB  
REMARK    5  A    between atoms: CB   and  CG  
REMARK    6  A    between atoms: CZ   and  OH  
ROOT
ATOM     13  CA  TYR A 338     -41.631 124.950   6.058  1.00 38.23     0.164 C 
ENDROOT
BRANCH  13  14
ATOM     14  CB  TYR A 338     -41.621 126.456   6.339  1.00 39.15     0.058 C 
BRANCH  14  15
ATOM     15  CG  TYR A 338     -40.419 127.212   5.822  1.00 39.03    -0.020 A 
ATOM     16  CD2 TYR A 338     -40.266 128.560   6.100  1.00 40.65    -0.002 A 
ATOM     17  CE2 TYR A 338     -39.184 129.288   5.628  1.00 40.91     0.024 A 
ATOM     18  CZ  TYR A 338     -38.222 128.665   4.856  1.00 42.33     0.089 A 
ATOM     19  CE1 TYR A 338     -38.350 127.317   4.569  1.00 40.63     0.024 A 
ATOM     20  CD1 TYR A 338     -39.446 126.610   5.039  1.00 39.27    -0.002 A 
BRANCH  18  21
ATOM     21  OH  TYR A 338     -37.149 129.372   4.390  1.00 43.36    -0.359 OA
ATOM     22  HH  TYR A 338     -36.280 128.986   4.395  1.00  0.00     0.217 HD
ENDBRANCH  18  21
ENDBRANCH  14  15
ENDBRANCH  13  14
END_RES TYR A 338
ENDMDL
