MODEL 1
REMARK VINA RESULT:   -10.987      0.000      0.000
REMARK INTER + INTRA:         -11.597
REMARK INTER:                 -10.987
REMARK INTRA:                  -0.610
REMARK UNBOUND:                -0.610
REMARK  0 active torsions:
REMARK  status: ('A' for Active; 'I' for Inactive)
REMARK       I    between atoms: C3_3  and  O3_21 
REMARK       I    between atoms: C6_6  and  C7_7 
REMARK       I    between atoms: C8_8  and  C9_9 
REMARK       I    between atoms: C10_10  and  C11_11 
REMARK       I    between atoms: C12_12  and  C13_13 
REMARK       I    between atoms: C14_14  and  C15_15 
REMARK       I    between atoms: C23_25  and  O23_43 
REMARK       I    between atoms: C26_28  and  C27_29 
REMARK       I    between atoms: C28_30  and  C29_31 
REMARK       I    between atoms: C30_32  and  C31_33 
REMARK       I    between atoms: C32_34  and  C33_35 
REMARK       I    between atoms: C34_36  and  C35_37 
ROOT
HETATM    1  C1  VFQ 7 622     -50.451 144.367  10.054  1.00 13.75    -0.018 C 
HETATM    2  C2  VFQ 7 622     -51.577 144.925  10.911  1.00 13.75     0.045 C 
HETATM    3  C3  VFQ 7 622     -51.092 145.771  12.066  1.00 13.75     0.123 C 
HETATM    4  C4  VFQ 7 622     -50.248 146.889  11.517  1.00 13.75     0.066 C 
HETATM    5  C5  VFQ 7 622     -49.074 146.315  10.782  1.00 13.75    -0.074 C 
HETATM    6  C6  VFQ 7 622     -49.172 145.191  10.051  1.00 13.75    -0.048 C 
HETATM    7  C7  VFQ 7 622     -48.077 144.709   9.161  1.00 13.75     0.009 C 
HETATM    8  C8  VFQ 7 622     -46.984 144.052   9.571  1.00 13.75     0.007 C 
HETATM    9  C9  VFQ 7 622     -45.957 143.576   8.624  1.00 13.75    -0.062 C 
HETATM   10  C10 VFQ 7 622     -45.098 142.648   9.065  1.00 13.75     0.007 C 
HETATM   11  C11 VFQ 7 622     -44.038 142.030   8.275  1.00 13.75     0.001 C 
HETATM   12  C12 VFQ 7 622     -43.537 140.921   8.806  1.00 13.75     0.007 C 
HETATM   13  C13 VFQ 7 622     -42.484 140.070   8.229  1.00 13.75    -0.062 C 
HETATM   14  C14 VFQ 7 622     -41.960 139.117   9.016  1.00 13.75     0.007 C 
HETATM   15  C15 VFQ 7 622     -40.943 138.182   8.561  1.00 13.75     0.001 C 
HETATM   16  C16 VFQ 7 622     -51.015 144.226   8.648  1.00 13.75     0.020 C 
HETATM   17  C17 VFQ 7 622     -50.090 142.992  10.594  1.00 13.75     0.020 C 
HETATM   18  C18 VFQ 7 622     -47.915 147.252  10.697  1.00 13.75     0.044 C 
HETATM   19  C19 VFQ 7 622     -45.892 144.106   7.224  1.00 13.75     0.048 C 
HETATM   20  C20 VFQ 7 622     -42.041 140.231   6.806  1.00 13.75     0.048 C 
HETATM   21  O3  VFQ 7 622     -52.210 146.326  12.761  1.00 13.75    -0.395 OA
ATOM     22  H3  VFQ 7 622     -52.742 145.620  13.108  1.00  0.00     0.210 HD
HETATM   23  C21 VFQ 7 622     -34.027 128.482   7.197  1.00 33.88    -0.018 C 
HETATM   24  C22 VFQ 7 622     -33.185 127.673   6.222  1.00 33.88     0.045 C 
HETATM   25  C23 VFQ 7 622     -31.719 128.049   6.196  1.00 33.88     0.123 C 
HETATM   26  C24 VFQ 7 622     -31.643 129.530   5.898  1.00 33.88     0.066 C 
HETATM   27  C25 VFQ 7 622     -32.342 130.297   6.990  1.00 33.88    -0.074 C 
HETATM   28  C26 VFQ 7 622     -33.255 129.681   7.748  1.00 33.88    -0.048 C 
HETATM   29  C27 VFQ 7 622     -33.765 130.318   8.970  1.00 33.88     0.009 C 
HETATM   30  C28 VFQ 7 622     -34.882 130.983   8.647  1.00 33.88     0.007 C 
HETATM   31  C29 VFQ 7 622     -35.647 131.804   9.607  1.00 13.75    -0.062 C 
HETATM   32  C30 VFQ 7 622     -36.682 132.485   9.102  1.00 13.75     0.007 C 
HETATM   33  C31 VFQ 7 622     -37.577 133.333   9.876  1.00 13.75     0.001 C 
HETATM   34  C32 VFQ 7 622     -38.198 134.280   9.186  1.00 13.75     0.007 C 
HETATM   35  C33 VFQ 7 622     -39.158 135.235   9.760  1.00 13.75    -0.062 C 
HETATM   36  C34 VFQ 7 622     -39.634 136.188   8.948  1.00 13.75     0.007 C 
HETATM   37  C35 VFQ 7 622     -40.615 137.177   9.370  1.00 13.75     0.001 C 
HETATM   38  C36 VFQ 7 622     -34.352 127.557   8.367  1.00 33.88     0.020 C 
HETATM   39  C37 VFQ 7 622     -35.317 128.795   6.442  1.00 33.88     0.020 C 
HETATM   40  C38 VFQ 7 622     -31.983 131.752   7.150  1.00 33.88     0.044 C 
HETATM   41  C39 VFQ 7 622     -35.296 131.854  11.060  1.00 13.75     0.048 C 
HETATM   42  C40 VFQ 7 622     -39.594 135.131  11.189  1.00 13.75     0.048 C 
HETATM   43  O23 VFQ 7 622     -31.113 127.297   5.139  1.00 33.88    -0.395 OA
ATOM     44  H23 VFQ 7 622     -30.193 127.533   5.123  1.00  0.00     0.210 HD
ENDROOT
TORSDOF 12
BEGIN_RES PHE A  61
REMARK  2 active torsions:
REMARK  status: ('A' for Active; 'I' for Inactive)
REMARK    1  A    between atoms: CA   and  CB  
REMARK    2  A    between atoms: CB   and  CG  
ROOT
ATOM      1  CA  PHE A  61     -36.237 128.293  12.768  1.00 39.40     0.164 C 
ENDROOT
BRANCH   1   2
ATOM      2  CB  PHE A  61     -36.813 128.951  11.509  1.00 39.41     0.058 C 
BRANCH   2   3
ATOM      3  CG  PHE A  61     -36.989 128.013  10.339  1.00 39.01    -0.020 A 
ATOM      4  CD2 PHE A  61     -36.260 126.837  10.254  1.00 40.32    -0.004 A 
ATOM      5  CE2 PHE A  61     -36.420 125.976   9.176  1.00 40.20    -0.000 A 
ATOM      6  CZ  PHE A  61     -37.313 126.278   8.173  1.00 40.34    -0.000 A 
ATOM      7  CE1 PHE A  61     -38.047 127.442   8.244  1.00 41.51    -0.000 A 
ATOM      8  CD1 PHE A  61     -37.882 128.306   9.318  1.00 39.94    -0.004 A 
ENDBRANCH   2   3
ENDBRANCH   1   2
END_RES PHE A  61
BEGIN_RES VAL A 134
REMARK  1 active torsions:
REMARK  status: ('A' for Active; 'I' for Inactive)
REMARK    3  A    between atoms: CA   and  CB  
ROOT
ATOM      9  CA  VAL A 134     -29.766 132.051   9.815  1.00 40.75     0.159 C 
ENDROOT
BRANCH   9  10
ATOM     10  CB  VAL A 134     -30.864 132.765   9.009  1.00 40.76     0.029 C 
ATOM     11  CG1 VAL A 134     -32.079 133.043   9.883  1.00 41.76     0.002 C 
ATOM     12  CG2 VAL A 134     -30.350 134.048   8.375  1.00 40.56     0.002 C 
ENDBRANCH   9  10
END_RES VAL A 134
BEGIN_RES TYR A 338
REMARK  3 active torsions:
REMARK  status: ('A' for Active; 'I' for Inactive)
REMARK    4  A    between atoms: CA   and  CB  
REMARK    5  A    between atoms: CB   and  CG  
REMARK    6  A    between atoms: CZ   and  OH  
ROOT
ATOM     13  CA  TYR A 338     -41.631 124.950   6.058  1.00 38.23     0.164 C 
ENDROOT
BRANCH  13  14
ATOM     14  CB  TYR A 338     -41.621 126.456   6.339  1.00 39.15     0.058 C 
BRANCH  14  15
ATOM     15  CG  TYR A 338     -40.416 127.211   5.826  1.00 39.03    -0.020 A 
ATOM     16  CD2 TYR A 338     -40.264 128.559   6.103  1.00 40.65    -0.002 A 
ATOM     17  CE2 TYR A 338     -39.181 129.286   5.635  1.00 40.91     0.024 A 
ATOM     18  CZ  TYR A 338     -38.215 128.662   4.868  1.00 42.33     0.089 A 
ATOM     19  CE1 TYR A 338     -38.343 127.315   4.581  1.00 40.63     0.024 A 
ATOM     20  CD1 TYR A 338     -39.441 126.608   5.047  1.00 39.27    -0.002 A 
BRANCH  18  21
ATOM     21  OH  TYR A 338     -37.140 129.369   4.405  1.00 43.36    -0.359 OA
ATOM     22  HH  TYR A 338     -36.588 129.854   5.008  1.00  0.00     0.217 HD
ENDBRANCH  18  21
ENDBRANCH  14  15
ENDBRANCH  13  14
END_RES TYR A 338
ENDMDL
MODEL 2
REMARK VINA RESULT:   -10.206      1.375     16.481
REMARK INTER + INTRA:         -10.816
REMARK INTER:                  -7.180
REMARK INTRA:                  -3.636
REMARK UNBOUND:                -0.610
REMARK  0 active torsions:
REMARK  status: ('A' for Active; 'I' for Inactive)
REMARK       I    between atoms: C3_3  and  O3_21 
REMARK       I    between atoms: C6_6  and  C7_7 
REMARK       I    between atoms: C8_8  and  C9_9 
REMARK       I    between atoms: C10_10  and  C11_11 
REMARK       I    between atoms: C12_12  and  C13_13 
REMARK       I    between atoms: C14_14  and  C15_15 
REMARK       I    between atoms: C23_25  and  O23_43 
REMARK       I    between atoms: C26_28  and  C27_29 
REMARK       I    between atoms: C28_30  and  C29_31 
REMARK       I    between atoms: C30_32  and  C31_33 
REMARK       I    between atoms: C32_34  and  C33_35 
REMARK       I    between atoms: C34_36  and  C35_37 
ROOT
HETATM    1  C1  VFQ 7 622     -34.461 126.928   5.942  1.00 13.75    -0.018 C 
HETATM    2  C2  VFQ 7 622     -33.838 126.054   4.864  1.00 13.75     0.045 C 
HETATM    3  C3  VFQ 7 622     -32.784 126.764   4.046  1.00 13.75     0.123 C 
HETATM    4  C4  VFQ 7 622     -31.723 127.279   4.982  1.00 13.75     0.066 C 
HETATM    5  C5  VFQ 7 622     -32.339 128.238   5.957  1.00 13.75    -0.074 C 
HETATM    6  C6  VFQ 7 622     -33.572 128.051   6.457  1.00 13.75    -0.048 C 
HETATM    7  C7  VFQ 7 622     -34.128 128.877   7.566  1.00 13.75     0.009 C 
HETATM    8  C8  VFQ 7 622     -34.638 130.108   7.428  1.00 13.75     0.007 C 
HETATM    9  C9  VFQ 7 622     -35.202 130.853   8.572  1.00 13.75    -0.062 C 
HETATM   10  C10 VFQ 7 622     -35.989 131.900   8.294  1.00 13.75     0.007 C 
HETATM   11  C11 VFQ 7 622     -36.664 132.738   9.280  1.00 13.75     0.001 C 
HETATM   12  C12 VFQ 7 622     -37.636 133.493   8.781  1.00 13.75     0.007 C 
HETATM   13  C13 VFQ 7 622     -38.505 134.414   9.532  1.00 13.75    -0.062 C 
HETATM   14  C14 VFQ 7 622     -39.279 135.249   8.821  1.00 13.75     0.007 C 
HETATM   15  C15 VFQ 7 622     -40.213 136.181   9.434  1.00 13.75     0.001 C 
HETATM   16  C16 VFQ 7 622     -34.869 125.991   7.069  1.00 13.75     0.020 C 
HETATM   17  C17 VFQ 7 622     -35.702 127.582   5.354  1.00 13.75     0.020 C 
HETATM   18  C18 VFQ 7 622     -31.359 129.209   6.528  1.00 13.75     0.044 C 
HETATM   19  C19 VFQ 7 622     -34.910 130.440   9.982  1.00 13.75     0.048 C 
HETATM   20  C20 VFQ 7 622     -38.556 134.393  11.030  1.00 13.75     0.048 C 
HETATM   21  O3  VFQ 7 622     -32.190 125.850   3.124  1.00 13.75    -0.395 OA
ATOM     22  H3  VFQ 7 622     -32.860 125.525   2.534  1.00  0.00     0.210 HD
HETATM   23  C21 VFQ 7 622     -49.561 143.397  11.510  1.00 33.88    -0.018 C 
HETATM   24  C22 VFQ 7 622     -50.469 143.995  12.575  1.00 33.88     0.045 C 
HETATM   25  C23 VFQ 7 622     -50.013 145.337  13.107  1.00 33.88     0.123 C 
HETATM   26  C24 VFQ 7 622     -48.600 145.157  13.619  1.00 33.88     0.066 C 
HETATM   27  C25 VFQ 7 622     -47.706 144.735  12.482  1.00 33.88    -0.074 C 
HETATM   28  C26 VFQ 7 622     -48.242 144.162  11.400  1.00 33.88    -0.048 C 
HETATM   29  C27 VFQ 7 622     -47.443 143.972  10.182  1.00 33.88     0.009 C 
HETATM   30  C28 VFQ 7 622     -46.911 142.744  10.231  1.00 33.88     0.007 C 
HETATM   31  C29 VFQ 7 622     -45.991 142.213   9.205  1.00 13.75    -0.062 C 
HETATM   32  C30 VFQ 7 622     -45.467 141.007   9.453  1.00 13.75     0.007 C 
HETATM   33  C31 VFQ 7 622     -44.559 140.295   8.566  1.00 13.75     0.001 C 
HETATM   34  C32 VFQ 7 622     -43.780 139.398   9.155  1.00 13.75     0.007 C 
HETATM   35  C33 VFQ 7 622     -42.804 138.553   8.450  1.00 13.75    -0.062 C 
HETATM   36  C34 VFQ 7 622     -42.030 137.755   9.199  1.00 13.75     0.007 C 
HETATM   37  C35 VFQ 7 622     -41.047 136.842   8.635  1.00 13.75     0.001 C 
HETATM   38  C36 VFQ 7 622     -50.297 143.538  10.180  1.00 33.88     0.020 C 
HETATM   39  C37 VFQ 7 622     -49.458 141.915  11.863  1.00 33.88     0.020 C 
HETATM   40  C38 VFQ 7 622     -46.225 144.964  12.646  1.00 33.88     0.044 C 
HETATM   41  C39 VFQ 7 622     -45.677 142.972   7.955  1.00 13.75     0.048 C 
HETATM   42  C40 VFQ 7 622     -42.695 138.575   6.956  1.00 13.75     0.048 C 
HETATM   43  O23 VFQ 7 622     -50.892 145.680  14.185  1.00 33.88    -0.395 OA
ATOM     44  H23 VFQ 7 622     -50.606 146.522  14.519  1.00  0.00     0.210 HD
ENDROOT
TORSDOF 12
BEGIN_RES PHE A  61
REMARK  2 active torsions:
REMARK  status: ('A' for Active; 'I' for Inactive)
REMARK    1  A    between atoms: CA   and  CB  
REMARK    2  A    between atoms: CB   and  CG  
ROOT
ATOM      1  CA  PHE A  61     -36.237 128.293  12.768  1.00 39.40     0.164 C 
ENDROOT
BRANCH   1   2
ATOM      2  CB  PHE A  61     -36.813 128.951  11.509  1.00 39.41     0.058 C 
BRANCH   2   3
ATOM      3  CG  PHE A  61     -36.985 128.013  10.338  1.00 39.01    -0.020 A 
ATOM      4  CD2 PHE A  61     -36.205 126.874  10.218  1.00 40.32    -0.004 A 
ATOM      5  CE2 PHE A  61     -36.363 126.014   9.138  1.00 40.20    -0.000 A 
ATOM      6  CZ  PHE A  61     -37.303 126.281   8.170  1.00 40.34    -0.000 A 
ATOM      7  CE1 PHE A  61     -38.087 127.408   8.275  1.00 41.51    -0.000 A 
ATOM      8  CD1 PHE A  61     -37.926 128.272   9.351  1.00 39.94    -0.004 A 
ENDBRANCH   2   3
ENDBRANCH   1   2
END_RES PHE A  61
BEGIN_RES VAL A 134
REMARK  1 active torsions:
REMARK  status: ('A' for Active; 'I' for Inactive)
REMARK    3  A    between atoms: CA   and  CB  
ROOT
ATOM      9  CA  VAL A 134     -29.766 132.051   9.815  1.00 40.75     0.159 C 
ENDROOT
BRANCH   9  10
ATOM     10  CB  VAL A 134     -30.864 132.765   9.009  1.00 40.76     0.029 C 
ATOM     11  CG1 VAL A 134     -31.170 132.006   7.726  1.00 41.76     0.002 C 
ATOM     12  CG2 VAL A 134     -32.126 132.964   9.834  1.00 40.56     0.002 C 
ENDBRANCH   9  10
END_RES VAL A 134
BEGIN_RES TYR A 338
REMARK  3 active torsions:
REMARK  status: ('A' for Active; 'I' for Inactive)
REMARK    4  A    between atoms: CA   and  CB  
REMARK    5  A    between atoms: CB   and  CG  
REMARK    6  A    between atoms: CZ   and  OH  
ROOT
ATOM     13  CA  TYR A 338     -41.631 124.950   6.058  1.00 38.23     0.164 C 
ENDROOT
BRANCH  13  14
ATOM     14  CB  TYR A 338     -41.621 126.456   6.339  1.00 39.15     0.058 C 
BRANCH  14  15
ATOM     15  CG  TYR A 338     -40.427 127.215   5.807  1.00 39.03    -0.020 A 
ATOM     16  CD2 TYR A 338     -40.250 128.552   6.120  1.00 40.65    -0.002 A 
ATOM     17  CE2 TYR A 338     -39.176 129.282   5.637  1.00 40.91     0.024 A 
ATOM     18  CZ  TYR A 338     -38.245 128.673   4.817  1.00 42.33     0.089 A 
ATOM     19  CE1 TYR A 338     -38.397 127.336   4.494  1.00 40.63     0.024 A 
ATOM     20  CD1 TYR A 338     -39.486 126.627   4.976  1.00 39.27    -0.002 A 
BRANCH  18  21
ATOM     21  OH  TYR A 338     -37.179 129.383   4.338  1.00 43.36    -0.359 OA
ATOM     22  HH  TYR A 338     -37.299 130.265   4.007  1.00  0.00     0.217 HD
ENDBRANCH  18  21
ENDBRANCH  14  15
ENDBRANCH  13  14
END_RES TYR A 338
ENDMDL
