MODEL 1
REMARK VINA RESULT:    -8.700      0.000      0.000
REMARK INTER + INTRA:         -10.938
REMARK INTER:                  -8.700
REMARK INTRA:                  -2.238
REMARK UNBOUND:                -2.238
REMARK  0 active torsions:
REMARK  status: ('A' for Active; 'I' for Inactive)
REMARK       I    between atoms: C3_3  and  O3_21 
REMARK       I    between atoms: C6_6  and  C7_7 
REMARK       I    between atoms: C8_8  and  C9_9 
REMARK       I    between atoms: C10_10  and  C11_11 
REMARK       I    between atoms: C12_12  and  C13_13 
REMARK       I    between atoms: C14_14  and  C15_15 
REMARK       I    between atoms: C23_25  and  O23_43 
REMARK       I    between atoms: C26_28  and  C27_29 
REMARK       I    between atoms: C28_30  and  C29_31 
REMARK       I    between atoms: C30_32  and  C31_33 
REMARK       I    between atoms: C32_34  and  C33_35 
REMARK       I    between atoms: C34_36  and  C35_37 
ROOT
HETATM    1  C1  VFQ F5620     -34.527 127.206   6.351  1.00 19.30    -0.018 C 
HETATM    2  C2  VFQ F5620     -33.990 126.591   5.045  1.00 17.68     0.045 C 
HETATM    3  C3  VFQ F5620     -32.741 127.193   4.408  1.00 17.79     0.123 C 
HETATM    4  C4  VFQ F5620     -31.857 128.017   5.346  1.00 18.50     0.066 C 
HETATM    5  C5  VFQ F5620     -32.498 128.767   6.468  1.00 19.40    -0.074 C 
HETATM    6  C6  VFQ F5620     -33.741 128.414   6.955  1.00 19.02    -0.048 C 
HETATM    7  C7  VFQ F5620     -34.381 129.163   8.048  1.00 18.60     0.009 C 
HETATM    8  C8  VFQ F5620     -35.004 130.356   7.953  1.00 18.09     0.007 C 
HETATM    9  C9  VFQ F5620     -35.539 131.164   9.053  1.00 18.23    -0.062 C 
HETATM   10  C10 VFQ F5620     -36.222 132.285   8.734  1.00 15.81     0.007 C 
HETATM   11  C11 VFQ F5620     -36.841 133.204   9.649  1.00 18.00     0.001 C 
HETATM   12  C12 VFQ F5620     -37.639 134.175   9.176  1.00 18.12     0.007 C 
HETATM   13  C13 VFQ F5620     -38.406 135.178   9.903  1.00 18.88    -0.062 C 
HETATM   14  C14 VFQ F5620     -39.221 135.975   9.181  1.00 21.10     0.007 C 
HETATM   15  C15 VFQ F5620     -40.138 136.973   9.665  1.00 24.06     0.001 C 
HETATM   16  C16 VFQ F5620     -34.500 126.025   7.337  1.00 17.17     0.020 C 
HETATM   17  C17 VFQ F5620     -36.004 127.584   6.100  1.00 16.95     0.020 C 
HETATM   18  C18 VFQ F5620     -31.587 129.874   6.891  1.00 19.80     0.044 C 
HETATM   19  C19 VFQ F5620     -35.334 130.659  10.463  1.00 17.09     0.048 C 
HETATM   20  C20 VFQ F5620     -38.295 135.207  11.396  1.00 16.35     0.048 C 
HETATM   21  O3  VFQ F5620     -31.973 126.179   3.786  1.00 17.38    -0.395 OA
ATOM     22  H3  VFQ F5620     -31.195 126.554   3.389  1.00  0.00     0.210 HD
HETATM   23  C21 VFQ F5620     -50.034 144.994  11.413  1.00 27.53    -0.018 C 
HETATM   24  C22 VFQ F5620     -50.762 145.481  12.664  1.00 27.53     0.045 C 
HETATM   25  C23 VFQ F5620     -49.869 146.358  13.519  1.00 27.53     0.123 C 
HETATM   26  C24 VFQ F5620     -48.725 145.474  13.959  1.00 27.53     0.066 C 
HETATM   27  C25 VFQ F5620     -47.901 145.262  12.721  1.00 27.53    -0.074 C 
HETATM   28  C26 VFQ F5620     -48.515 145.047  11.533  1.00 27.53    -0.048 C 
HETATM   29  C27 VFQ F5620     -47.734 144.651  10.343  1.00 27.53     0.009 C 
HETATM   30  C28 VFQ F5620     -46.842 143.680  10.557  1.00 27.53     0.007 C 
HETATM   31  C29 VFQ F5620     -46.100 143.010   9.439  1.00 26.61    -0.062 C 
HETATM   32  C30 VFQ F5620     -45.228 142.043   9.792  1.00 25.24     0.007 C 
HETATM   33  C31 VFQ F5620     -44.445 141.230   8.908  1.00 26.40     0.001 C 
HETATM   34  C32 VFQ F5620     -43.570 140.322   9.379  1.00 26.29     0.007 C 
HETATM   35  C33 VFQ F5620     -42.688 139.425   8.625  1.00 26.99    -0.062 C 
HETATM   36  C34 VFQ F5620     -41.862 138.623   9.331  1.00 26.65     0.007 C 
HETATM   37  C35 VFQ F5620     -40.911 137.673   8.827  1.00 25.43     0.001 C 
HETATM   38  C36 VFQ F5620     -50.539 145.811  10.227  1.00 27.53     0.020 C 
HETATM   39  C37 VFQ F5620     -50.388 143.524  11.201  1.00 27.53     0.020 C 
HETATM   40  C38 VFQ F5620     -46.415 145.473  12.895  1.00 27.53     0.044 C 
HETATM   41  C39 VFQ F5620     -46.353 143.439   8.015  1.00 26.87     0.048 C 
HETATM   42  C40 VFQ F5620     -42.746 139.480   7.127  1.00 24.17     0.048 C 
HETATM   43  O23 VFQ F5620     -50.562 146.878  14.657  1.00 27.53    -0.395 OA
ATOM     44  H23 VFQ F5620     -51.282 147.434  14.380  1.00  0.00     0.210 HD
ENDROOT
TORSDOF 12
BEGIN_RES PHE A  61
REMARK  2 active torsions:
REMARK  status: ('A' for Active; 'I' for Inactive)
REMARK    1  A    between atoms: CA   and  CB  
REMARK    2  A    between atoms: CB   and  CG  
ROOT
ATOM      1  CA  PHE A  61     -36.237 128.293  12.768  1.00 39.40     0.164 C 
ENDROOT
BRANCH   1   2
ATOM      2  CB  PHE A  61     -36.813 128.951  11.509  1.00 39.41     0.058 C 
BRANCH   2   3
ATOM      3  CG  PHE A  61     -37.069 127.996  10.368  1.00 39.01    -0.020 A 
ATOM      4  CD2 PHE A  61     -36.349 126.818  10.249  1.00 40.32    -0.004 A 
ATOM      5  CE2 PHE A  61     -36.583 125.942   9.197  1.00 40.20    -0.000 A 
ATOM      6  CZ  PHE A  61     -37.543 126.232   8.254  1.00 40.34    -0.000 A 
ATOM      7  CE1 PHE A  61     -38.270 127.398   8.358  1.00 41.51    -0.000 A 
ATOM      8  CD1 PHE A  61     -38.031 128.277   9.407  1.00 39.94    -0.004 A 
ENDBRANCH   2   3
ENDBRANCH   1   2
END_RES PHE A  61
BEGIN_RES VAL A 134
REMARK  1 active torsions:
REMARK  status: ('A' for Active; 'I' for Inactive)
REMARK    3  A    between atoms: CA   and  CB  
ROOT
ATOM      9  CA  VAL A 134     -29.766 132.051   9.815  1.00 40.75     0.159 C 
ENDROOT
BRANCH   9  10
ATOM     10  CB  VAL A 134     -30.864 132.765   9.009  1.00 40.76     0.029 C 
ATOM     11  CG1 VAL A 134     -30.849 132.309   7.557  1.00 41.76     0.002 C 
ATOM     12  CG2 VAL A 134     -32.238 132.557   9.626  1.00 40.56     0.002 C 
ENDBRANCH   9  10
END_RES VAL A 134
BEGIN_RES TYR A 338
REMARK  3 active torsions:
REMARK  status: ('A' for Active; 'I' for Inactive)
REMARK    4  A    between atoms: CA   and  CB  
REMARK    5  A    between atoms: CB   and  CG  
REMARK    6  A    between atoms: CZ   and  OH  
ROOT
ATOM     13  CA  TYR A 338     -41.631 124.950   6.058  1.00 38.23     0.164 C 
ENDROOT
BRANCH  13  14
ATOM     14  CB  TYR A 338     -41.621 126.456   6.339  1.00 39.15     0.058 C 
BRANCH  14  15
ATOM     15  CG  TYR A 338     -40.429 127.216   5.803  1.00 39.03    -0.020 A 
ATOM     16  CD2 TYR A 338     -40.247 128.550   6.123  1.00 40.65    -0.002 A 
ATOM     17  CE2 TYR A 338     -39.175 129.282   5.636  1.00 40.91     0.024 A 
ATOM     18  CZ  TYR A 338     -38.252 128.676   4.805  1.00 42.33     0.089 A 
ATOM     19  CE1 TYR A 338     -38.409 127.341   4.475  1.00 40.63     0.024 A 
ATOM     20  CD1 TYR A 338     -39.496 126.631   4.961  1.00 39.27    -0.002 A 
BRANCH  18  21
ATOM     21  OH  TYR A 338     -37.188 129.386   4.323  1.00 43.36    -0.359 OA
ATOM     22  HH  TYR A 338     -36.873 130.154   4.786  1.00  0.00     0.217 HD
ENDBRANCH  18  21
ENDBRANCH  14  15
ENDBRANCH  13  14
END_RES TYR A 338
ENDMDL
MODEL 2
REMARK VINA RESULT:    -8.202      1.251     16.821
REMARK INTER + INTRA:         -10.439
REMARK INTER:                  -9.897
REMARK INTRA:                  -0.542
REMARK UNBOUND:                -2.238
REMARK  0 active torsions:
REMARK  status: ('A' for Active; 'I' for Inactive)
REMARK       I    between atoms: C3_3  and  O3_21 
REMARK       I    between atoms: C6_6  and  C7_7 
REMARK       I    between atoms: C8_8  and  C9_9 
REMARK       I    between atoms: C10_10  and  C11_11 
REMARK       I    between atoms: C12_12  and  C13_13 
REMARK       I    between atoms: C14_14  and  C15_15 
REMARK       I    between atoms: C23_25  and  O23_43 
REMARK       I    between atoms: C26_28  and  C27_29 
REMARK       I    between atoms: C28_30  and  C29_31 
REMARK       I    between atoms: C30_32  and  C31_33 
REMARK       I    between atoms: C32_34  and  C33_35 
REMARK       I    between atoms: C34_36  and  C35_37 
ROOT
HETATM    1  C1  VFQ F5620     -50.501 145.209  10.018  1.00 19.30    -0.018 C 
HETATM    2  C2  VFQ F5620     -51.502 145.565  11.133  1.00 17.68     0.045 C 
HETATM    3  C3  VFQ F5620     -51.055 146.503  12.249  1.00 17.79     0.123 C 
HETATM    4  C4  VFQ F5620     -49.849 147.385  11.923  1.00 18.50     0.066 C 
HETATM    5  C5  VFQ F5620     -48.804 146.863  10.991  1.00 19.40    -0.074 C 
HETATM    6  C6  VFQ F5620     -49.078 145.849  10.094  1.00 19.02    -0.048 C 
HETATM    7  C7  VFQ F5620     -48.046 145.323   9.188  1.00 18.60     0.009 C 
HETATM    8  C8  VFQ F5620     -47.051 144.469   9.506  1.00 18.09     0.007 C 
HETATM    9  C9  VFQ F5620     -45.950 144.032   8.642  1.00 18.23    -0.062 C 
HETATM   10  C10 VFQ F5620     -45.112 143.088   9.121  1.00 15.81     0.007 C 
HETATM   11  C11 VFQ F5620     -43.988 142.509   8.438  1.00 18.00     0.001 C 
HETATM   12  C12 VFQ F5620     -43.359 141.452   8.975  1.00 18.12     0.007 C 
HETATM   13  C13 VFQ F5620     -42.243 140.675   8.449  1.00 18.88    -0.062 C 
HETATM   14  C14 VFQ F5620     -41.870 139.581   9.147  1.00 21.10     0.007 C 
HETATM   15  C15 VFQ F5620     -40.867 138.610   8.798  1.00 24.06     0.001 C 
HETATM   16  C16 VFQ F5620     -51.214 145.681   8.738  1.00 17.17     0.020 C 
HETATM   17  C17 VFQ F5620     -50.407 143.667   9.969  1.00 16.95     0.020 C 
HETATM   18  C18 VFQ F5620     -47.528 147.605  11.231  1.00 19.80     0.044 C 
HETATM   19  C19 VFQ F5620     -45.861 144.631   7.256  1.00 17.09     0.048 C 
HETATM   20  C20 VFQ F5620     -41.643 141.095   7.143  1.00 16.35     0.048 C 
HETATM   21  O3  VFQ F5620     -52.139 147.305  12.678  1.00 17.38    -0.395 OA
ATOM     22  H3  VFQ F5620     -51.860 147.890  13.373  1.00  0.00     0.210 HD
HETATM   23  C21 VFQ F5620     -33.887 127.925   7.235  1.00 27.53    -0.018 C 
HETATM   24  C22 VFQ F5620     -33.046 127.400   6.073  1.00 27.53     0.045 C 
HETATM   25  C23 VFQ F5620     -31.821 128.263   5.841  1.00 27.53     0.123 C 
HETATM   26  C24 VFQ F5620     -32.346 129.627   5.458  1.00 27.53     0.066 C 
HETATM   27  C25 VFQ F5620     -32.919 130.192   6.726  1.00 27.53    -0.074 C 
HETATM   28  C26 VFQ F5620     -33.630 129.393   7.558  1.00 27.53    -0.048 C 
HETATM   29  C27 VFQ F5620     -34.359 129.963   8.709  1.00 27.53     0.009 C 
HETATM   30  C28 VFQ F5620     -35.077 131.056   8.431  1.00 27.53     0.007 C 
HETATM   31  C29 VFQ F5620     -36.034 131.659   9.415  1.00 26.61    -0.062 C 
HETATM   32  C30 VFQ F5620     -36.699 132.761   9.008  1.00 25.24     0.007 C 
HETATM   33  C31 VFQ F5620     -37.696 133.482   9.743  1.00 26.40     0.001 C 
HETATM   34  C32 VFQ F5620     -38.260 134.600   9.250  1.00 26.29     0.007 C 
HETATM   35  C33 VFQ F5620     -39.275 135.461   9.868  1.00 26.99    -0.062 C 
HETATM   36  C34 VFQ F5620     -39.659 136.561   9.186  1.00 26.65     0.007 C 
HETATM   37  C35 VFQ F5620     -40.621 137.552   9.579  1.00 25.43     0.001 C 
HETATM   38  C36 VFQ F5620     -33.636 127.025   8.442  1.00 27.53     0.020 C 
HETATM   39  C37 VFQ F5620     -35.358 127.834   6.833  1.00 27.53     0.020 C 
HETATM   40  C38 VFQ F5620     -32.501 131.608   7.045  1.00 27.53     0.044 C 
HETATM   41  C39 VFQ F5620     -36.204 131.026  10.774  1.00 26.87     0.048 C 
HETATM   42  C40 VFQ F5620     -39.795 135.073  11.221  1.00 24.17     0.048 C 
HETATM   43  O23 VFQ F5620     -30.988 127.740   4.803  1.00 27.53    -0.395 OA
ATOM     44  H23 VFQ F5620     -30.658 126.883   5.044  1.00  0.00     0.210 HD
ENDROOT
TORSDOF 12
BEGIN_RES PHE A  61
REMARK  2 active torsions:
REMARK  status: ('A' for Active; 'I' for Inactive)
REMARK    1  A    between atoms: CA   and  CB  
REMARK    2  A    between atoms: CB   and  CG  
ROOT
ATOM      1  CA  PHE A  61     -36.237 128.293  12.768  1.00 39.40     0.164 C 
ENDROOT
BRANCH   1   2
ATOM      2  CB  PHE A  61     -36.813 128.951  11.509  1.00 39.41     0.058 C 
BRANCH   2   3
ATOM      3  CG  PHE A  61     -37.029 128.004  10.353  1.00 39.01    -0.020 A 
ATOM      4  CD2 PHE A  61     -36.280 126.844  10.233  1.00 40.32    -0.004 A 
ATOM      5  CE2 PHE A  61     -36.478 125.975   9.168  1.00 40.20    -0.000 A 
ATOM      6  CZ  PHE A  61     -37.429 126.253   8.213  1.00 40.34    -0.000 A 
ATOM      7  CE1 PHE A  61     -38.184 127.401   8.319  1.00 41.51    -0.000 A 
ATOM      8  CD1 PHE A  61     -37.982 128.273   9.380  1.00 39.94    -0.004 A 
ENDBRANCH   2   3
ENDBRANCH   1   2
END_RES PHE A  61
BEGIN_RES VAL A 134
REMARK  1 active torsions:
REMARK  status: ('A' for Active; 'I' for Inactive)
REMARK    3  A    between atoms: CA   and  CB  
ROOT
ATOM      9  CA  VAL A 134     -29.766 132.051   9.815  1.00 40.75     0.159 C 
ENDROOT
BRANCH   9  10
ATOM     10  CB  VAL A 134     -30.864 132.765   9.009  1.00 40.76     0.029 C 
ATOM     11  CG1 VAL A 134     -32.121 132.940   9.849  1.00 41.76     0.002 C 
ATOM     12  CG2 VAL A 134     -30.384 134.104   8.470  1.00 40.56     0.002 C 
ENDBRANCH   9  10
END_RES VAL A 134
BEGIN_RES TYR A 338
REMARK  3 active torsions:
REMARK  status: ('A' for Active; 'I' for Inactive)
REMARK    4  A    between atoms: CA   and  CB  
REMARK    5  A    between atoms: CB   and  CG  
REMARK    6  A    between atoms: CZ   and  OH  
ROOT
ATOM     13  CA  TYR A 338     -41.631 124.950   6.058  1.00 38.23     0.164 C 
ENDROOT
BRANCH  13  14
ATOM     14  CB  TYR A 338     -41.621 126.456   6.339  1.00 39.15     0.058 C 
BRANCH  14  15
ATOM     15  CG  TYR A 338     -40.405 127.207   5.848  1.00 39.03    -0.020 A 
ATOM     16  CD2 TYR A 338     -40.236 128.546   6.156  1.00 40.65    -0.002 A 
ATOM     17  CE2 TYR A 338     -39.141 129.270   5.710  1.00 40.91     0.024 A 
ATOM     18  CZ  TYR A 338     -38.181 128.651   4.932  1.00 42.33     0.089 A 
ATOM     19  CE1 TYR A 338     -38.325 127.312   4.614  1.00 40.63     0.024 A 
ATOM     20  CD1 TYR A 338     -39.434 126.609   5.060  1.00 39.27    -0.002 A 
BRANCH  18  21
ATOM     21  OH  TYR A 338     -37.095 129.354   4.489  1.00 43.36    -0.359 OA
ATOM     22  HH  TYR A 338     -36.538 128.998   3.807  1.00  0.00     0.217 HD
ENDBRANCH  18  21
ENDBRANCH  14  15
ENDBRANCH  13  14
END_RES TYR A 338
ENDMDL
MODEL 3
REMARK VINA RESULT:    -7.759      1.109     16.827
REMARK INTER + INTRA:          -9.996
REMARK INTER:                  -7.671
REMARK INTRA:                  -2.325
REMARK UNBOUND:                -2.238
REMARK  0 active torsions:
REMARK  status: ('A' for Active; 'I' for Inactive)
REMARK       I    between atoms: C3_3  and  O3_21 
REMARK       I    between atoms: C6_6  and  C7_7 
REMARK       I    between atoms: C8_8  and  C9_9 
REMARK       I    between atoms: C10_10  and  C11_11 
REMARK       I    between atoms: C12_12  and  C13_13 
REMARK       I    between atoms: C14_14  and  C15_15 
REMARK       I    between atoms: C23_25  and  O23_43 
REMARK       I    between atoms: C26_28  and  C27_29 
REMARK       I    between atoms: C28_30  and  C29_31 
REMARK       I    between atoms: C30_32  and  C31_33 
REMARK       I    between atoms: C32_34  and  C33_35 
REMARK       I    between atoms: C34_36  and  C35_37 
ROOT
HETATM    1  C1  VFQ F5620     -48.374 145.372  12.449  1.00 19.30    -0.018 C 
HETATM    2  C2  VFQ F5620     -48.981 145.891  13.767  1.00 17.68     0.045 C 
HETATM    3  C3  VFQ F5620     -48.174 146.875  14.608  1.00 17.79     0.123 C 
HETATM    4  C4  VFQ F5620     -47.075 147.631  13.862  1.00 18.50     0.066 C 
HETATM    5  C5  VFQ F5620     -46.381 146.958  12.722  1.00 19.40    -0.074 C 
HETATM    6  C6  VFQ F5620     -46.961 145.902  12.047  1.00 19.02    -0.048 C 
HETATM    7  C7  VFQ F5620     -46.272 145.227  10.936  1.00 18.60     0.009 C 
HETATM    8  C8  VFQ F5620     -45.273 144.325  11.035  1.00 18.09     0.007 C 
HETATM    9  C9  VFQ F5620     -44.502 143.737   9.935  1.00 18.23    -0.062 C 
HETATM   10  C10 VFQ F5620     -43.610 142.770  10.240  1.00 15.81     0.007 C 
HETATM   11  C11 VFQ F5620     -42.771 142.053   9.321  1.00 18.00     0.001 C 
HETATM   12  C12 VFQ F5620     -42.067 140.994   9.753  1.00 18.12     0.007 C 
HETATM   13  C13 VFQ F5620     -41.199 140.094   9.004  1.00 18.88    -0.062 C 
HETATM   14  C14 VFQ F5620     -40.694 139.032   9.668  1.00 21.10     0.007 C 
HETATM   15  C15 VFQ F5620     -39.891 137.960   9.139  1.00 24.06     0.001 C 
HETATM   16  C16 VFQ F5620     -49.408 145.798  11.391  1.00 17.17     0.020 C 
HETATM   17  C17 VFQ F5620     -48.379 143.829  12.526  1.00 16.95     0.020 C 
HETATM   18  C18 VFQ F5620     -45.055 147.614  12.509  1.00 19.80     0.044 C 
HETATM   19  C19 VFQ F5620     -44.796 144.217   8.532  1.00 17.09     0.048 C 
HETATM   20  C20 VFQ F5620     -40.990 140.362   7.546  1.00 16.35     0.048 C 
HETATM   21  O3  VFQ F5620     -49.040 147.791  15.252  1.00 17.38    -0.395 OA
ATOM     22  H3  VFQ F5620     -48.538 148.405  15.776  1.00  0.00     0.210 HD
HETATM   23  C21 VFQ F5620     -34.255 126.670   6.671  1.00 27.53    -0.018 C 
HETATM   24  C22 VFQ F5620     -33.824 125.992   5.372  1.00 27.53     0.045 C 
HETATM   25  C23 VFQ F5620     -32.679 126.734   4.712  1.00 27.53     0.123 C 
HETATM   26  C24 VFQ F5620     -33.222 128.102   4.366  1.00 27.53     0.066 C 
HETATM   27  C25 VFQ F5620     -33.364 128.807   5.685  1.00 27.53    -0.074 C 
HETATM   28  C26 VFQ F5620     -33.838 128.134   6.761  1.00 27.53    -0.048 C 
HETATM   29  C27 VFQ F5620     -34.163 128.848   8.012  1.00 27.53     0.009 C 
HETATM   30  C28 VFQ F5620     -34.873 129.969   7.849  1.00 27.53     0.007 C 
HETATM   31  C29 VFQ F5620     -35.464 130.719   9.004  1.00 26.61    -0.062 C 
HETATM   32  C30 VFQ F5620     -36.160 131.836   8.702  1.00 25.24     0.007 C 
HETATM   33  C31 VFQ F5620     -36.856 132.687   9.621  1.00 26.40     0.001 C 
HETATM   34  C32 VFQ F5620     -37.481 133.805   9.206  1.00 26.29     0.007 C 
HETATM   35  C33 VFQ F5620     -38.221 134.789  10.004  1.00 26.99    -0.062 C 
HETATM   36  C34 VFQ F5620     -38.732 135.860   9.359  1.00 26.65     0.007 C 
HETATM   37  C35 VFQ F5620     -39.481 136.950   9.915  1.00 25.43     0.001 C 
HETATM   38  C36 VFQ F5620     -33.706 125.850   7.835  1.00 27.53     0.020 C 
HETATM   39  C37 VFQ F5620     -35.782 126.664   6.723  1.00 27.53     0.020 C 
HETATM   40  C38 VFQ F5620     -32.796 130.206   5.729  1.00 27.53     0.044 C 
HETATM   41  C39 VFQ F5620     -35.256 130.210  10.409  1.00 26.87     0.048 C 
HETATM   42  C40 VFQ F5620     -38.337 134.549  11.481  1.00 24.17     0.048 C 
HETATM   43  O23 VFQ F5620     -32.219 126.069   3.533  1.00 27.53    -0.395 OA
ATOM     44  H23 VFQ F5620     -31.878 125.209   3.751  1.00  0.00     0.210 HD
ENDROOT
TORSDOF 12
BEGIN_RES PHE A  61
REMARK  2 active torsions:
REMARK  status: ('A' for Active; 'I' for Inactive)
REMARK    1  A    between atoms: CA   and  CB  
REMARK    2  A    between atoms: CB   and  CG  
ROOT
ATOM      1  CA  PHE A  61     -36.237 128.293  12.768  1.00 39.40     0.164 C 
ENDROOT
BRANCH   1   2
ATOM      2  CB  PHE A  61     -36.813 128.951  11.509  1.00 39.41     0.058 C 
BRANCH   2   3
ATOM      3  CG  PHE A  61     -37.100 127.991  10.379  1.00 39.01    -0.020 A 
ATOM      4  CD2 PHE A  61     -38.041 128.296   9.408  1.00 40.32    -0.004 A 
ATOM      5  CE2 PHE A  61     -38.306 127.411   8.371  1.00 40.20    -0.000 A 
ATOM      6  CZ  PHE A  61     -37.631 126.214   8.290  1.00 40.34    -0.000 A 
ATOM      7  CE1 PHE A  61     -36.691 125.898   9.246  1.00 41.51    -0.000 A 
ATOM      8  CD1 PHE A  61     -36.430 126.779  10.287  1.00 39.94    -0.004 A 
ENDBRANCH   2   3
ENDBRANCH   1   2
END_RES PHE A  61
BEGIN_RES VAL A 134
REMARK  1 active torsions:
REMARK  status: ('A' for Active; 'I' for Inactive)
REMARK    3  A    between atoms: CA   and  CB  
ROOT
ATOM      9  CA  VAL A 134     -29.766 132.051   9.815  1.00 40.75     0.159 C 
ENDROOT
BRANCH   9  10
ATOM     10  CB  VAL A 134     -30.864 132.765   9.009  1.00 40.76     0.029 C 
ATOM     11  CG1 VAL A 134     -30.979 132.171   7.613  1.00 41.76     0.002 C 
ATOM     12  CG2 VAL A 134     -32.204 132.723   9.727  1.00 40.56     0.002 C 
ENDBRANCH   9  10
END_RES VAL A 134
BEGIN_RES TYR A 338
REMARK  3 active torsions:
REMARK  status: ('A' for Active; 'I' for Inactive)
REMARK    4  A    between atoms: CA   and  CB  
REMARK    5  A    between atoms: CB   and  CG  
REMARK    6  A    between atoms: CZ   and  OH  
ROOT
ATOM     13  CA  TYR A 338     -41.631 124.950   6.058  1.00 38.23     0.164 C 
ENDROOT
BRANCH  13  14
ATOM     14  CB  TYR A 338     -41.621 126.456   6.339  1.00 39.15     0.058 C 
BRANCH  14  15
ATOM     15  CG  TYR A 338     -40.397 127.204   5.863  1.00 39.03    -0.020 A 
ATOM     16  CD2 TYR A 338     -40.217 128.536   6.194  1.00 40.65    -0.002 A 
ATOM     17  CE2 TYR A 338     -39.115 129.257   5.762  1.00 40.91     0.024 A 
ATOM     18  CZ  TYR A 338     -38.158 128.643   4.976  1.00 42.33     0.089 A 
ATOM     19  CE1 TYR A 338     -38.313 127.311   4.637  1.00 40.63     0.024 A 
ATOM     20  CD1 TYR A 338     -39.429 126.611   5.068  1.00 39.27    -0.002 A 
BRANCH  18  21
ATOM     21  OH  TYR A 338     -37.065 129.343   4.549  1.00 43.36    -0.359 OA
ATOM     22  HH  TYR A 338     -36.196 129.114   4.858  1.00  0.00     0.217 HD
ENDBRANCH  18  21
ENDBRANCH  14  15
ENDBRANCH  13  14
END_RES TYR A 338
ENDMDL
