MODEL 1
REMARK VINA RESULT:    -8.339      0.000      0.000
REMARK INTER + INTRA:         -11.180
REMARK INTER:                  -8.339
REMARK INTRA:                  -2.841
REMARK UNBOUND:                -2.841
REMARK  0 active torsions:
REMARK  status: ('A' for Active; 'I' for Inactive)
REMARK       I    between atoms: C3_3  and  O3_21 
REMARK       I    between atoms: C6_6  and  C7_7 
REMARK       I    between atoms: C8_8  and  C9_9 
REMARK       I    between atoms: C10_10  and  C11_11 
REMARK       I    between atoms: C12_12  and  C13_13 
REMARK       I    between atoms: C14_14  and  C15_15 
REMARK       I    between atoms: C23_25  and  O23_43 
REMARK       I    between atoms: C26_28  and  C27_29 
REMARK       I    between atoms: C28_30  and  C29_31 
REMARK       I    between atoms: C30_32  and  C31_33 
REMARK       I    between atoms: C32_34  and  C33_35 
REMARK       I    between atoms: C34_36  and  C35_37 
ROOT
HETATM    1  C1  VFQ J9620     -34.490 126.899   6.211  1.00 17.81    -0.018 C 
HETATM    2  C2  VFQ J9620     -33.853 126.091   5.061  1.00 18.03     0.045 C 
HETATM    3  C3  VFQ J9620     -32.884 126.852   4.161  1.00 19.41     0.123 C 
HETATM    4  C4  VFQ J9620     -31.884 127.689   4.955  1.00 18.47     0.066 C 
HETATM    5  C5  VFQ J9620     -32.442 128.441   6.118  1.00 18.29    -0.074 C 
HETATM    6  C6  VFQ J9620     -33.647 128.107   6.726  1.00 18.07    -0.048 C 
HETATM    7  C7  VFQ J9620     -34.174 128.879   7.876  1.00 17.25     0.009 C 
HETATM    8  C8  VFQ J9620     -34.819 130.059   7.825  1.00 17.01     0.007 C 
HETATM    9  C9  VFQ J9620     -35.247 130.910   8.941  1.00 17.86    -0.062 C 
HETATM   10  C10 VFQ J9620     -35.979 132.008   8.651  1.00 14.07     0.007 C 
HETATM   11  C11 VFQ J9620     -36.514 132.958   9.583  1.00 13.24     0.001 C 
HETATM   12  C12 VFQ J9620     -37.372 133.888   9.144  1.00 13.26     0.007 C 
HETATM   13  C13 VFQ J9620     -38.093 134.898   9.915  1.00 14.95    -0.062 C 
HETATM   14  C14 VFQ J9620     -38.995 135.654   9.252  1.00 15.84     0.007 C 
HETATM   15  C15 VFQ J9620     -39.890 136.653   9.794  1.00 15.11     0.001 C 
HETATM   16  C16 VFQ J9620     -34.670 125.850   7.310  1.00 16.04     0.020 C 
HETATM   17  C17 VFQ J9620     -35.893 127.367   5.801  1.00 17.79     0.020 C 
HETATM   18  C18 VFQ J9620     -31.479 129.533   6.429  1.00 17.18     0.044 C 
HETATM   19  C19 VFQ J9620     -34.881 130.473  10.338  1.00 17.70     0.048 C 
HETATM   20  C20 VFQ J9620     -37.838 134.973  11.399  1.00 11.96     0.048 C 
HETATM   21  O3  VFQ J9620     -32.203 125.962   3.287  1.00 19.31    -0.395 OA
ATOM     22  H3  VFQ J9620     -31.600 126.435   2.727  1.00  0.00     0.210 HD
HETATM   23  C21 VFQ J9620     -49.522 144.453  12.631  1.00 25.46    -0.018 C 
HETATM   24  C22 VFQ J9620     -50.213 145.373  13.634  1.00 25.46     0.045 C 
HETATM   25  C23 VFQ J9620     -49.565 146.721  13.898  1.00 25.46     0.123 C 
HETATM   26  C24 VFQ J9620     -48.060 146.579  13.928  1.00 25.46     0.066 C 
HETATM   27  C25 VFQ J9620     -47.632 146.059  12.587  1.00 25.46    -0.074 C 
HETATM   28  C26 VFQ J9620     -48.215 144.977  12.061  1.00 25.46    -0.048 C 
HETATM   29  C27 VFQ J9620     -47.620 144.290  10.877  1.00 25.46     0.009 C 
HETATM   30  C28 VFQ J9620     -46.670 143.360  11.003  1.00 25.46     0.007 C 
HETATM   31  C29 VFQ J9620     -46.016 142.611   9.879  1.00 23.86    -0.062 C 
HETATM   32  C30 VFQ J9620     -45.076 141.696  10.199  1.00 20.58     0.007 C 
HETATM   33  C31 VFQ J9620     -44.350 140.832   9.296  1.00 18.13     0.001 C 
HETATM   34  C32 VFQ J9620     -43.403 139.964   9.724  1.00 14.57     0.007 C 
HETATM   35  C33 VFQ J9620     -42.575 139.041   8.924  1.00 16.93    -0.062 C 
HETATM   36  C34 VFQ J9620     -41.666 138.280   9.574  1.00 15.59     0.007 C 
HETATM   37  C35 VFQ J9620     -40.759 137.314   9.013  1.00 13.74     0.001 C 
HETATM   38  C36 VFQ J9620     -50.455 144.294  11.447  1.00 25.46     0.020 C 
HETATM   39  C37 VFQ J9620     -49.339 143.099  13.306  1.00 25.46     0.020 C 
HETATM   40  C38 VFQ J9620     -46.569 146.824  11.866  1.00 25.46     0.044 C 
HETATM   41  C39 VFQ J9620     -46.444 142.916   8.466  1.00 22.74     0.048 C 
HETATM   42  C40 VFQ J9620     -42.785 139.016   7.434  1.00 15.29     0.048 C 
HETATM   43  O23 VFQ J9620     -50.017 147.198  15.168  1.00 25.46    -0.395 OA
ATOM     44  H23 VFQ J9620     -50.963 147.287  15.150  1.00  0.00     0.210 HD
ENDROOT
TORSDOF 12
BEGIN_RES PHE A  61
REMARK  2 active torsions:
REMARK  status: ('A' for Active; 'I' for Inactive)
REMARK    1  A    between atoms: CA   and  CB  
REMARK    2  A    between atoms: CB   and  CG  
ROOT
ATOM      1  CA  PHE A  61     -36.237 128.293  12.768  1.00 39.40     0.164 C 
ENDROOT
BRANCH   1   2
ATOM      2  CB  PHE A  61     -36.813 128.951  11.509  1.00 39.41     0.058 C 
BRANCH   2   3
ATOM      3  CG  PHE A  61     -37.047 128.000  10.360  1.00 39.01    -0.020 A 
ATOM      4  CD2 PHE A  61     -36.327 126.821  10.253  1.00 40.32    -0.004 A 
ATOM      5  CE2 PHE A  61     -36.541 125.949   9.193  1.00 40.20    -0.000 A 
ATOM      6  CZ  PHE A  61     -37.480 126.244   8.231  1.00 40.34    -0.000 A 
ATOM      7  CE1 PHE A  61     -38.205 127.411   8.323  1.00 41.51    -0.000 A 
ATOM      8  CD1 PHE A  61     -37.987 128.286   9.379  1.00 39.94    -0.004 A 
ENDBRANCH   2   3
ENDBRANCH   1   2
END_RES PHE A  61
BEGIN_RES VAL A 134
REMARK  1 active torsions:
REMARK  status: ('A' for Active; 'I' for Inactive)
REMARK    3  A    between atoms: CA   and  CB  
ROOT
ATOM      9  CA  VAL A 134     -29.766 132.051   9.815  1.00 40.75     0.159 C 
ENDROOT
BRANCH   9  10
ATOM     10  CB  VAL A 134     -30.864 132.765   9.009  1.00 40.76     0.029 C 
ATOM     11  CG1 VAL A 134     -31.176 132.001   7.731  1.00 41.76     0.002 C 
ATOM     12  CG2 VAL A 134     -32.123 132.971   9.837  1.00 40.56     0.002 C 
ENDBRANCH   9  10
END_RES VAL A 134
BEGIN_RES TYR A 338
REMARK  3 active torsions:
REMARK  status: ('A' for Active; 'I' for Inactive)
REMARK    4  A    between atoms: CA   and  CB  
REMARK    5  A    between atoms: CB   and  CG  
REMARK    6  A    between atoms: CZ   and  OH  
ROOT
ATOM     13  CA  TYR A 338     -41.631 124.950   6.058  1.00 38.23     0.164 C 
ENDROOT
BRANCH  13  14
ATOM     14  CB  TYR A 338     -41.621 126.456   6.339  1.00 39.15     0.058 C 
BRANCH  14  15
ATOM     15  CG  TYR A 338     -40.428 127.215   5.805  1.00 39.03    -0.020 A 
ATOM     16  CD2 TYR A 338     -40.244 128.549   6.128  1.00 40.65    -0.002 A 
ATOM     17  CE2 TYR A 338     -39.171 129.280   5.644  1.00 40.91     0.024 A 
ATOM     18  CZ  TYR A 338     -38.249 128.675   4.810  1.00 42.33     0.089 A 
ATOM     19  CE1 TYR A 338     -38.409 127.342   4.476  1.00 40.63     0.024 A 
ATOM     20  CD1 TYR A 338     -39.496 126.631   4.961  1.00 39.27    -0.002 A 
BRANCH  18  21
ATOM     21  OH  TYR A 338     -37.184 129.385   4.330  1.00 43.36    -0.359 OA
ATOM     22  HH  TYR A 338     -37.323 130.181   3.830  1.00  0.00     0.217 HD
ENDBRANCH  18  21
ENDBRANCH  14  15
ENDBRANCH  13  14
END_RES TYR A 338
ENDMDL
MODEL 2
REMARK VINA RESULT:    -7.789      1.256     16.972
REMARK INTER + INTRA:         -10.630
REMARK INTER:                 -10.366
REMARK INTRA:                  -0.265
REMARK UNBOUND:                -2.841
REMARK  0 active torsions:
REMARK  status: ('A' for Active; 'I' for Inactive)
REMARK       I    between atoms: C3_3  and  O3_21 
REMARK       I    between atoms: C6_6  and  C7_7 
REMARK       I    between atoms: C8_8  and  C9_9 
REMARK       I    between atoms: C10_10  and  C11_11 
REMARK       I    between atoms: C12_12  and  C13_13 
REMARK       I    between atoms: C14_14  and  C15_15 
REMARK       I    between atoms: C23_25  and  O23_43 
REMARK       I    between atoms: C26_28  and  C27_29 
REMARK       I    between atoms: C28_30  and  C29_31 
REMARK       I    between atoms: C30_32  and  C31_33 
REMARK       I    between atoms: C32_34  and  C33_35 
REMARK       I    between atoms: C34_36  and  C35_37 
ROOT
HETATM    1  C1  VFQ J9620     -50.625 145.057  10.888  1.00 17.81    -0.018 C 
HETATM    2  C2  VFQ J9620     -51.510 145.798  11.911  1.00 18.03     0.045 C 
HETATM    3  C3  VFQ J9620     -50.781 146.701  12.902  1.00 19.41     0.123 C 
HETATM    4  C4  VFQ J9620     -49.743 147.593  12.225  1.00 18.47     0.066 C 
HETATM    5  C5  VFQ J9620     -48.902 146.935  11.180  1.00 18.29    -0.074 C 
HETATM    6  C6  VFQ J9620     -49.275 145.759  10.540  1.00 18.07    -0.048 C 
HETATM    7  C7  VFQ J9620     -48.414 145.132   9.511  1.00 17.25     0.009 C 
HETATM    8  C8  VFQ J9620     -47.326 144.368   9.728  1.00 17.01     0.007 C 
HETATM    9  C9  VFQ J9620     -46.381 143.832   8.743  1.00 17.86    -0.062 C 
HETATM   10  C10 VFQ J9620     -45.416 142.995   9.186  1.00 14.07     0.007 C 
HETATM   11  C11 VFQ J9620     -44.410 142.346   8.397  1.00 13.24     0.001 C 
HETATM   12  C12 VFQ J9620     -43.645 141.406   8.965  1.00 13.26     0.007 C 
HETATM   13  C13 VFQ J9620     -42.620 140.568   8.345  1.00 14.95    -0.062 C 
HETATM   14  C14 VFQ J9620     -42.061 139.606   9.112  1.00 15.84     0.007 C 
HETATM   15  C15 VFQ J9620     -41.098 138.601   8.718  1.00 15.11     0.001 C 
HETATM   16  C16 VFQ J9620     -51.527 144.964   9.656  1.00 16.04     0.020 C 
HETATM   17  C17 VFQ J9620     -50.368 143.622  11.368  1.00 17.79     0.020 C 
HETATM   18  C18 VFQ J9620     -47.682 147.773  11.017  1.00 17.18     0.044 C 
HETATM   19  C19 VFQ J9620     -46.582 144.212   7.296  1.00 17.70     0.048 C 
HETATM   20  C20 VFQ J9620     -42.317 140.783   6.884  1.00 11.96     0.048 C 
HETATM   21  O3  VFQ J9620     -51.706 147.489  13.641  1.00 19.31    -0.395 OA
ATOM     22  H3  VFQ J9620     -51.252 148.051  14.257  1.00  0.00     0.210 HD
HETATM   23  C21 VFQ J9620     -34.045 128.156   7.045  1.00 25.46    -0.018 C 
HETATM   24  C22 VFQ J9620     -33.075 127.352   6.183  1.00 25.46     0.045 C 
HETATM   25  C23 VFQ J9620     -31.643 127.851   6.103  1.00 25.46     0.123 C 
HETATM   26  C24 VFQ J9620     -31.620 129.362   6.044  1.00 25.46     0.066 C 
HETATM   27  C25 VFQ J9620     -32.269 129.869   7.298  1.00 25.46    -0.074 C 
HETATM   28  C26 VFQ J9620     -33.468 129.412   7.673  1.00 25.46    -0.048 C 
HETATM   29  C27 VFQ J9620     -34.244 130.100   8.747  1.00 25.46     0.009 C 
HETATM   30  C28 VFQ J9620     -35.042 131.139   8.488  1.00 25.46     0.007 C 
HETATM   31  C29 VFQ J9620     -35.864 131.889   9.495  1.00 23.86    -0.062 C 
HETATM   32  C30 VFQ J9620     -36.623 132.913   9.045  1.00 20.58     0.007 C 
HETATM   33  C31 VFQ J9620     -37.521 133.742   9.815  1.00 18.13     0.001 C 
HETATM   34  C32 VFQ J9620     -38.217 134.766   9.266  1.00 14.57     0.007 C 
HETATM   35  C33 VFQ J9620     -39.148 135.701   9.926  1.00 16.93    -0.062 C 
HETATM   36  C34 VFQ J9620     -39.713 136.670   9.172  1.00 15.59     0.007 C 
HETATM   37  C35 VFQ J9620     -40.645 137.685   9.588  1.00 13.74     0.001 C 
HETATM   38  C36 VFQ J9620     -34.461 127.268   8.201  1.00 25.46     0.020 C 
HETATM   39  C37 VFQ J9620     -35.267 128.464   6.187  1.00 25.46     0.020 C 
HETATM   40  C38 VFQ J9620     -31.502 130.862   8.111  1.00 25.46     0.044 C 
HETATM   41  C39 VFQ J9620     -35.803 131.462  10.939  1.00 22.74     0.048 C 
HETATM   42  C40 VFQ J9620     -39.399 135.526  11.400  1.00 15.29     0.048 C 
HETATM   43  O23 VFQ J9620     -31.047 127.326   4.913  1.00 25.46    -0.395 OA
ATOM     44  H23 VFQ J9620     -31.062 126.377   4.949  1.00  0.00     0.210 HD
ENDROOT
TORSDOF 12
BEGIN_RES PHE A  61
REMARK  2 active torsions:
REMARK  status: ('A' for Active; 'I' for Inactive)
REMARK    1  A    between atoms: CA   and  CB  
REMARK    2  A    between atoms: CB   and  CG  
ROOT
ATOM      1  CA  PHE A  61     -36.237 128.293  12.768  1.00 39.40     0.164 C 
ENDROOT
BRANCH   1   2
ATOM      2  CB  PHE A  61     -36.813 128.951  11.509  1.00 39.41     0.058 C 
BRANCH   2   3
ATOM      3  CG  PHE A  61     -37.021 128.005  10.350  1.00 39.01    -0.020 A 
ATOM      4  CD2 PHE A  61     -36.316 126.815  10.267  1.00 40.32    -0.004 A 
ATOM      5  CE2 PHE A  61     -36.506 125.948   9.199  1.00 40.20    -0.000 A 
ATOM      6  CZ  PHE A  61     -37.406 126.258   8.205  1.00 40.34    -0.000 A 
ATOM      7  CE1 PHE A  61     -38.117 127.436   8.274  1.00 41.51    -0.000 A 
ATOM      8  CD1 PHE A  61     -37.922 128.306   9.338  1.00 39.94    -0.004 A 
ENDBRANCH   2   3
ENDBRANCH   1   2
END_RES PHE A  61
BEGIN_RES VAL A 134
REMARK  1 active torsions:
REMARK  status: ('A' for Active; 'I' for Inactive)
REMARK    3  A    between atoms: CA   and  CB  
ROOT
ATOM      9  CA  VAL A 134     -29.766 132.051   9.815  1.00 40.75     0.159 C 
ENDROOT
BRANCH   9  10
ATOM     10  CB  VAL A 134     -30.864 132.765   9.009  1.00 40.76     0.029 C 
ATOM     11  CG1 VAL A 134     -32.106 132.977   9.862  1.00 41.76     0.002 C 
ATOM     12  CG2 VAL A 134     -30.371 134.084   8.435  1.00 40.56     0.002 C 
ENDBRANCH   9  10
END_RES VAL A 134
BEGIN_RES TYR A 338
REMARK  3 active torsions:
REMARK  status: ('A' for Active; 'I' for Inactive)
REMARK    4  A    between atoms: CA   and  CB  
REMARK    5  A    between atoms: CB   and  CG  
REMARK    6  A    between atoms: CZ   and  OH  
ROOT
ATOM     13  CA  TYR A 338     -41.631 124.950   6.058  1.00 38.23     0.164 C 
ENDROOT
BRANCH  13  14
ATOM     14  CB  TYR A 338     -41.621 126.456   6.339  1.00 39.15     0.058 C 
BRANCH  14  15
ATOM     15  CG  TYR A 338     -40.422 127.213   5.817  1.00 39.03    -0.020 A 
ATOM     16  CD2 TYR A 338     -40.268 128.561   6.095  1.00 40.65    -0.002 A 
ATOM     17  CE2 TYR A 338     -39.189 129.289   5.619  1.00 40.91     0.024 A 
ATOM     18  CZ  TYR A 338     -38.230 128.668   4.842  1.00 42.33     0.089 A 
ATOM     19  CE1 TYR A 338     -38.359 127.320   4.554  1.00 40.63     0.024 A 
ATOM     20  CD1 TYR A 338     -39.452 126.612   5.028  1.00 39.27    -0.002 A 
BRANCH  18  21
ATOM     21  OH  TYR A 338     -37.159 129.375   4.371  1.00 43.36    -0.359 OA
ATOM     22  HH  TYR A 338     -36.677 129.957   4.947  1.00  0.00     0.217 HD
ENDBRANCH  18  21
ENDBRANCH  14  15
ENDBRANCH  13  14
END_RES TYR A 338
ENDMDL
MODEL 3
REMARK VINA RESULT:    -7.076      1.407      1.790
REMARK INTER + INTRA:          -9.917
REMARK INTER:                  -9.636
REMARK INTRA:                  -0.281
REMARK UNBOUND:                -2.841
REMARK  0 active torsions:
REMARK  status: ('A' for Active; 'I' for Inactive)
REMARK       I    between atoms: C3_3  and  O3_21 
REMARK       I    between atoms: C6_6  and  C7_7 
REMARK       I    between atoms: C8_8  and  C9_9 
REMARK       I    between atoms: C10_10  and  C11_11 
REMARK       I    between atoms: C12_12  and  C13_13 
REMARK       I    between atoms: C14_14  and  C15_15 
REMARK       I    between atoms: C23_25  and  O23_43 
REMARK       I    between atoms: C26_28  and  C27_29 
REMARK       I    between atoms: C28_30  and  C29_31 
REMARK       I    between atoms: C30_32  and  C31_33 
REMARK       I    between atoms: C32_34  and  C33_35 
REMARK       I    between atoms: C34_36  and  C35_37 
ROOT
HETATM    1  C1  VFQ J9620     -34.209 128.146   6.739  1.00 17.81    -0.018 C 
HETATM    2  C2  VFQ J9620     -33.224 127.458   5.771  1.00 18.03     0.045 C 
HETATM    3  C3  VFQ J9620     -32.028 128.294   5.323  1.00 19.41     0.123 C 
HETATM    4  C4  VFQ J9620     -31.349 129.013   6.486  1.00 18.47     0.066 C 
HETATM    5  C5  VFQ J9620     -32.263 129.642   7.485  1.00 18.29    -0.074 C 
HETATM    6  C6  VFQ J9620     -33.594 129.270   7.631  1.00 18.07    -0.048 C 
HETATM    7  C7  VFQ J9620     -34.474 129.919   8.631  1.00 17.25     0.009 C 
HETATM    8  C8  VFQ J9620     -35.086 131.112   8.510  1.00 17.01     0.007 C 
HETATM    9  C9  VFQ J9620     -35.862 131.842   9.518  1.00 17.86    -0.062 C 
HETATM   10  C10 VFQ J9620     -36.479 132.982   9.135  1.00 14.07     0.007 C 
HETATM   11  C11 VFQ J9620     -37.299 133.833   9.948  1.00 13.24     0.001 C 
HETATM   12  C12 VFQ J9620     -37.983 134.825   9.365  1.00 13.26     0.007 C 
HETATM   13  C13 VFQ J9620     -38.928 135.759   9.973  1.00 14.95    -0.062 C 
HETATM   14  C14 VFQ J9620     -39.581 136.605   9.145  1.00 15.84     0.007 C 
HETATM   15  C15 VFQ J9620     -40.617 137.556   9.481  1.00 15.11     0.001 C 
HETATM   16  C16 VFQ J9620     -34.718 126.985   7.595  1.00 16.04     0.020 C 
HETATM   17  C17 VFQ J9620     -35.411 128.689   5.956  1.00 17.79     0.020 C 
HETATM   18  C18 VFQ J9620     -31.467 130.671   8.211  1.00 17.18     0.044 C 
HETATM   19  C19 VFQ J9620     -35.959 131.243  10.900  1.00 17.70     0.048 C 
HETATM   20  C20 VFQ J9620     -39.166 135.661  11.459  1.00 11.96     0.048 C 
HETATM   21  O3  VFQ J9620     -31.089 127.491   4.619  1.00 19.31    -0.395 OA
ATOM     22  H3  VFQ J9620     -30.345 128.011   4.340  1.00  0.00     0.210 HD
HETATM   23  C21 VFQ J9620     -50.763 145.206   9.940  1.00 25.46    -0.018 C 
HETATM   24  C22 VFQ J9620     -51.754 146.023  10.765  1.00 25.46     0.045 C 
HETATM   25  C23 VFQ J9620     -51.245 147.318  11.375  1.00 25.46     0.123 C 
HETATM   26  C24 VFQ J9620     -49.828 147.139  11.870  1.00 25.46     0.066 C 
HETATM   27  C25 VFQ J9620     -48.983 146.763  10.688  1.00 25.46    -0.074 C 
HETATM   28  C26 VFQ J9620     -49.350 145.761   9.883  1.00 25.46    -0.048 C 
HETATM   29  C27 VFQ J9620     -48.396 145.198   8.884  1.00 25.46     0.009 C 
HETATM   30  C28 VFQ J9620     -47.523 144.238   9.202  1.00 25.46     0.007 C 
HETATM   31  C29 VFQ J9620     -46.532 143.606   8.269  1.00 23.86    -0.062 C 
HETATM   32  C30 VFQ J9620     -45.731 142.639   8.769  1.00 20.58     0.007 C 
HETATM   33  C31 VFQ J9620     -44.741 141.865   8.055  1.00 18.13     0.001 C 
HETATM   34  C32 VFQ J9620     -43.969 140.934   8.663  1.00 14.57     0.007 C 
HETATM   35  C33 VFQ J9620     -42.914 140.088   8.072  1.00 16.93    -0.062 C 
HETATM   36  C34 VFQ J9620     -42.252 139.238   8.888  1.00 15.59     0.007 C 
HETATM   37  C35 VFQ J9620     -41.198 138.321   8.543  1.00 13.74     0.001 C 
HETATM   38  C36 VFQ J9620     -51.263 145.203   8.509  1.00 25.46     0.020 C 
HETATM   39  C37 VFQ J9620     -50.787 143.781  10.480  1.00 25.46     0.020 C 
HETATM   40  C38 VFQ J9620     -47.756 147.580  10.439  1.00 25.46     0.044 C 
HETATM   41  C39 VFQ J9620     -46.486 144.077   6.838  1.00 22.74     0.048 C 
HETATM   42  C40 VFQ J9620     -42.634 140.235   6.601  1.00 15.29     0.048 C 
HETATM   43  O23 VFQ J9620     -52.088 147.660  12.478  1.00 25.46    -0.395 OA
ATOM     44  H23 VFQ J9620     -52.979 147.771  12.167  1.00  0.00     0.210 HD
ENDROOT
TORSDOF 12
BEGIN_RES PHE A  61
REMARK  2 active torsions:
REMARK  status: ('A' for Active; 'I' for Inactive)
REMARK    1  A    between atoms: CA   and  CB  
REMARK    2  A    between atoms: CB   and  CG  
ROOT
ATOM      1  CA  PHE A  61     -36.237 128.293  12.768  1.00 39.40     0.164 C 
ENDROOT
BRANCH   1   2
ATOM      2  CB  PHE A  61     -36.813 128.951  11.509  1.00 39.41     0.058 C 
BRANCH   2   3
ATOM      3  CG  PHE A  61     -37.011 128.007  10.347  1.00 39.01    -0.020 A 
ATOM      4  CD2 PHE A  61     -36.292 126.826  10.258  1.00 40.32    -0.004 A 
ATOM      5  CE2 PHE A  61     -36.473 125.961   9.187  1.00 40.20    -0.000 A 
ATOM      6  CZ  PHE A  61     -37.378 126.264   8.195  1.00 40.34    -0.000 A 
ATOM      7  CE1 PHE A  61     -38.102 127.433   8.270  1.00 41.51    -0.000 A 
ATOM      8  CD1 PHE A  61     -37.917 128.302   9.337  1.00 39.94    -0.004 A 
ENDBRANCH   2   3
ENDBRANCH   1   2
END_RES PHE A  61
BEGIN_RES VAL A 134
REMARK  1 active torsions:
REMARK  status: ('A' for Active; 'I' for Inactive)
REMARK    3  A    between atoms: CA   and  CB  
ROOT
ATOM      9  CA  VAL A 134     -29.766 132.051   9.815  1.00 40.75     0.159 C 
ENDROOT
BRANCH   9  10
ATOM     10  CB  VAL A 134     -30.864 132.765   9.009  1.00 40.76     0.029 C 
ATOM     11  CG1 VAL A 134     -32.107 132.974   9.861  1.00 41.76     0.002 C 
ATOM     12  CG2 VAL A 134     -30.372 134.086   8.438  1.00 40.56     0.002 C 
ENDBRANCH   9  10
END_RES VAL A 134
BEGIN_RES TYR A 338
REMARK  3 active torsions:
REMARK  status: ('A' for Active; 'I' for Inactive)
REMARK    4  A    between atoms: CA   and  CB  
REMARK    5  A    between atoms: CB   and  CG  
REMARK    6  A    between atoms: CZ   and  OH  
ROOT
ATOM     13  CA  TYR A 338     -41.631 124.950   6.058  1.00 38.23     0.164 C 
ENDROOT
BRANCH  13  14
ATOM     14  CB  TYR A 338     -41.621 126.456   6.339  1.00 39.15     0.058 C 
BRANCH  14  15
ATOM     15  CG  TYR A 338     -40.428 127.215   5.805  1.00 39.03    -0.020 A 
ATOM     16  CD2 TYR A 338     -40.272 128.562   6.085  1.00 40.65    -0.002 A 
ATOM     17  CE2 TYR A 338     -39.199 129.293   5.599  1.00 40.91     0.024 A 
ATOM     18  CZ  TYR A 338     -38.248 128.674   4.809  1.00 42.33     0.089 A 
ATOM     19  CE1 TYR A 338     -38.380 127.327   4.519  1.00 40.63     0.024 A 
ATOM     20  CD1 TYR A 338     -39.468 126.617   5.004  1.00 39.27    -0.002 A 
BRANCH  18  21
ATOM     21  OH  TYR A 338     -37.184 129.383   4.328  1.00 43.36    -0.359 OA
ATOM     22  HH  TYR A 338     -36.563 129.783   4.927  1.00  0.00     0.217 HD
ENDBRANCH  18  21
ENDBRANCH  14  15
ENDBRANCH  13  14
END_RES TYR A 338
ENDMDL
