MODEL 1
REMARK VINA RESULT:   -10.594      0.000      0.000
REMARK INTER + INTRA:         -11.080
REMARK INTER:                 -10.594
REMARK INTRA:                  -0.486
REMARK UNBOUND:                -0.486
REMARK  0 active torsions:
REMARK  status: ('A' for Active; 'I' for Inactive)
REMARK       I    between atoms: C3_3  and  O3_21 
REMARK       I    between atoms: C6_6  and  C7_7 
REMARK       I    between atoms: C8_8  and  C9_9 
REMARK       I    between atoms: C10_10  and  C11_11 
REMARK       I    between atoms: C12_12  and  C13_13 
REMARK       I    between atoms: C14_14  and  C15_15 
REMARK       I    between atoms: C23_25  and  O23_43 
REMARK       I    between atoms: C26_28  and  C27_29 
REMARK       I    between atoms: C28_30  and  C29_31 
REMARK       I    between atoms: C30_32  and  C31_33 
REMARK       I    between atoms: C32_34  and  C33_35 
REMARK       I    between atoms: C34_36  and  C35_37 
ROOT
HETATM    1  C1  VFQ H7621     -50.820 145.699   9.551  1.00 22.61    -0.018 C 
HETATM    2  C2  VFQ H7621     -51.751 146.265  10.638  1.00 23.33     0.045 C 
HETATM    3  C3  VFQ H7621     -51.327 147.469  11.485  1.00 24.77     0.123 C 
HETATM    4  C4  VFQ H7621     -50.011 148.151  11.076  1.00 22.10     0.066 C 
HETATM    5  C5  VFQ H7621     -49.077 147.471  10.133  1.00 21.89    -0.074 C 
HETATM    6  C6  VFQ H7621     -49.405 146.348   9.407  1.00 21.83    -0.048 C 
HETATM    7  C7  VFQ H7621     -48.487 145.673   8.462  1.00 21.27     0.009 C 
HETATM    8  C8  VFQ H7621     -47.503 144.817   8.825  1.00 20.16     0.007 C 
HETATM    9  C9  VFQ H7621     -46.559 144.119   7.965  1.00 19.98    -0.062 C 
HETATM   10  C10 VFQ H7621     -45.749 143.202   8.541  1.00 19.41     0.007 C 
HETATM   11  C11 VFQ H7621     -44.816 142.337   7.861  1.00 19.37     0.001 C 
HETATM   12  C12 VFQ H7621     -44.100 141.384   8.493  1.00 19.06     0.007 C 
HETATM   13  C13 VFQ H7621     -43.196 140.402   7.872  1.00 20.91    -0.062 C 
HETATM   14  C14 VFQ H7621     -42.594 139.498   8.676  1.00 20.64     0.007 C 
HETATM   15  C15 VFQ H7621     -41.728 138.426   8.274  1.00 20.44     0.001 C 
HETATM   16  C16 VFQ H7621     -51.631 145.884   8.260  1.00 21.21     0.020 C 
HETATM   17  C17 VFQ H7621     -50.703 144.179   9.796  1.00 21.56     0.020 C 
HETATM   18  C18 VFQ H7621     -47.812 148.237  10.113  1.00 21.82     0.044 C 
HETATM   19  C19 VFQ H7621     -46.608 144.402   6.492  1.00 18.20     0.048 C 
HETATM   20  C20 VFQ H7621     -43.028 140.442   6.372  1.00 20.18     0.048 C 
HETATM   21  O3  VFQ H7621     -52.381 148.426  11.546  1.00 25.40    -0.395 OA
ATOM     22  H3  VFQ H7621     -52.118 149.173  12.071  1.00  0.00     0.210 HD
HETATM   23  C21 VFQ H7621     -33.995 128.340   7.361  1.00 94.67    -0.018 C 
HETATM   24  C22 VFQ H7621     -32.987 127.465   6.628  1.00 94.67     0.045 C 
HETATM   25  C23 VFQ H7621     -31.622 128.069   6.375  1.00 94.67     0.123 C 
HETATM   26  C24 VFQ H7621     -31.795 129.485   5.895  1.00 94.67     0.066 C 
HETATM   27  C25 VFQ H7621     -32.510 130.288   6.937  1.00 94.67    -0.074 C 
HETATM   28  C26 VFQ H7621     -33.537 129.764   7.609  1.00 94.67    -0.048 C 
HETATM   29  C27 VFQ H7621     -34.257 130.557   8.634  1.00 94.67     0.009 C 
HETATM   30  C28 VFQ H7621     -35.291 131.330   8.307  1.00 94.67     0.007 C 
HETATM   31  C29 VFQ H7621     -36.071 132.136   9.279  1.00 24.75    -0.062 C 
HETATM   32  C30 VFQ H7621     -37.063 132.911   8.787  1.00 23.92     0.007 C 
HETATM   33  C31 VFQ H7621     -37.906 133.803   9.536  1.00 24.21     0.001 C 
HETATM   34  C32 VFQ H7621     -38.752 134.670   8.933  1.00 22.58     0.007 C 
HETATM   35  C33 VFQ H7621     -39.613 135.685   9.567  1.00 22.21    -0.062 C 
HETATM   36  C34 VFQ H7621     -40.303 136.520   8.759  1.00 21.24     0.007 C 
HETATM   37  C35 VFQ H7621     -41.158 137.611   9.163  1.00 22.03     0.001 C 
HETATM   38  C36 VFQ H7621     -34.249 127.707   8.721  1.00 94.67     0.020 C 
HETATM   39  C37 VFQ H7621     -35.267 128.307   6.521  1.00 94.67     0.020 C 
HETATM   40  C38 VFQ H7621     -32.001 131.680   7.172  1.00 94.67     0.044 C 
HETATM   41  C39 VFQ H7621     -35.667 132.099  10.726  1.00 25.35     0.048 C 
HETATM   42  C40 VFQ H7621     -39.611 135.778  11.070  1.00 19.46     0.048 C 
HETATM   43  O23 VFQ H7621     -30.976 127.325   5.342  1.00 94.67    -0.395 OA
ATOM     44  H23 VFQ H7621     -30.119 127.704   5.183  1.00  0.00     0.210 HD
ENDROOT
TORSDOF 12
BEGIN_RES PHE A  61
REMARK  2 active torsions:
REMARK  status: ('A' for Active; 'I' for Inactive)
REMARK    1  A    between atoms: CA   and  CB  
REMARK    2  A    between atoms: CB   and  CG  
ROOT
ATOM      1  CA  PHE A  61     -36.237 128.293  12.768  1.00 39.40     0.164 C 
ENDROOT
BRANCH   1   2
ATOM      2  CB  PHE A  61     -36.813 128.951  11.509  1.00 39.41     0.058 C 
BRANCH   2   3
ATOM      3  CG  PHE A  61     -37.015 128.007  10.348  1.00 39.01    -0.020 A 
ATOM      4  CD2 PHE A  61     -37.936 128.290   9.352  1.00 40.32    -0.004 A 
ATOM      5  CE2 PHE A  61     -38.123 127.419   8.286  1.00 40.20    -0.000 A 
ATOM      6  CZ  PHE A  61     -37.390 126.258   8.202  1.00 40.34    -0.000 A 
ATOM      7  CE1 PHE A  61     -36.469 125.962   9.183  1.00 41.51    -0.000 A 
ATOM      8  CD1 PHE A  61     -36.286 126.830  10.253  1.00 39.94    -0.004 A 
ENDBRANCH   2   3
ENDBRANCH   1   2
END_RES PHE A  61
BEGIN_RES VAL A 134
REMARK  1 active torsions:
REMARK  status: ('A' for Active; 'I' for Inactive)
REMARK    3  A    between atoms: CA   and  CB  
ROOT
ATOM      9  CA  VAL A 134     -29.766 132.051   9.815  1.00 40.75     0.159 C 
ENDROOT
BRANCH   9  10
ATOM     10  CB  VAL A 134     -30.864 132.765   9.009  1.00 40.76     0.029 C 
ATOM     11  CG1 VAL A 134     -32.107 132.974   9.861  1.00 41.76     0.002 C 
ATOM     12  CG2 VAL A 134     -30.372 134.086   8.438  1.00 40.56     0.002 C 
ENDBRANCH   9  10
END_RES VAL A 134
BEGIN_RES TYR A 338
REMARK  3 active torsions:
REMARK  status: ('A' for Active; 'I' for Inactive)
REMARK    4  A    between atoms: CA   and  CB  
REMARK    5  A    between atoms: CB   and  CG  
REMARK    6  A    between atoms: CZ   and  OH  
ROOT
ATOM     13  CA  TYR A 338     -41.631 124.950   6.058  1.00 38.23     0.164 C 
ENDROOT
BRANCH  13  14
ATOM     14  CB  TYR A 338     -41.621 126.456   6.339  1.00 39.15     0.058 C 
BRANCH  14  15
ATOM     15  CG  TYR A 338     -40.413 127.210   5.832  1.00 39.03    -0.020 A 
ATOM     16  CD2 TYR A 338     -40.259 128.557   6.114  1.00 40.65    -0.002 A 
ATOM     17  CE2 TYR A 338     -39.172 129.283   5.652  1.00 40.91     0.024 A 
ATOM     18  CZ  TYR A 338     -38.205 128.659   4.886  1.00 42.33     0.089 A 
ATOM     19  CE1 TYR A 338     -38.334 127.312   4.596  1.00 40.63     0.024 A 
ATOM     20  CD1 TYR A 338     -39.436 126.607   5.056  1.00 39.27    -0.002 A 
BRANCH  18  21
ATOM     21  OH  TYR A 338     -37.127 129.364   4.429  1.00 43.36    -0.359 OA
ATOM     22  HH  TYR A 338     -36.304 129.344   4.904  1.00  0.00     0.217 HD
ENDBRANCH  18  21
ENDBRANCH  14  15
ENDBRANCH  13  14
END_RES TYR A 338
ENDMDL
MODEL 2
REMARK VINA RESULT:    -9.846      0.706     17.104
REMARK INTER + INTRA:         -10.332
REMARK INTER:                  -9.973
REMARK INTRA:                  -0.359
REMARK UNBOUND:                -0.486
REMARK  0 active torsions:
REMARK  status: ('A' for Active; 'I' for Inactive)
REMARK       I    between atoms: C3_3  and  O3_21 
REMARK       I    between atoms: C6_6  and  C7_7 
REMARK       I    between atoms: C8_8  and  C9_9 
REMARK       I    between atoms: C10_10  and  C11_11 
REMARK       I    between atoms: C12_12  and  C13_13 
REMARK       I    between atoms: C14_14  and  C15_15 
REMARK       I    between atoms: C23_25  and  O23_43 
REMARK       I    between atoms: C26_28  and  C27_29 
REMARK       I    between atoms: C28_30  and  C29_31 
REMARK       I    between atoms: C30_32  and  C31_33 
REMARK       I    between atoms: C32_34  and  C33_35 
REMARK       I    between atoms: C34_36  and  C35_37 
ROOT
HETATM    1  C1  VFQ H7621     -34.080 128.304   7.101  1.00 22.61    -0.018 C 
HETATM    2  C2  VFQ H7621     -33.280 127.672   5.948  1.00 23.33     0.045 C 
HETATM    3  C3  VFQ H7621     -31.891 128.201   5.574  1.00 24.77     0.123 C 
HETATM    4  C4  VFQ H7621     -31.304 129.273   6.507  1.00 22.10     0.066 C 
HETATM    5  C5  VFQ H7621     -32.178 129.960   7.500  1.00 21.89    -0.074 C 
HETATM    6  C6  VFQ H7621     -33.456 129.550   7.810  1.00 21.83    -0.048 C 
HETATM    7  C7  VFQ H7621     -34.326 130.221   8.802  1.00 21.27     0.009 C 
HETATM    8  C8  VFQ H7621     -35.040 131.346   8.562  1.00 20.16     0.007 C 
HETATM    9  C9  VFQ H7621     -35.910 132.069   9.477  1.00 19.98    -0.062 C 
HETATM   10  C10 VFQ H7621     -36.633 133.095   8.974  1.00 19.41     0.007 C 
HETATM   11  C11 VFQ H7621     -37.619 133.875   9.680  1.00 19.37     0.001 C 
HETATM   12  C12 VFQ H7621     -38.366 134.830   9.088  1.00 19.06     0.007 C 
HETATM   13  C13 VFQ H7621     -39.451 135.610   9.705  1.00 20.91    -0.062 C 
HETATM   14  C14 VFQ H7621     -40.109 136.501   8.930  1.00 20.64     0.007 C 
HETATM   15  C15 VFQ H7621     -41.228 137.316   9.312  1.00 20.44     0.001 C 
HETATM   16  C16 VFQ H7621     -34.245 127.145   8.094  1.00 21.21     0.020 C 
HETATM   17  C17 VFQ H7621     -35.485 128.634   6.554  1.00 21.56     0.020 C 
HETATM   18  C18 VFQ H7621     -31.413 131.087   8.078  1.00 21.82     0.044 C 
HETATM   19  C19 VFQ H7621     -36.009 131.574  10.891  1.00 18.20     0.048 C 
HETATM   20  C20 VFQ H7621     -39.787 135.338  11.152  1.00 20.18     0.048 C 
HETATM   21  O3  VFQ H7621     -30.975 127.121   5.424  1.00 25.40    -0.395 OA
ATOM     22  H3  VFQ H7621     -30.114 127.449   5.192  1.00  0.00     0.210 HD
HETATM   23  C21 VFQ H7621     -51.037 145.409  10.121  1.00 94.67    -0.018 C 
HETATM   24  C22 VFQ H7621     -52.045 146.246  10.897  1.00 94.67     0.045 C 
HETATM   25  C23 VFQ H7621     -51.493 147.417  11.682  1.00 94.67     0.123 C 
HETATM   26  C24 VFQ H7621     -50.248 146.977  12.404  1.00 94.67     0.066 C 
HETATM   27  C25 VFQ H7621     -49.225 146.515  11.414  1.00 94.67    -0.074 C 
HETATM   28  C26 VFQ H7621     -49.585 145.779  10.362  1.00 94.67    -0.048 C 
HETATM   29  C27 VFQ H7621     -48.577 145.307   9.383  1.00 94.67     0.009 C 
HETATM   30  C28 VFQ H7621     -47.936 144.153   9.556  1.00 94.67     0.007 C 
HETATM   31  C29 VFQ H7621     -46.929 143.608   8.610  1.00 24.75    -0.062 C 
HETATM   32  C30 VFQ H7621     -46.326 142.446   8.949  1.00 23.92     0.007 C 
HETATM   33  C31 VFQ H7621     -45.294 141.770   8.211  1.00 24.21     0.001 C 
HETATM   34  C32 VFQ H7621     -44.626 140.707   8.718  1.00 22.58     0.007 C 
HETATM   35  C33 VFQ H7621     -43.504 139.968   8.111  1.00 22.21    -0.062 C 
HETATM   36  C34 VFQ H7621     -42.917 138.999   8.846  1.00 21.24     0.007 C 
HETATM   37  C35 VFQ H7621     -41.779 138.193   8.470  1.00 22.03     0.001 C 
HETATM   38  C36 VFQ H7621     -51.312 145.616   8.638  1.00 94.67     0.020 C 
HETATM   39  C37 VFQ H7621     -51.310 143.959  10.507  1.00 94.67     0.020 C 
HETATM   40  C38 VFQ H7621     -47.808 146.932  11.675  1.00 94.67     0.044 C 
HETATM   41  C39 VFQ H7621     -46.590 144.410   7.385  1.00 25.35     0.048 C 
HETATM   42  C40 VFQ H7621     -43.036 140.390   6.743  1.00 19.46     0.048 C 
HETATM   43  O23 VFQ H7621     -52.458 147.810  12.657  1.00 94.67    -0.395 OA
ATOM     44  H23 VFQ H7621     -52.111 148.545  13.150  1.00  0.00     0.210 HD
ENDROOT
TORSDOF 12
BEGIN_RES PHE A  61
REMARK  2 active torsions:
REMARK  status: ('A' for Active; 'I' for Inactive)
REMARK    1  A    between atoms: CA   and  CB  
REMARK    2  A    between atoms: CB   and  CG  
ROOT
ATOM      1  CA  PHE A  61     -36.237 128.293  12.768  1.00 39.40     0.164 C 
ENDROOT
BRANCH   1   2
ATOM      2  CB  PHE A  61     -36.813 128.951  11.509  1.00 39.41     0.058 C 
BRANCH   2   3
ATOM      3  CG  PHE A  61     -37.015 128.007  10.348  1.00 39.01    -0.020 A 
ATOM      4  CD2 PHE A  61     -36.288 126.831  10.253  1.00 40.32    -0.004 A 
ATOM      5  CE2 PHE A  61     -36.472 125.965   9.182  1.00 40.20    -0.000 A 
ATOM      6  CZ  PHE A  61     -37.387 126.262   8.198  1.00 40.34    -0.000 A 
ATOM      7  CE1 PHE A  61     -38.119 127.426   8.280  1.00 41.51    -0.000 A 
ATOM      8  CD1 PHE A  61     -37.930 128.295   9.346  1.00 39.94    -0.004 A 
ENDBRANCH   2   3
ENDBRANCH   1   2
END_RES PHE A  61
BEGIN_RES VAL A 134
REMARK  1 active torsions:
REMARK  status: ('A' for Active; 'I' for Inactive)
REMARK    3  A    between atoms: CA   and  CB  
ROOT
ATOM      9  CA  VAL A 134     -29.766 132.051   9.815  1.00 40.75     0.159 C 
ENDROOT
BRANCH   9  10
ATOM     10  CB  VAL A 134     -30.864 132.765   9.009  1.00 40.76     0.029 C 
ATOM     11  CG1 VAL A 134     -32.099 132.994   9.868  1.00 41.76     0.002 C 
ATOM     12  CG2 VAL A 134     -30.365 134.075   8.420  1.00 40.56     0.002 C 
ENDBRANCH   9  10
END_RES VAL A 134
BEGIN_RES TYR A 338
REMARK  3 active torsions:
REMARK  status: ('A' for Active; 'I' for Inactive)
REMARK    4  A    between atoms: CA   and  CB  
REMARK    5  A    between atoms: CB   and  CG  
REMARK    6  A    between atoms: CZ   and  OH  
ROOT
ATOM     13  CA  TYR A 338     -41.631 124.950   6.058  1.00 38.23     0.164 C 
ENDROOT
BRANCH  13  14
ATOM     14  CB  TYR A 338     -41.621 126.456   6.339  1.00 39.15     0.058 C 
BRANCH  14  15
ATOM     15  CG  TYR A 338     -40.423 127.213   5.814  1.00 39.03    -0.020 A 
ATOM     16  CD2 TYR A 338     -40.272 128.562   6.088  1.00 40.65    -0.002 A 
ATOM     17  CE2 TYR A 338     -39.194 129.291   5.610  1.00 40.91     0.024 A 
ATOM     18  CZ  TYR A 338     -38.234 128.669   4.835  1.00 42.33     0.089 A 
ATOM     19  CE1 TYR A 338     -38.360 127.320   4.552  1.00 40.63     0.024 A 
ATOM     20  CD1 TYR A 338     -39.452 126.611   5.029  1.00 39.27    -0.002 A 
BRANCH  18  21
ATOM     21  OH  TYR A 338     -37.164 129.377   4.362  1.00 43.36    -0.359 OA
ATOM     22  HH  TYR A 338     -36.404 128.925   4.015  1.00  0.00     0.217 HD
ENDBRANCH  18  21
ENDBRANCH  14  15
ENDBRANCH  13  14
END_RES TYR A 338
ENDMDL
MODEL 3
REMARK VINA RESULT:    -8.993      2.031      2.480
REMARK INTER + INTRA:          -9.479
REMARK INTER:                  -7.025
REMARK INTRA:                  -2.454
REMARK UNBOUND:                -0.486
REMARK  0 active torsions:
REMARK  status: ('A' for Active; 'I' for Inactive)
REMARK       I    between atoms: C3_3  and  O3_21 
REMARK       I    between atoms: C6_6  and  C7_7 
REMARK       I    between atoms: C8_8  and  C9_9 
REMARK       I    between atoms: C10_10  and  C11_11 
REMARK       I    between atoms: C12_12  and  C13_13 
REMARK       I    between atoms: C14_14  and  C15_15 
REMARK       I    between atoms: C23_25  and  O23_43 
REMARK       I    between atoms: C26_28  and  C27_29 
REMARK       I    between atoms: C28_30  and  C29_31 
REMARK       I    between atoms: C30_32  and  C31_33 
REMARK       I    between atoms: C32_34  and  C33_35 
REMARK       I    between atoms: C34_36  and  C35_37 
ROOT
HETATM    1  C1  VFQ H7621     -48.097 146.021  12.732  1.00 22.61    -0.018 C 
HETATM    2  C2  VFQ H7621     -48.741 146.599  14.005  1.00 23.33     0.045 C 
HETATM    3  C3  VFQ H7621     -48.021 147.668  14.833  1.00 24.77     0.123 C 
HETATM    4  C4  VFQ H7621     -46.718 148.221  14.233  1.00 22.10     0.066 C 
HETATM    5  C5  VFQ H7621     -46.061 147.518  13.094  1.00 21.89    -0.074 C 
HETATM    6  C6  VFQ H7621     -46.655 146.507  12.372  1.00 21.83    -0.048 C 
HETATM    7  C7  VFQ H7621     -46.013 145.811  11.234  1.00 21.27     0.009 C 
HETATM    8  C8  VFQ H7621     -45.103 144.817  11.357  1.00 20.16     0.007 C 
HETATM    9  C9  VFQ H7621     -44.423 144.087  10.296  1.00 19.98    -0.062 C 
HETATM   10  C10 VFQ H7621     -43.653 143.036  10.656  1.00 19.41     0.007 C 
HETATM   11  C11 VFQ H7621     -42.975 142.128   9.763  1.00 19.37     0.001 C 
HETATM   12  C12 VFQ H7621     -42.292 141.046  10.192  1.00 19.06     0.007 C 
HETATM   13  C13 VFQ H7621     -41.648 140.020   9.356  1.00 20.91    -0.062 C 
HETATM   14  C14 VFQ H7621     -41.039 138.986   9.978  1.00 20.64     0.007 C 
HETATM   15  C15 VFQ H7621     -40.405 137.857   9.357  1.00 20.44     0.001 C 
HETATM   16  C16 VFQ H7621     -49.088 146.410  11.626  1.00 21.21     0.020 C 
HETATM   17  C17 VFQ H7621     -48.140 144.483  12.857  1.00 21.56     0.020 C 
HETATM   18  C18 VFQ H7621     -44.728 148.128  12.890  1.00 21.82     0.044 C 
HETATM   19  C19 VFQ H7621     -44.691 144.499   8.877  1.00 18.20     0.048 C 
HETATM   20  C20 VFQ H7621     -41.740 140.168   7.856  1.00 20.18     0.048 C 
HETATM   21  O3  VFQ H7621     -48.913 148.734  15.147  1.00 25.40    -0.395 OA
ATOM     22  H3  VFQ H7621     -48.466 149.397  15.660  1.00  0.00     0.210 HD
HETATM   23  C21 VFQ H7621     -34.347 127.040   6.413  1.00 94.67    -0.018 C 
HETATM   24  C22 VFQ H7621     -33.607 126.118   5.454  1.00 94.67     0.045 C 
HETATM   25  C23 VFQ H7621     -32.239 126.576   4.994  1.00 94.67     0.123 C 
HETATM   26  C24 VFQ H7621     -32.306 128.037   4.643  1.00 94.67     0.066 C 
HETATM   27  C25 VFQ H7621     -32.716 128.828   5.846  1.00 94.67    -0.074 C 
HETATM   28  C26 VFQ H7621     -33.669 128.375   6.662  1.00 94.67    -0.048 C 
HETATM   29  C27 VFQ H7621     -34.089 129.157   7.849  1.00 94.67     0.009 C 
HETATM   30  C28 VFQ H7621     -35.053 130.072   7.765  1.00 94.67     0.007 C 
HETATM   31  C29 VFQ H7621     -35.539 130.878   8.913  1.00 24.75    -0.062 C 
HETATM   32  C30 VFQ H7621     -36.491 131.805   8.660  1.00 23.92     0.007 C 
HETATM   33  C31 VFQ H7621     -37.065 132.723   9.606  1.00 24.21     0.001 C 
HETATM   34  C32 VFQ H7621     -37.882 133.733   9.223  1.00 22.58     0.007 C 
HETATM   35  C33 VFQ H7621     -38.478 134.785  10.067  1.00 22.21    -0.062 C 
HETATM   36  C34 VFQ H7621     -39.181 135.761   9.453  1.00 21.24     0.007 C 
HETATM   37  C35 VFQ H7621     -39.801 136.908  10.074  1.00 22.03     0.001 C 
HETATM   38  C36 VFQ H7621     -34.442 126.329   7.755  1.00 94.67     0.020 C 
HETATM   39  C37 VFQ H7621     -35.740 127.230   5.821  1.00 94.67     0.020 C 
HETATM   40  C38 VFQ H7621     -31.995 130.125   6.070  1.00 94.67     0.044 C 
HETATM   41  C39 VFQ H7621     -34.897 130.672  10.256  1.00 25.35     0.048 C 
HETATM   42  C40 VFQ H7621     -38.201 134.749  11.547  1.00 19.46     0.048 C 
HETATM   43  O23 VFQ H7621     -31.887 125.851   3.815  1.00 94.67    -0.395 OA
ATOM     44  H23 VFQ H7621     -31.029 126.138   3.526  1.00  0.00     0.210 HD
ENDROOT
TORSDOF 12
BEGIN_RES PHE A  61
REMARK  2 active torsions:
REMARK  status: ('A' for Active; 'I' for Inactive)
REMARK    1  A    between atoms: CA   and  CB  
REMARK    2  A    between atoms: CB   and  CG  
ROOT
ATOM      1  CA  PHE A  61     -36.237 128.293  12.768  1.00 39.40     0.164 C 
ENDROOT
BRANCH   1   2
ATOM      2  CB  PHE A  61     -36.813 128.951  11.509  1.00 39.41     0.058 C 
BRANCH   2   3
ATOM      3  CG  PHE A  61     -37.061 127.998  10.364  1.00 39.01    -0.020 A 
ATOM      4  CD2 PHE A  61     -38.000 128.288   9.387  1.00 40.32    -0.004 A 
ATOM      5  CE2 PHE A  61     -38.229 127.408   8.337  1.00 40.20    -0.000 A 
ATOM      6  CZ  PHE A  61     -37.519 126.232   8.249  1.00 40.34    -0.000 A 
ATOM      7  CE1 PHE A  61     -36.581 125.931   9.210  1.00 41.51    -0.000 A 
ATOM      8  CD1 PHE A  61     -36.356 126.806  10.265  1.00 39.94    -0.004 A 
ENDBRANCH   2   3
ENDBRANCH   1   2
END_RES PHE A  61
BEGIN_RES VAL A 134
REMARK  1 active torsions:
REMARK  status: ('A' for Active; 'I' for Inactive)
REMARK    3  A    between atoms: CA   and  CB  
ROOT
ATOM      9  CA  VAL A 134     -29.766 132.051   9.815  1.00 40.75     0.159 C 
ENDROOT
BRANCH   9  10
ATOM     10  CB  VAL A 134     -30.864 132.765   9.009  1.00 40.76     0.029 C 
ATOM     11  CG1 VAL A 134     -30.894 132.258   7.574  1.00 41.76     0.002 C 
ATOM     12  CG2 VAL A 134     -32.229 132.615   9.664  1.00 40.56     0.002 C 
ENDBRANCH   9  10
END_RES VAL A 134
BEGIN_RES TYR A 338
REMARK  3 active torsions:
REMARK  status: ('A' for Active; 'I' for Inactive)
REMARK    4  A    between atoms: CA   and  CB  
REMARK    5  A    between atoms: CB   and  CG  
REMARK    6  A    between atoms: CZ   and  OH  
ROOT
ATOM     13  CA  TYR A 338     -41.631 124.950   6.058  1.00 38.23     0.164 C 
ENDROOT
BRANCH  13  14
ATOM     14  CB  TYR A 338     -41.621 126.456   6.339  1.00 39.15     0.058 C 
BRANCH  14  15
ATOM     15  CG  TYR A 338     -40.424 127.214   5.812  1.00 39.03    -0.020 A 
ATOM     16  CD2 TYR A 338     -40.225 128.539   6.159  1.00 40.65    -0.002 A 
ATOM     17  CE2 TYR A 338     -39.148 129.269   5.682  1.00 40.91     0.024 A 
ATOM     18  CZ  TYR A 338     -38.237 128.671   4.831  1.00 42.33     0.089 A 
ATOM     19  CE1 TYR A 338     -38.412 127.346   4.473  1.00 40.63     0.024 A 
ATOM     20  CD1 TYR A 338     -39.503 126.637   4.951  1.00 39.27    -0.002 A 
BRANCH  18  21
ATOM     21  OH  TYR A 338     -37.168 129.380   4.358  1.00 43.36    -0.359 OA
ATOM     22  HH  TYR A 338     -36.326 128.957   4.239  1.00  0.00     0.217 HD
ENDBRANCH  18  21
ENDBRANCH  14  15
ENDBRANCH  13  14
END_RES TYR A 338
ENDMDL
MODEL 4
REMARK VINA RESULT:    -8.917      2.272     17.063
REMARK INTER + INTRA:          -9.403
REMARK INTER:                  -6.940
REMARK INTRA:                  -2.463
REMARK UNBOUND:                -0.486
REMARK  0 active torsions:
REMARK  status: ('A' for Active; 'I' for Inactive)
REMARK       I    between atoms: C3_3  and  O3_21 
REMARK       I    between atoms: C6_6  and  C7_7 
REMARK       I    between atoms: C8_8  and  C9_9 
REMARK       I    between atoms: C10_10  and  C11_11 
REMARK       I    between atoms: C12_12  and  C13_13 
REMARK       I    between atoms: C14_14  and  C15_15 
REMARK       I    between atoms: C23_25  and  O23_43 
REMARK       I    between atoms: C26_28  and  C27_29 
REMARK       I    between atoms: C28_30  and  C29_31 
REMARK       I    between atoms: C30_32  and  C31_33 
REMARK       I    between atoms: C32_34  and  C33_35 
REMARK       I    between atoms: C34_36  and  C35_37 
ROOT
HETATM    1  C1  VFQ H7621     -34.594 127.308   6.160  1.00 22.61    -0.018 C 
HETATM    2  C2  VFQ H7621     -34.119 126.658   4.848  1.00 23.33     0.045 C 
HETATM    3  C3  VFQ H7621     -32.764 127.028   4.234  1.00 24.77     0.123 C 
HETATM    4  C4  VFQ H7621     -31.870 127.949   5.081  1.00 22.10     0.066 C 
HETATM    5  C5  VFQ H7621     -32.439 128.673   6.253  1.00 21.89    -0.074 C 
HETATM    6  C6  VFQ H7621     -33.680 128.411   6.787  1.00 21.83    -0.048 C 
HETATM    7  C7  VFQ H7621     -34.248 129.119   7.957  1.00 21.27     0.009 C 
HETATM    8  C8  VFQ H7621     -34.830 130.340   7.908  1.00 20.16     0.007 C 
HETATM    9  C9  VFQ H7621     -35.404 131.105   9.005  1.00 19.98    -0.062 C 
HETATM   10  C10 VFQ H7621     -36.058 132.248   8.696  1.00 19.41     0.007 C 
HETATM   11  C11 VFQ H7621     -36.776 133.097   9.613  1.00 19.37     0.001 C 
HETATM   12  C12 VFQ H7621     -37.480 134.179   9.219  1.00 19.06     0.007 C 
HETATM   13  C13 VFQ H7621     -38.311 135.049  10.067  1.00 20.91    -0.062 C 
HETATM   14  C14 VFQ H7621     -38.971 136.068   9.474  1.00 20.64     0.007 C 
HETATM   15  C15 VFQ H7621     -39.873 136.993  10.099  1.00 20.44     0.001 C 
HETATM   16  C16 VFQ H7621     -34.731 126.114   7.116  1.00 21.21     0.020 C 
HETATM   17  C17 VFQ H7621     -36.016 127.853   5.911  1.00 21.56     0.020 C 
HETATM   18  C18 VFQ H7621     -31.429 129.650   6.719  1.00 21.82     0.044 C 
HETATM   19  C19 VFQ H7621     -35.306 130.531  10.389  1.00 18.20     0.048 C 
HETATM   20  C20 VFQ H7621     -38.406 134.723  11.538  1.00 20.18     0.048 C 
HETATM   21  O3  VFQ H7621     -32.052 125.851   3.864  1.00 25.40    -0.395 OA
ATOM     22  H3  VFQ H7621     -31.212 126.081   3.483  1.00  0.00     0.210 HD
HETATM   23  C21 VFQ H7621     -48.131 146.208  13.142  1.00 94.67    -0.018 C 
HETATM   24  C22 VFQ H7621     -48.850 147.113  14.134  1.00 94.67     0.045 C 
HETATM   25  C23 VFQ H7621     -48.003 148.146  14.846  1.00 94.67     0.123 C 
HETATM   26  C24 VFQ H7621     -46.719 147.501  15.294  1.00 94.67     0.066 C 
HETATM   27  C25 VFQ H7621     -45.974 146.979  14.105  1.00 94.67    -0.074 C 
HETATM   28  C26 VFQ H7621     -46.623 146.370  13.112  1.00 94.67    -0.048 C 
HETATM   29  C27 VFQ H7621     -45.890 145.840  11.937  1.00 94.67     0.009 C 
HETATM   30  C28 VFQ H7621     -45.396 144.604  11.933  1.00 94.67     0.007 C 
HETATM   31  C29 VFQ H7621     -44.670 144.000  10.787  1.00 24.75    -0.062 C 
HETATM   32  C30 VFQ H7621     -44.182 142.750  10.953  1.00 23.92     0.007 C 
HETATM   33  C31 VFQ H7621     -43.411 141.998  10.000  1.00 24.21     0.001 C 
HETATM   34  C32 VFQ H7621     -42.816 140.826  10.322  1.00 22.58     0.007 C 
HETATM   35  C33 VFQ H7621     -41.941 139.992   9.477  1.00 22.21    -0.062 C 
HETATM   36  C34 VFQ H7621     -41.368 138.907  10.042  1.00 21.24     0.007 C 
HETATM   37  C35 VFQ H7621     -40.444 137.989   9.419  1.00 22.03     0.001 C 
HETATM   38  C36 VFQ H7621     -48.647 146.550  11.751  1.00 94.67     0.020 C 
HETATM   39  C37 VFQ H7621     -48.527 144.782  13.512  1.00 94.67     0.020 C 
HETATM   40  C38 VFQ H7621     -44.488 147.191  14.104  1.00 94.67     0.044 C 
HETATM   41  C39 VFQ H7621     -44.457 144.834   9.555  1.00 25.35     0.048 C 
HETATM   42  C40 VFQ H7621     -41.681 140.443   8.064  1.00 19.46     0.048 C 
HETATM   43  O23 VFQ H7621     -48.704 148.593  16.006  1.00 94.67    -0.395 OA
ATOM     44  H23 VFQ H7621     -48.173 149.241  16.453  1.00  0.00     0.210 HD
ENDROOT
TORSDOF 12
BEGIN_RES PHE A  61
REMARK  2 active torsions:
REMARK  status: ('A' for Active; 'I' for Inactive)
REMARK    1  A    between atoms: CA   and  CB  
REMARK    2  A    between atoms: CB   and  CG  
ROOT
ATOM      1  CA  PHE A  61     -36.237 128.293  12.768  1.00 39.40     0.164 C 
ENDROOT
BRANCH   1   2
ATOM      2  CB  PHE A  61     -36.813 128.951  11.509  1.00 39.41     0.058 C 
BRANCH   2   3
ATOM      3  CG  PHE A  61     -37.032 128.003  10.354  1.00 39.01    -0.020 A 
ATOM      4  CD2 PHE A  61     -36.274 126.850  10.226  1.00 40.32    -0.004 A 
ATOM      5  CE2 PHE A  61     -36.475 125.980   9.162  1.00 40.20    -0.000 A 
ATOM      6  CZ  PHE A  61     -37.437 126.252   8.216  1.00 40.34    -0.000 A 
ATOM      7  CE1 PHE A  61     -38.200 127.393   8.329  1.00 41.51    -0.000 A 
ATOM      8  CD1 PHE A  61     -37.995 128.266   9.390  1.00 39.94    -0.004 A 
ENDBRANCH   2   3
ENDBRANCH   1   2
END_RES PHE A  61
BEGIN_RES VAL A 134
REMARK  1 active torsions:
REMARK  status: ('A' for Active; 'I' for Inactive)
REMARK    3  A    between atoms: CA   and  CB  
ROOT
ATOM      9  CA  VAL A 134     -29.766 132.051   9.815  1.00 40.75     0.159 C 
ENDROOT
BRANCH   9  10
ATOM     10  CB  VAL A 134     -30.864 132.765   9.009  1.00 40.76     0.029 C 
ATOM     11  CG1 VAL A 134     -30.853 132.304   7.559  1.00 41.76     0.002 C 
ATOM     12  CG2 VAL A 134     -32.238 132.562   9.630  1.00 40.56     0.002 C 
ENDBRANCH   9  10
END_RES VAL A 134
BEGIN_RES TYR A 338
REMARK  3 active torsions:
REMARK  status: ('A' for Active; 'I' for Inactive)
REMARK    4  A    between atoms: CA   and  CB  
REMARK    5  A    between atoms: CB   and  CG  
REMARK    6  A    between atoms: CZ   and  OH  
ROOT
ATOM     13  CA  TYR A 338     -41.631 124.950   6.058  1.00 38.23     0.164 C 
ENDROOT
BRANCH  13  14
ATOM     14  CB  TYR A 338     -41.621 126.456   6.339  1.00 39.15     0.058 C 
BRANCH  14  15
ATOM     15  CG  TYR A 338     -40.440 127.219   5.784  1.00 39.03    -0.020 A 
ATOM     16  CD2 TYR A 338     -40.253 128.552   6.107  1.00 40.65    -0.002 A 
ATOM     17  CE2 TYR A 338     -39.190 129.287   5.604  1.00 40.91     0.024 A 
ATOM     18  CZ  TYR A 338     -38.283 128.686   4.752  1.00 42.33     0.089 A 
ATOM     19  CE1 TYR A 338     -38.446 127.353   4.418  1.00 40.63     0.024 A 
ATOM     20  CD1 TYR A 338     -39.523 126.639   4.922  1.00 39.27    -0.002 A 
BRANCH  18  21
ATOM     21  OH  TYR A 338     -37.229 129.399   4.254  1.00 43.36    -0.359 OA
ATOM     22  HH  TYR A 338     -37.106 130.309   4.498  1.00  0.00     0.217 HD
ENDBRANCH  18  21
ENDBRANCH  14  15
ENDBRANCH  13  14
END_RES TYR A 338
ENDMDL
