MODEL 1
REMARK VINA RESULT:    -8.631      0.000      0.000
REMARK INTER + INTRA:         -11.953
REMARK INTER:                  -8.631
REMARK INTRA:                  -3.323
REMARK UNBOUND:                -3.323
REMARK  0 active torsions:
REMARK  status: ('A' for Active; 'I' for Inactive)
REMARK       I    between atoms: C3_3  and  O3_21 
REMARK       I    between atoms: C6_6  and  C7_7 
REMARK       I    between atoms: C8_8  and  C9_9 
REMARK       I    between atoms: C10_10  and  C11_11 
REMARK       I    between atoms: C12_12  and  C13_13 
REMARK       I    between atoms: C14_14  and  C15_15 
REMARK       I    between atoms: C23_25  and  O23_43 
REMARK       I    between atoms: C26_28  and  C27_29 
REMARK       I    between atoms: C28_30  and  C29_31 
REMARK       I    between atoms: C30_32  and  C31_33 
REMARK       I    between atoms: C32_34  and  C33_35 
REMARK       I    between atoms: C34_36  and  C35_37 
ROOT
HETATM    1  C1  VFQ D3621     -47.414 146.213  12.844  1.00 23.41    -0.018 C 
HETATM    2  C2  VFQ D3621     -48.294 146.792  13.966  1.00 23.79     0.045 C 
HETATM    3  C3  VFQ D3621     -47.660 147.483  15.170  1.00 23.28     0.123 C 
HETATM    4  C4  VFQ D3621     -46.218 147.959  14.932  1.00 23.70     0.066 C 
HETATM    5  C5  VFQ D3621     -45.392 147.387  13.816  1.00 23.84    -0.074 C 
HETATM    6  C6  VFQ D3621     -45.901 146.576  12.821  1.00 22.99    -0.048 C 
HETATM    7  C7  VFQ D3621     -45.108 146.006  11.700  1.00 20.55     0.009 C 
HETATM    8  C8  VFQ D3621     -44.334 144.902  11.787  1.00 19.35     0.007 C 
HETATM    9  C9  VFQ D3621     -43.468 144.276  10.785  1.00 18.45    -0.062 C 
HETATM   10  C10 VFQ D3621     -42.905 143.091  11.106  1.00 18.11     0.007 C 
HETATM   11  C11 VFQ D3621     -42.101 142.258  10.258  1.00 18.44     0.001 C 
HETATM   12  C12 VFQ D3621     -41.650 141.044  10.653  1.00 19.34     0.007 C 
HETATM   13  C13 VFQ D3621     -40.908 140.082   9.818  1.00 20.12    -0.062 C 
HETATM   14  C14 VFQ D3621     -40.554 138.893  10.362  1.00 19.73     0.007 C 
HETATM   15  C15 VFQ D3621     -39.869 137.785   9.702  1.00 19.24     0.001 C 
HETATM   16  C16 VFQ D3621     -48.117 146.753  11.593  1.00 23.73     0.020 C 
HETATM   17  C17 VFQ D3621     -47.586 144.689  12.863  1.00 23.42     0.020 C 
HETATM   18  C18 VFQ D3621     -43.991 147.862  13.953  1.00 22.78     0.044 C 
HETATM   19  C19 VFQ D3621     -43.331 144.950   9.455  1.00 16.12     0.048 C 
HETATM   20  C20 VFQ D3621     -40.619 140.488   8.399  1.00 17.75     0.048 C 
HETATM   21  O3  VFQ D3621     -48.478 148.560  15.603  1.00 21.52    -0.395 OA
ATOM     22  H3  VFQ D3621     -48.083 148.990  16.352  1.00  0.00     0.210 HD
HETATM   23  C21 VFQ D3621     -33.901 126.531   6.635  1.00 38.90    -0.018 C 
HETATM   24  C22 VFQ D3621     -33.078 125.850   5.543  1.00 38.90     0.045 C 
HETATM   25  C23 VFQ D3621     -32.668 126.745   4.376  1.00 38.90     0.123 C 
HETATM   26  C24 VFQ D3621     -33.587 127.947   4.284  1.00 38.90     0.066 C 
HETATM   27  C25 VFQ D3621     -33.422 128.689   5.577  1.00 38.90    -0.074 C 
HETATM   28  C26 VFQ D3621     -33.675 128.023   6.708  1.00 38.90    -0.048 C 
HETATM   29  C27 VFQ D3621     -33.959 128.735   7.966  1.00 38.90     0.009 C 
HETATM   30  C28 VFQ D3621     -34.845 129.718   7.814  1.00 38.90     0.007 C 
HETATM   31  C29 VFQ D3621     -35.450 130.462   8.971  1.00 21.21    -0.062 C 
HETATM   32  C30 VFQ D3621     -36.299 131.479   8.688  1.00 20.08     0.007 C 
HETATM   33  C31 VFQ D3621     -36.972 132.322   9.649  1.00 17.89     0.001 C 
HETATM   34  C32 VFQ D3621     -37.640 133.450   9.304  1.00 17.64     0.007 C 
HETATM   35  C33 VFQ D3621     -38.320 134.423  10.194  1.00 17.45    -0.062 C 
HETATM   36  C34 VFQ D3621     -38.824 135.550   9.635  1.00 15.95     0.007 C 
HETATM   37  C35 VFQ D3621     -39.486 136.650  10.319  1.00 18.41     0.001 C 
HETATM   38  C36 VFQ D3621     -33.587 125.909   7.989  1.00 38.90     0.020 C 
HETATM   39  C37 VFQ D3621     -35.384 126.344   6.324  1.00 38.90     0.020 C 
HETATM   40  C38 VFQ D3621     -32.853 130.088   5.544  1.00 38.90     0.044 C 
HETATM   41  C39 VFQ D3621     -35.018 130.095  10.366  1.00 22.05     0.048 C 
HETATM   42  C40 VFQ D3621     -38.337 134.124  11.672  1.00 11.49     0.048 C 
HETATM   43  O23 VFQ D3621     -32.735 126.013   3.149  1.00 38.90    -0.395 OA
ATOM     44  H23 VFQ D3621     -32.480 126.571   2.423  1.00  0.00     0.210 HD
ENDROOT
TORSDOF 12
BEGIN_RES PHE A  61
REMARK  2 active torsions:
REMARK  status: ('A' for Active; 'I' for Inactive)
REMARK    1  A    between atoms: CA   and  CB  
REMARK    2  A    between atoms: CB   and  CG  
ROOT
ATOM      1  CA  PHE A  61     -36.237 128.293  12.768  1.00 39.40     0.164 C 
ENDROOT
BRANCH   1   2
ATOM      2  CB  PHE A  61     -36.813 128.951  11.509  1.00 39.41     0.058 C 
BRANCH   2   3
ATOM      3  CG  PHE A  61     -37.043 128.001  10.358  1.00 39.01    -0.020 A 
ATOM      4  CD2 PHE A  61     -36.295 126.842  10.232  1.00 40.32    -0.004 A 
ATOM      5  CE2 PHE A  61     -36.506 125.970   9.170  1.00 40.20    -0.000 A 
ATOM      6  CZ  PHE A  61     -37.469 126.246   8.227  1.00 40.34    -0.000 A 
ATOM      7  CE1 PHE A  61     -38.223 127.392   8.340  1.00 41.51    -0.000 A 
ATOM      8  CD1 PHE A  61     -38.008 128.267   9.397  1.00 39.94    -0.004 A 
ENDBRANCH   2   3
ENDBRANCH   1   2
END_RES PHE A  61
BEGIN_RES VAL A 134
REMARK  1 active torsions:
REMARK  status: ('A' for Active; 'I' for Inactive)
REMARK    3  A    between atoms: CA   and  CB  
ROOT
ATOM      9  CA  VAL A 134     -29.766 132.051   9.815  1.00 40.75     0.159 C 
ENDROOT
BRANCH   9  10
ATOM     10  CB  VAL A 134     -30.864 132.765   9.009  1.00 40.76     0.029 C 
ATOM     11  CG1 VAL A 134     -31.215 131.972   7.759  1.00 41.76     0.002 C 
ATOM     12  CG2 VAL A 134     -32.103 133.020   9.853  1.00 40.56     0.002 C 
ENDBRANCH   9  10
END_RES VAL A 134
BEGIN_RES TYR A 338
REMARK  3 active torsions:
REMARK  status: ('A' for Active; 'I' for Inactive)
REMARK    4  A    between atoms: CA   and  CB  
REMARK    5  A    between atoms: CB   and  CG  
REMARK    6  A    between atoms: CZ   and  OH  
ROOT
ATOM     13  CA  TYR A 338     -41.631 124.950   6.058  1.00 38.23     0.164 C 
ENDROOT
BRANCH  13  14
ATOM     14  CB  TYR A 338     -41.621 126.456   6.339  1.00 39.15     0.058 C 
BRANCH  14  15
ATOM     15  CG  TYR A 338     -40.392 127.202   5.873  1.00 39.03    -0.020 A 
ATOM     16  CD2 TYR A 338     -40.209 128.532   6.213  1.00 40.65    -0.002 A 
ATOM     17  CE2 TYR A 338     -39.102 129.251   5.789  1.00 40.91     0.024 A 
ATOM     18  CZ  TYR A 338     -38.145 128.638   5.003  1.00 42.33     0.089 A 
ATOM     19  CE1 TYR A 338     -38.304 127.309   4.653  1.00 40.63     0.024 A 
ATOM     20  CD1 TYR A 338     -39.424 126.611   5.076  1.00 39.27    -0.002 A 
BRANCH  18  21
ATOM     21  OH  TYR A 338     -37.047 129.337   4.583  1.00 43.36    -0.359 OA
ATOM     22  HH  TYR A 338     -36.491 128.990   3.896  1.00  0.00     0.217 HD
ENDBRANCH  18  21
ENDBRANCH  14  15
ENDBRANCH  13  14
END_RES TYR A 338
ENDMDL
MODEL 2
REMARK VINA RESULT:    -8.163      1.695      2.756
REMARK INTER + INTRA:         -11.486
REMARK INTER:                  -9.004
REMARK INTRA:                  -2.482
REMARK UNBOUND:                -3.323
REMARK  0 active torsions:
REMARK  status: ('A' for Active; 'I' for Inactive)
REMARK       I    between atoms: C3_3  and  O3_21 
REMARK       I    between atoms: C6_6  and  C7_7 
REMARK       I    between atoms: C8_8  and  C9_9 
REMARK       I    between atoms: C10_10  and  C11_11 
REMARK       I    between atoms: C12_12  and  C13_13 
REMARK       I    between atoms: C14_14  and  C15_15 
REMARK       I    between atoms: C23_25  and  O23_43 
REMARK       I    between atoms: C26_28  and  C27_29 
REMARK       I    between atoms: C28_30  and  C29_31 
REMARK       I    between atoms: C30_32  and  C31_33 
REMARK       I    between atoms: C32_34  and  C33_35 
REMARK       I    between atoms: C34_36  and  C35_37 
ROOT
HETATM    1  C1  VFQ D3621     -46.870 148.343  10.137  1.00 23.41    -0.018 C 
HETATM    2  C2  VFQ D3621     -48.289 148.927  10.254  1.00 23.79     0.045 C 
HETATM    3  C3  VFQ D3621     -49.074 148.800  11.557  1.00 23.28     0.123 C 
HETATM    4  C4  VFQ D3621     -48.201 148.516  12.790  1.00 23.70     0.066 C 
HETATM    5  C5  VFQ D3621     -46.813 147.963  12.640  1.00 23.84    -0.074 C 
HETATM    6  C6  VFQ D3621     -46.151 147.867  11.432  1.00 22.99    -0.048 C 
HETATM    7  C7  VFQ D3621     -44.773 147.334  11.257  1.00 20.55     0.009 C 
HETATM    8  C8  VFQ D3621     -44.457 146.023  11.192  1.00 19.35     0.007 C 
HETATM    9  C9  VFQ D3621     -43.149 145.373  11.081  1.00 18.45    -0.062 C 
HETATM   10  C10 VFQ D3621     -43.136 144.033  10.901  1.00 18.11     0.007 C 
HETATM   11  C11 VFQ D3621     -41.987 143.202  10.678  1.00 18.44     0.001 C 
HETATM   12  C12 VFQ D3621     -42.091 141.877  10.428  1.00 19.34     0.007 C 
HETATM   13  C13 VFQ D3621     -40.979 140.969  10.089  1.00 20.12    -0.062 C 
HETATM   14  C14 VFQ D3621     -41.261 139.668   9.837  1.00 19.73     0.007 C 
HETATM   15  C15 VFQ D3621     -40.326 138.621   9.434  1.00 19.24     0.001 C 
HETATM   16  C16 VFQ D3621     -46.111 149.510   9.496  1.00 23.73     0.020 C 
HETATM   17  C17 VFQ D3621     -46.926 147.197   9.118  1.00 23.42     0.020 C 
HETATM   18  C18 VFQ D3621     -46.290 147.587  13.979  1.00 22.78     0.044 C 
HETATM   19  C19 VFQ D3621     -41.929 146.241  11.095  1.00 16.12     0.048 C 
HETATM   20  C20 VFQ D3621     -39.602 141.570  10.020  1.00 17.75     0.048 C 
HETATM   21  O3  VFQ D3621     -49.869 149.959  11.764  1.00 21.52    -0.395 OA
ATOM     22  H3  VFQ D3621     -50.358 149.881  12.574  1.00  0.00     0.210 HD
HETATM   23  C21 VFQ D3621     -34.511 127.408   5.952  1.00 38.90    -0.018 C 
HETATM   24  C22 VFQ D3621     -33.142 126.763   5.744  1.00 38.90     0.045 C 
HETATM   25  C23 VFQ D3621     -31.944 127.620   6.145  1.00 38.90     0.123 C 
HETATM   26  C24 VFQ D3621     -32.327 129.087   6.161  1.00 38.90     0.066 C 
HETATM   27  C25 VFQ D3621     -33.412 129.216   7.189  1.00 38.90    -0.074 C 
HETATM   28  C26 VFQ D3621     -34.511 128.473   7.025  1.00 38.90    -0.048 C 
HETATM   29  C27 VFQ D3621     -35.774 128.818   7.699  1.00 38.90     0.009 C 
HETATM   30  C28 VFQ D3621     -36.082 130.109   7.589  1.00 38.90     0.007 C 
HETATM   31  C29 VFQ D3621     -37.407 130.674   8.014  1.00 21.21    -0.062 C 
HETATM   32  C30 VFQ D3621     -37.584 132.013   7.902  1.00 20.08     0.007 C 
HETATM   33  C31 VFQ D3621     -38.771 132.751   8.266  1.00 17.89     0.001 C 
HETATM   34  C32 VFQ D3621     -38.811 134.105   8.328  1.00 17.64     0.007 C 
HETATM   35  C33 VFQ D3621     -39.942 134.973   8.737  1.00 17.45    -0.062 C 
HETATM   36  C34 VFQ D3621     -39.716 136.305   8.839  1.00 15.95     0.007 C 
HETATM   37  C35 VFQ D3621     -40.661 137.327   9.263  1.00 18.41     0.001 C 
HETATM   38  C36 VFQ D3621     -35.541 126.344   6.303  1.00 38.90     0.020 C 
HETATM   39  C37 VFQ D3621     -34.927 128.109   4.662  1.00 38.90     0.020 C 
HETATM   40  C38 VFQ D3621     -33.155 130.061   8.415  1.00 38.90     0.044 C 
HETATM   41  C39 VFQ D3621     -38.426 129.743   8.615  1.00 22.05     0.048 C 
HETATM   42  C40 VFQ D3621     -41.246 134.301   9.086  1.00 11.49     0.048 C 
HETATM   43  O23 VFQ D3621     -30.873 127.430   5.217  1.00 38.90    -0.395 OA
ATOM     44  H23 VFQ D3621     -30.127 127.964   5.466  1.00  0.00     0.210 HD
ENDROOT
TORSDOF 12
BEGIN_RES PHE A  61
REMARK  2 active torsions:
REMARK  status: ('A' for Active; 'I' for Inactive)
REMARK    1  A    between atoms: CA   and  CB  
REMARK    2  A    between atoms: CB   and  CG  
ROOT
ATOM      1  CA  PHE A  61     -36.237 128.293  12.768  1.00 39.40     0.164 C 
ENDROOT
BRANCH   1   2
ATOM      2  CB  PHE A  61     -36.813 128.951  11.509  1.00 39.41     0.058 C 
BRANCH   2   3
ATOM      3  CG  PHE A  61     -36.383 130.383  11.301  1.00 39.01    -0.020 A 
ATOM      4  CD2 PHE A  61     -35.106 130.685  10.853  1.00 40.32    -0.004 A 
ATOM      5  CE2 PHE A  61     -34.711 132.004  10.666  1.00 40.20    -0.000 A 
ATOM      6  CZ  PHE A  61     -35.587 133.034  10.919  1.00 40.34    -0.000 A 
ATOM      7  CE1 PHE A  61     -36.860 132.751  11.362  1.00 41.51    -0.000 A 
ATOM      8  CD1 PHE A  61     -37.254 131.433  11.557  1.00 39.94    -0.004 A 
ENDBRANCH   2   3
ENDBRANCH   1   2
END_RES PHE A  61
BEGIN_RES VAL A 134
REMARK  1 active torsions:
REMARK  status: ('A' for Active; 'I' for Inactive)
REMARK    3  A    between atoms: CA   and  CB  
ROOT
ATOM      9  CA  VAL A 134     -29.766 132.051   9.815  1.00 40.75     0.159 C 
ENDROOT
BRANCH   9  10
ATOM     10  CB  VAL A 134     -30.864 132.765   9.009  1.00 40.76     0.029 C 
ATOM     11  CG1 VAL A 134     -31.157 132.015   7.718  1.00 41.76     0.002 C 
ATOM     12  CG2 VAL A 134     -32.133 132.948   9.828  1.00 40.56     0.002 C 
ENDBRANCH   9  10
END_RES VAL A 134
BEGIN_RES TYR A 338
REMARK  3 active torsions:
REMARK  status: ('A' for Active; 'I' for Inactive)
REMARK    4  A    between atoms: CA   and  CB  
REMARK    5  A    between atoms: CB   and  CG  
REMARK    6  A    between atoms: CZ   and  OH  
ROOT
ATOM     13  CA  TYR A 338     -41.631 124.950   6.058  1.00 38.23     0.164 C 
ENDROOT
BRANCH  13  14
ATOM     14  CB  TYR A 338     -41.621 126.456   6.339  1.00 39.15     0.058 C 
BRANCH  14  15
ATOM     15  CG  TYR A 338     -40.420 127.212   5.820  1.00 39.03    -0.020 A 
ATOM     16  CD2 TYR A 338     -40.272 128.562   6.089  1.00 40.65    -0.002 A 
ATOM     17  CE2 TYR A 338     -39.191 129.291   5.615  1.00 40.91     0.024 A 
ATOM     18  CZ  TYR A 338     -38.225 128.666   4.850  1.00 42.33     0.089 A 
ATOM     19  CE1 TYR A 338     -38.348 127.316   4.572  1.00 40.63     0.024 A 
ATOM     20  CD1 TYR A 338     -39.443 126.608   5.044  1.00 39.27    -0.002 A 
BRANCH  18  21
ATOM     21  OH  TYR A 338     -37.153 129.373   4.382  1.00 43.36    -0.359 OA
ATOM     22  HH  TYR A 338     -37.284 130.164   3.873  1.00  0.00     0.217 HD
ENDBRANCH  18  21
ENDBRANCH  14  15
ENDBRANCH  13  14
END_RES TYR A 338
ENDMDL
MODEL 3
REMARK VINA RESULT:    -6.622      2.152     17.041
REMARK INTER + INTRA:          -9.945
REMARK INTER:                  -9.845
REMARK INTRA:                  -0.100
REMARK UNBOUND:                -3.323
REMARK  0 active torsions:
REMARK  status: ('A' for Active; 'I' for Inactive)
REMARK       I    between atoms: C3_3  and  O3_21 
REMARK       I    between atoms: C6_6  and  C7_7 
REMARK       I    between atoms: C8_8  and  C9_9 
REMARK       I    between atoms: C10_10  and  C11_11 
REMARK       I    between atoms: C12_12  and  C13_13 
REMARK       I    between atoms: C14_14  and  C15_15 
REMARK       I    between atoms: C23_25  and  O23_43 
REMARK       I    between atoms: C26_28  and  C27_29 
REMARK       I    between atoms: C28_30  and  C29_31 
REMARK       I    between atoms: C30_32  and  C31_33 
REMARK       I    between atoms: C32_34  and  C33_35 
REMARK       I    between atoms: C34_36  and  C35_37 
ROOT
HETATM    1  C1  VFQ D3621     -34.144 128.197   7.088  1.00 23.41    -0.018 C 
HETATM    2  C2  VFQ D3621     -33.389 127.399   6.010  1.00 23.79     0.045 C 
HETATM    3  C3  VFQ D3621     -32.150 127.984   5.339  1.00 23.28     0.123 C 
HETATM    4  C4  VFQ D3621     -31.486 129.122   6.131  1.00 23.70     0.066 C 
HETATM    5  C5  VFQ D3621     -32.245 129.870   7.189  1.00 23.84    -0.074 C 
HETATM    6  C6  VFQ D3621     -33.479 129.478   7.670  1.00 22.99    -0.048 C 
HETATM    7  C7  VFQ D3621     -34.247 130.193   8.724  1.00 20.55     0.009 C 
HETATM    8  C8  VFQ D3621     -35.012 131.286   8.513  1.00 19.35     0.007 C 
HETATM    9  C9  VFQ D3621     -35.764 132.109   9.463  1.00 18.45    -0.062 C 
HETATM   10  C10 VFQ D3621     -36.557 133.077   8.952  1.00 18.11     0.007 C 
HETATM   11  C11 VFQ D3621     -37.447 133.938   9.678  1.00 18.44     0.001 C 
HETATM   12  C12 VFQ D3621     -38.262 134.823   9.059  1.00 19.34     0.007 C 
HETATM   13  C13 VFQ D3621     -39.275 135.671   9.714  1.00 20.12    -0.062 C 
HETATM   14  C14 VFQ D3621     -40.032 136.487   8.940  1.00 19.73     0.007 C 
HETATM   15  C15 VFQ D3621     -41.119 137.362   9.373  1.00 19.24     0.001 C 
HETATM   16  C16 VFQ D3621     -34.327 127.139   8.182  1.00 23.73     0.020 C 
HETATM   17  C17 VFQ D3621     -35.530 128.538   6.523  1.00 23.42     0.020 C 
HETATM   18  C18 VFQ D3621     -31.443 131.039   7.631  1.00 22.78     0.044 C 
HETATM   19  C19 VFQ D3621     -35.663 131.772  10.918  1.00 16.12     0.048 C 
HETATM   20  C20 VFQ D3621     -39.413 135.546  11.206  1.00 17.75     0.048 C 
HETATM   21  O3  VFQ D3621     -31.211 126.954   5.062  1.00 21.52    -0.395 OA
ATOM     22  H3  VFQ D3621     -30.440 127.317   4.645  1.00  0.00     0.210 HD
HETATM   23  C21 VFQ D3621     -50.937 145.997  10.206  1.00 38.90    -0.018 C 
HETATM   24  C22 VFQ D3621     -51.784 146.781  11.207  1.00 38.90     0.045 C 
HETATM   25  C23 VFQ D3621     -51.358 146.656  12.667  1.00 38.90     0.123 C 
HETATM   26  C24 VFQ D3621     -50.543 145.395  12.873  1.00 38.90     0.066 C 
HETATM   27  C25 VFQ D3621     -49.331 145.544  12.001  1.00 38.90    -0.074 C 
HETATM   28  C26 VFQ D3621     -49.531 145.734  10.693  1.00 38.90    -0.048 C 
HETATM   29  C27 VFQ D3621     -48.465 145.470   9.712  1.00 38.90     0.009 C 
HETATM   30  C28 VFQ D3621     -47.859 144.301   9.909  1.00 38.90     0.007 C 
HETATM   31  C29 VFQ D3621     -46.879 143.710   8.935  1.00 21.21    -0.062 C 
HETATM   32  C30 VFQ D3621     -46.287 142.539   9.272  1.00 20.08     0.007 C 
HETATM   33  C31 VFQ D3621     -45.313 141.817   8.486  1.00 17.89     0.001 C 
HETATM   34  C32 VFQ D3621     -44.605 140.767   8.969  1.00 17.64     0.007 C 
HETATM   35  C33 VFQ D3621     -43.546 139.983   8.288  1.00 17.45    -0.062 C 
HETATM   36  C34 VFQ D3621     -42.885 139.046   9.009  1.00 15.95     0.007 C 
HETATM   37  C35 VFQ D3621     -41.790 138.200   8.560  1.00 18.41     0.001 C 
HETATM   38  C36 VFQ D3621     -50.877 146.740   8.878  1.00 38.90     0.020 C 
HETATM   39  C37 VFQ D3621     -51.572 144.626   9.990  1.00 38.90     0.020 C 
HETATM   40  C38 VFQ D3621     -47.970 145.610  12.653  1.00 38.90     0.044 C 
HETATM   41  C39 VFQ D3621     -46.549 144.487   7.688  1.00 22.05     0.048 C 
HETATM   42  C40 VFQ D3621     -43.227 140.337   6.857  1.00 11.49     0.048 C 
HETATM   43  O23 VFQ D3621     -52.512 146.606  13.511  1.00 38.90    -0.395 OA
ATOM     44  H23 VFQ D3621     -52.247 146.527  14.420  1.00  0.00     0.210 HD
ENDROOT
TORSDOF 12
BEGIN_RES PHE A  61
REMARK  2 active torsions:
REMARK  status: ('A' for Active; 'I' for Inactive)
REMARK    1  A    between atoms: CA   and  CB  
REMARK    2  A    between atoms: CB   and  CG  
ROOT
ATOM      1  CA  PHE A  61     -36.237 128.293  12.768  1.00 39.40     0.164 C 
ENDROOT
BRANCH   1   2
ATOM      2  CB  PHE A  61     -36.813 128.951  11.509  1.00 39.41     0.058 C 
BRANCH   2   3
ATOM      3  CG  PHE A  61     -37.041 128.002  10.357  1.00 39.01    -0.020 A 
ATOM      4  CD2 PHE A  61     -36.319 126.823  10.253  1.00 40.32    -0.004 A 
ATOM      5  CE2 PHE A  61     -36.527 125.952   9.191  1.00 40.20    -0.000 A 
ATOM      6  CZ  PHE A  61     -37.461 126.247   8.224  1.00 40.34    -0.000 A 
ATOM      7  CE1 PHE A  61     -38.188 127.413   8.314  1.00 41.51    -0.000 A 
ATOM      8  CD1 PHE A  61     -37.975 128.288   9.372  1.00 39.94    -0.004 A 
ENDBRANCH   2   3
ENDBRANCH   1   2
END_RES PHE A  61
BEGIN_RES VAL A 134
REMARK  1 active torsions:
REMARK  status: ('A' for Active; 'I' for Inactive)
REMARK    3  A    between atoms: CA   and  CB  
ROOT
ATOM      9  CA  VAL A 134     -29.766 132.051   9.815  1.00 40.75     0.159 C 
ENDROOT
BRANCH   9  10
ATOM     10  CB  VAL A 134     -30.864 132.765   9.009  1.00 40.76     0.029 C 
ATOM     11  CG1 VAL A 134     -32.107 132.975   9.862  1.00 41.76     0.002 C 
ATOM     12  CG2 VAL A 134     -30.371 134.085   8.437  1.00 40.56     0.002 C 
ENDBRANCH   9  10
END_RES VAL A 134
BEGIN_RES TYR A 338
REMARK  3 active torsions:
REMARK  status: ('A' for Active; 'I' for Inactive)
REMARK    4  A    between atoms: CA   and  CB  
REMARK    5  A    between atoms: CB   and  CG  
REMARK    6  A    between atoms: CZ   and  OH  
ROOT
ATOM     13  CA  TYR A 338     -41.631 124.950   6.058  1.00 38.23     0.164 C 
ENDROOT
BRANCH  13  14
ATOM     14  CB  TYR A 338     -41.621 126.456   6.339  1.00 39.15     0.058 C 
BRANCH  14  15
ATOM     15  CG  TYR A 338     -40.423 127.214   5.814  1.00 39.03    -0.020 A 
ATOM     16  CD2 TYR A 338     -40.266 128.559   6.097  1.00 40.65    -0.002 A 
ATOM     17  CE2 TYR A 338     -39.188 129.289   5.619  1.00 40.91     0.024 A 
ATOM     18  CZ  TYR A 338     -38.235 128.669   4.834  1.00 42.33     0.089 A 
ATOM     19  CE1 TYR A 338     -38.367 127.323   4.540  1.00 40.63     0.024 A 
ATOM     20  CD1 TYR A 338     -39.459 126.615   5.017  1.00 39.27    -0.002 A 
BRANCH  18  21
ATOM     21  OH  TYR A 338     -37.165 129.377   4.361  1.00 43.36    -0.359 OA
ATOM     22  HH  TYR A 338     -36.494 129.689   4.956  1.00  0.00     0.217 HD
ENDBRANCH  18  21
ENDBRANCH  14  15
ENDBRANCH  13  14
END_RES TYR A 338
ENDMDL
MODEL 4
REMARK VINA RESULT:    -6.563      1.369      1.850
REMARK INTER + INTRA:          -9.886
REMARK INTER:                  -7.248
REMARK INTRA:                  -2.638
REMARK UNBOUND:                -3.323
REMARK  0 active torsions:
REMARK  status: ('A' for Active; 'I' for Inactive)
REMARK       I    between atoms: C3_3  and  O3_21 
REMARK       I    between atoms: C6_6  and  C7_7 
REMARK       I    between atoms: C8_8  and  C9_9 
REMARK       I    between atoms: C10_10  and  C11_11 
REMARK       I    between atoms: C12_12  and  C13_13 
REMARK       I    between atoms: C14_14  and  C15_15 
REMARK       I    between atoms: C23_25  and  O23_43 
REMARK       I    between atoms: C26_28  and  C27_29 
REMARK       I    between atoms: C28_30  and  C29_31 
REMARK       I    between atoms: C30_32  and  C31_33 
REMARK       I    between atoms: C32_34  and  C33_35 
REMARK       I    between atoms: C34_36  and  C35_37 
ROOT
HETATM    1  C1  VFQ D3621     -49.487 146.452  10.851  1.00 23.41    -0.018 C 
HETATM    2  C2  VFQ D3621     -50.610 146.959  11.773  1.00 23.79     0.045 C 
HETATM    3  C3  VFQ D3621     -50.276 147.656  13.089  1.00 23.28     0.123 C 
HETATM    4  C4  VFQ D3621     -48.845 148.214  13.158  1.00 23.70     0.066 C 
HETATM    5  C5  VFQ D3621     -47.777 147.711  12.230  1.00 23.84    -0.074 C 
HETATM    6  C6  VFQ D3621     -48.025 146.896  11.143  1.00 22.99    -0.048 C 
HETATM    7  C7  VFQ D3621     -46.988 146.393  10.204  1.00 20.55     0.009 C 
HETATM    8  C8  VFQ D3621     -46.187 145.331  10.436  1.00 19.35     0.007 C 
HETATM    9  C9  VFQ D3621     -45.100 144.774   9.628  1.00 18.45    -0.062 C 
HETATM   10  C10 VFQ D3621     -44.548 143.613  10.046  1.00 18.11     0.007 C 
HETATM   11  C11 VFQ D3621     -43.541 142.843   9.373  1.00 18.44     0.001 C 
HETATM   12  C12 VFQ D3621     -43.113 141.647   9.840  1.00 19.34     0.007 C 
HETATM   13  C13 VFQ D3621     -42.162 140.744   9.165  1.00 20.12    -0.062 C 
HETATM   14  C14 VFQ D3621     -41.860 139.564   9.759  1.00 19.73     0.007 C 
HETATM   15  C15 VFQ D3621     -40.993 138.509   9.242  1.00 19.24     0.001 C 
HETATM   16  C16 VFQ D3621     -49.949 146.980   9.488  1.00 23.73     0.020 C 
HETATM   17  C17 VFQ D3621     -49.573 144.921  10.819  1.00 23.42     0.020 C 
HETATM   18  C18 VFQ D3621     -46.463 148.257  12.657  1.00 22.78     0.044 C 
HETATM   19  C19 VFQ D3621     -44.731 145.483   8.361  1.00 16.12     0.048 C 
HETATM   20  C20 VFQ D3621     -41.613 141.195   7.840  1.00 17.75     0.048 C 
HETATM   21  O3  VFQ D3621     -51.225 148.679  13.356  1.00 21.52    -0.395 OA
ATOM     22  H3  VFQ D3621     -51.017 149.114  14.174  1.00  0.00     0.210 HD
HETATM   23  C21 VFQ D3621     -33.895 127.659   7.355  1.00 38.90    -0.018 C 
HETATM   24  C22 VFQ D3621     -32.829 127.047   6.449  1.00 38.90     0.045 C 
HETATM   25  C23 VFQ D3621     -32.239 127.987   5.401  1.00 38.90     0.123 C 
HETATM   26  C24 VFQ D3621     -33.187 129.139   5.133  1.00 38.90     0.066 C 
HETATM   27  C25 VFQ D3621     -33.333 129.861   6.440  1.00 38.90    -0.074 C 
HETATM   28  C26 VFQ D3621     -33.774 129.159   7.488  1.00 38.90    -0.048 C 
HETATM   29  C27 VFQ D3621     -34.350 129.827   8.668  1.00 38.90     0.009 C 
HETATM   30  C28 VFQ D3621     -35.239 130.765   8.347  1.00 38.90     0.007 C 
HETATM   31  C29 VFQ D3621     -36.110 131.450   9.362  1.00 21.21    -0.062 C 
HETATM   32  C30 VFQ D3621     -36.939 132.426   8.921  1.00 20.08     0.007 C 
HETATM   33  C31 VFQ D3621     -37.842 133.211   9.732  1.00 17.89     0.001 C 
HETATM   34  C32 VFQ D3621     -38.488 134.309   9.268  1.00 17.64     0.007 C 
HETATM   35  C33 VFQ D3621     -39.390 135.225  10.008  1.00 17.45    -0.062 C 
HETATM   36  C34 VFQ D3621     -39.832 136.335   9.369  1.00 15.95     0.007 C 
HETATM   37  C35 VFQ D3621     -40.680 137.384   9.914  1.00 18.41     0.001 C 
HETATM   38  C36 VFQ D3621     -33.830 127.025   8.738  1.00 38.90     0.020 C 
HETATM   39  C37 VFQ D3621     -35.270 127.399   6.744  1.00 38.90     0.020 C 
HETATM   40  C38 VFQ D3621     -32.849 131.289   6.539  1.00 38.90     0.044 C 
HETATM   41  C39 VFQ D3621     -35.952 131.077  10.812  1.00 22.05     0.048 C 
HETATM   42  C40 VFQ D3621     -39.691 134.893  11.448  1.00 11.49     0.048 C 
HETATM   43  O23 VFQ D3621     -32.013 127.279   4.179  1.00 38.90    -0.395 OA
ATOM     44  H23 VFQ D3621     -31.646 127.865   3.526  1.00  0.00     0.210 HD
ENDROOT
TORSDOF 12
BEGIN_RES PHE A  61
REMARK  2 active torsions:
REMARK  status: ('A' for Active; 'I' for Inactive)
REMARK    1  A    between atoms: CA   and  CB  
REMARK    2  A    between atoms: CB   and  CG  
ROOT
ATOM      1  CA  PHE A  61     -36.237 128.293  12.768  1.00 39.40     0.164 C 
ENDROOT
BRANCH   1   2
ATOM      2  CB  PHE A  61     -36.813 128.951  11.509  1.00 39.41     0.058 C 
BRANCH   2   3
ATOM      3  CG  PHE A  61     -37.062 127.998  10.365  1.00 39.01    -0.020 A 
ATOM      4  CD2 PHE A  61     -37.976 128.304   9.369  1.00 40.32    -0.004 A 
ATOM      5  CE2 PHE A  61     -38.206 127.424   8.319  1.00 40.20    -0.000 A 
ATOM      6  CZ  PHE A  61     -37.523 126.232   8.250  1.00 40.34    -0.000 A 
ATOM      7  CE1 PHE A  61     -36.609 125.914   9.230  1.00 41.51    -0.000 A 
ATOM      8  CD1 PHE A  61     -36.384 126.790  10.284  1.00 39.94    -0.004 A 
ENDBRANCH   2   3
ENDBRANCH   1   2
END_RES PHE A  61
BEGIN_RES VAL A 134
REMARK  1 active torsions:
REMARK  status: ('A' for Active; 'I' for Inactive)
REMARK    3  A    between atoms: CA   and  CB  
ROOT
ATOM      9  CA  VAL A 134     -29.766 132.051   9.815  1.00 40.75     0.159 C 
ENDROOT
BRANCH   9  10
ATOM     10  CB  VAL A 134     -30.864 132.765   9.009  1.00 40.76     0.029 C 
ATOM     11  CG1 VAL A 134     -30.878 132.276   7.568  1.00 41.76     0.002 C 
ATOM     12  CG2 VAL A 134     -32.232 132.594   9.651  1.00 40.56     0.002 C 
ENDBRANCH   9  10
END_RES VAL A 134
BEGIN_RES TYR A 338
REMARK  3 active torsions:
REMARK  status: ('A' for Active; 'I' for Inactive)
REMARK    4  A    between atoms: CA   and  CB  
REMARK    5  A    between atoms: CB   and  CG  
REMARK    6  A    between atoms: CZ   and  OH  
ROOT
ATOM     13  CA  TYR A 338     -41.631 124.950   6.058  1.00 38.23     0.164 C 
ENDROOT
BRANCH  13  14
ATOM     14  CB  TYR A 338     -41.621 126.456   6.339  1.00 39.15     0.058 C 
BRANCH  14  15
ATOM     15  CG  TYR A 338     -40.397 127.204   5.863  1.00 39.03    -0.020 A 
ATOM     16  CD2 TYR A 338     -40.227 128.542   6.178  1.00 40.65    -0.002 A 
ATOM     17  CE2 TYR A 338     -39.125 129.263   5.745  1.00 40.91     0.024 A 
ATOM     18  CZ  TYR A 338     -38.159 128.643   4.974  1.00 42.33     0.089 A 
ATOM     19  CE1 TYR A 338     -38.304 127.306   4.651  1.00 40.63     0.024 A 
ATOM     20  CD1 TYR A 338     -39.420 126.606   5.082  1.00 39.27    -0.002 A 
BRANCH  18  21
ATOM     21  OH  TYR A 338     -37.066 129.343   4.546  1.00 43.36    -0.359 OA
ATOM     22  HH  TYR A 338     -37.171 130.106   3.990  1.00  0.00     0.217 HD
ENDBRANCH  18  21
ENDBRANCH  14  15
ENDBRANCH  13  14
END_RES TYR A 338
ENDMDL
