MODEL 1
REMARK VINA RESULT:    -8.621      0.000      0.000
REMARK INTER + INTRA:         -11.781
REMARK INTER:                  -8.621
REMARK INTRA:                  -3.161
REMARK UNBOUND:                -3.161
REMARK  0 active torsions:
REMARK  status: ('A' for Active; 'I' for Inactive)
REMARK       I    between atoms: C3_3  and  O3_21 
REMARK       I    between atoms: C6_6  and  C7_7 
REMARK       I    between atoms: C8_8  and  C9_9 
REMARK       I    between atoms: C10_10  and  C11_11 
REMARK       I    between atoms: C12_12  and  C13_13 
REMARK       I    between atoms: C14_14  and  C15_15 
REMARK       I    between atoms: C23_25  and  O23_43 
REMARK       I    between atoms: C26_28  and  C27_29 
REMARK       I    between atoms: C28_30  and  C29_31 
REMARK       I    between atoms: C30_32  and  C31_33 
REMARK       I    between atoms: C32_34  and  C33_35 
REMARK       I    between atoms: C34_36  and  C35_37 
ROOT
HETATM    1  C1  VFQ 9 616     -34.409 127.678   6.322  1.00 62.55    -0.018 C 
HETATM    2  C2  VFQ 9 616     -33.746 127.297   5.000  1.00 62.55     0.045 C 
HETATM    3  C3  VFQ 9 616     -32.355 127.850   4.706  1.00 62.55     0.123 C 
HETATM    4  C4  VFQ 9 616     -31.540 127.991   5.977  1.00 62.55     0.066 C 
HETATM    5  C5  VFQ 9 616     -32.311 128.905   6.890  1.00 62.55    -0.074 C 
HETATM    6  C6  VFQ 9 616     -33.606 128.679   7.138  1.00 62.55    -0.048 C 
HETATM    7  C7  VFQ 9 616     -34.269 129.400   8.248  1.00 62.55     0.009 C 
HETATM    8  C8  VFQ 9 616     -34.869 130.572   8.054  1.00 62.55     0.007 C 
HETATM    9  C9  VFQ 9 616     -35.522 131.296   9.151  1.00 62.55    -0.062 C 
HETATM   10  C10 VFQ 9 616     -36.244 132.369   8.823  1.00 62.55     0.007 C 
HETATM   11  C11 VFQ 9 616     -36.949 133.217   9.773  1.00 62.55     0.001 C 
HETATM   12  C12 VFQ 9 616     -37.733 134.118   9.199  1.00 62.55     0.007 C 
HETATM   13  C13 VFQ 9 616     -38.540 135.111   9.909  1.00 62.55    -0.062 C 
HETATM   14  C14 VFQ 9 616     -39.281 135.964   9.177  1.00 62.55     0.007 C 
HETATM   15  C15 VFQ 9 616     -40.144 137.011   9.720  1.00 62.55     0.001 C 
HETATM   16  C16 VFQ 9 616     -34.658 126.384   7.100  1.00 62.55     0.020 C 
HETATM   17  C17 VFQ 9 616     -35.754 128.318   6.012  1.00 62.55     0.020 C 
HETATM   18  C18 VFQ 9 616     -31.438 129.649   7.861  1.00 62.55     0.044 C 
HETATM   19  C19 VFQ 9 616     -35.372 130.840  10.570  1.00 62.55     0.048 C 
HETATM   20  C20 VFQ 9 616     -38.485 135.131  11.398  1.00 62.55     0.048 C 
HETATM   21  O3  VFQ 9 616     -31.676 126.964   3.808  1.00 62.55    -0.395 OA
ATOM     22  H3  VFQ 9 616     -30.810 127.308   3.625  1.00  0.00     0.210 HD
HETATM   23  C21 VFQ 9 616     -49.445 145.385  10.511  1.00 43.24    -0.018 C 
HETATM   24  C22 VFQ 9 616     -50.313 146.481  11.133  1.00 43.24     0.045 C 
HETATM   25  C23 VFQ 9 616     -49.748 147.898  11.215  1.00 43.24     0.123 C 
HETATM   26  C24 VFQ 9 616     -48.234 147.914  11.298  1.00 43.24     0.066 C 
HETATM   27  C25 VFQ 9 616     -47.677 147.114  10.154  1.00 43.24    -0.074 C 
HETATM   28  C26 VFQ 9 616     -48.158 145.896   9.877  1.00 43.24    -0.048 C 
HETATM   29  C27 VFQ 9 616     -47.418 145.038   8.918  1.00 43.24     0.009 C 
HETATM   30  C28 VFQ 9 616     -46.476 144.192   9.339  1.00 43.24     0.007 C 
HETATM   31  C29 VFQ 9 616     -45.691 143.328   8.439  1.00 62.55    -0.062 C 
HETATM   32  C30 VFQ 9 616     -44.982 142.333   8.996  1.00 62.55     0.007 C 
HETATM   33  C31 VFQ 9 616     -44.164 141.368   8.266  1.00 62.55     0.001 C 
HETATM   34  C32 VFQ 9 616     -43.429 140.547   9.017  1.00 62.55     0.007 C 
HETATM   35  C33 VFQ 9 616     -42.540 139.496   8.488  1.00 62.55    -0.062 C 
HETATM   36  C34 VFQ 9 616     -41.796 138.770   9.342  1.00 62.55     0.007 C 
HETATM   37  C35 VFQ 9 616     -40.900 137.711   8.871  1.00 62.55     0.001 C 
HETATM   38  C36 VFQ 9 616     -50.245 144.690   9.418  1.00 43.24     0.020 C 
HETATM   39  C37 VFQ 9 616     -49.166 144.365  11.609  1.00 43.24     0.020 C 
HETATM   40  C38 VFQ 9 616     -46.585 147.744   9.336  1.00 43.24     0.044 C 
HETATM   41  C39 VFQ 9 616     -45.691 143.546   6.956  1.00 62.55     0.048 C 
HETATM   42  C40 VFQ 9 616     -42.485 139.247   7.012  1.00 62.55     0.048 C 
HETATM   43  O23 VFQ 9 616     -50.268 148.540  12.382  1.00 43.24    -0.395 OA
ATOM     44  H23 VFQ 9 616     -49.916 149.420  12.433  1.00  0.00     0.210 HD
ENDROOT
TORSDOF 12
BEGIN_RES PHE A  61
REMARK  2 active torsions:
REMARK  status: ('A' for Active; 'I' for Inactive)
REMARK    1  A    between atoms: CA   and  CB  
REMARK    2  A    between atoms: CB   and  CG  
ROOT
ATOM      1  CA  PHE A  61     -36.237 128.293  12.768  1.00 39.40     0.164 C 
ENDROOT
BRANCH   1   2
ATOM      2  CB  PHE A  61     -36.813 128.951  11.509  1.00 39.41     0.058 C 
BRANCH   2   3
ATOM      3  CG  PHE A  61     -36.998 128.010  10.342  1.00 39.01    -0.020 A 
ATOM      4  CD2 PHE A  61     -36.203 126.884  10.203  1.00 40.32    -0.004 A 
ATOM      5  CE2 PHE A  61     -36.372 126.021   9.128  1.00 40.20    -0.000 A 
ATOM      6  CZ  PHE A  61     -37.341 126.272   8.182  1.00 40.34    -0.000 A 
ATOM      7  CE1 PHE A  61     -38.141 127.386   8.308  1.00 41.51    -0.000 A 
ATOM      8  CD1 PHE A  61     -37.967 128.253   9.379  1.00 39.94    -0.004 A 
ENDBRANCH   2   3
ENDBRANCH   1   2
END_RES PHE A  61
BEGIN_RES VAL A 134
REMARK  1 active torsions:
REMARK  status: ('A' for Active; 'I' for Inactive)
REMARK    3  A    between atoms: CA   and  CB  
ROOT
ATOM      9  CA  VAL A 134     -29.766 132.051   9.815  1.00 40.75     0.159 C 
ENDROOT
BRANCH   9  10
ATOM     10  CB  VAL A 134     -30.864 132.765   9.009  1.00 40.76     0.029 C 
ATOM     11  CG1 VAL A 134     -30.883 132.271   7.570  1.00 41.76     0.002 C 
ATOM     12  CG2 VAL A 134     -32.231 132.601   9.655  1.00 40.56     0.002 C 
ENDBRANCH   9  10
END_RES VAL A 134
BEGIN_RES TYR A 338
REMARK  3 active torsions:
REMARK  status: ('A' for Active; 'I' for Inactive)
REMARK    4  A    between atoms: CA   and  CB  
REMARK    5  A    between atoms: CB   and  CG  
REMARK    6  A    between atoms: CZ   and  OH  
ROOT
ATOM     13  CA  TYR A 338     -41.631 124.950   6.058  1.00 38.23     0.164 C 
ENDROOT
BRANCH  13  14
ATOM     14  CB  TYR A 338     -41.621 126.456   6.339  1.00 39.15     0.058 C 
BRANCH  14  15
ATOM     15  CG  TYR A 338     -40.434 127.217   5.795  1.00 39.03    -0.020 A 
ATOM     16  CD2 TYR A 338     -40.276 128.563   6.076  1.00 40.65    -0.002 A 
ATOM     17  CE2 TYR A 338     -39.208 129.296   5.582  1.00 40.91     0.024 A 
ATOM     18  CZ  TYR A 338     -38.265 128.679   4.782  1.00 42.33     0.089 A 
ATOM     19  CE1 TYR A 338     -38.398 127.333   4.491  1.00 40.63     0.024 A 
ATOM     20  CD1 TYR A 338     -39.480 126.621   4.984  1.00 39.27    -0.002 A 
BRANCH  18  21
ATOM     21  OH  TYR A 338     -37.205 129.390   4.292  1.00 43.36    -0.359 OA
ATOM     22  HH  TYR A 338     -36.618 129.001   3.655  1.00  0.00     0.217 HD
ENDBRANCH  18  21
ENDBRANCH  14  15
ENDBRANCH  13  14
END_RES TYR A 338
ENDMDL
MODEL 2
REMARK VINA RESULT:    -5.661      1.454     16.802
REMARK INTER + INTRA:          -8.822
REMARK INTER:                  -5.560
REMARK INTRA:                  -3.262
REMARK UNBOUND:                -3.161
REMARK  0 active torsions:
REMARK  status: ('A' for Active; 'I' for Inactive)
REMARK       I    between atoms: C3_3  and  O3_21 
REMARK       I    between atoms: C6_6  and  C7_7 
REMARK       I    between atoms: C8_8  and  C9_9 
REMARK       I    between atoms: C10_10  and  C11_11 
REMARK       I    between atoms: C12_12  and  C13_13 
REMARK       I    between atoms: C14_14  and  C15_15 
REMARK       I    between atoms: C23_25  and  O23_43 
REMARK       I    between atoms: C26_28  and  C27_29 
REMARK       I    between atoms: C28_30  and  C29_31 
REMARK       I    between atoms: C30_32  and  C31_33 
REMARK       I    between atoms: C32_34  and  C33_35 
REMARK       I    between atoms: C34_36  and  C35_37 
ROOT
HETATM    1  C1  VFQ 9 616     -49.352 145.602  12.885  1.00 62.55    -0.018 C 
HETATM    2  C2  VFQ 9 616     -49.909 145.880  14.280  1.00 62.55     0.045 C 
HETATM    3  C3  VFQ 9 616     -49.179 146.893  15.157  1.00 62.55     0.123 C 
HETATM    4  C4  VFQ 9 616     -48.567 148.002  14.324  1.00 62.55     0.066 C 
HETATM    5  C5  VFQ 9 616     -47.628 147.347  13.347  1.00 62.55    -0.074 C 
HETATM    6  C6  VFQ 9 616     -48.041 146.317  12.601  1.00 62.55    -0.048 C 
HETATM    7  C7  VFQ 9 616     -47.214 145.875  11.454  1.00 62.55     0.009 C 
HETATM    8  C8  VFQ 9 616     -46.272 144.947  11.594  1.00 62.55     0.007 C 
HETATM    9  C9  VFQ 9 616     -45.444 144.510  10.463  1.00 62.55    -0.062 C 
HETATM   10  C10 VFQ 9 616     -44.653 143.454  10.665  1.00 62.55     0.007 C 
HETATM   11  C11 VFQ 9 616     -43.754 142.889   9.669  1.00 62.55     0.001 C 
HETATM   12  C12 VFQ 9 616     -43.199 141.746  10.044  1.00 62.55     0.007 C 
HETATM   13  C13 VFQ 9 616     -42.244 140.970   9.252  1.00 62.55    -0.062 C 
HETATM   14  C14 VFQ 9 616     -41.764 139.828   9.780  1.00 62.55     0.007 C 
HETATM   15  C15 VFQ 9 616     -40.810 138.934   9.129  1.00 62.55     0.001 C 
HETATM   16  C16 VFQ 9 616     -50.435 145.983  11.874  1.00 62.55     0.020 C 
HETATM   17  C17 VFQ 9 616     -49.092 144.107  12.767  1.00 62.55     0.020 C 
HETATM   18  C18 VFQ 9 616     -46.509 148.245  12.906  1.00 62.55     0.044 C 
HETATM   19  C19 VFQ 9 616     -45.495 145.229   9.151  1.00 62.55     0.048 C 
HETATM   20  C20 VFQ 9 616     -41.844 141.495   7.916  1.00 62.55     0.048 C 
HETATM   21  O3  VFQ 9 616     -50.106 147.462  16.089  1.00 62.55    -0.395 OA
ATOM     22  H3  VFQ 9 616     -49.652 148.092  16.636  1.00  0.00     0.210 HD
HETATM   23  C21 VFQ 9 616     -34.536 128.459   6.268  1.00 43.24    -0.018 C 
HETATM   24  C22 VFQ 9 616     -33.516 127.572   5.550  1.00 43.24     0.045 C 
HETATM   25  C23 VFQ 9 616     -32.040 127.721   5.913  1.00 43.24     0.123 C 
HETATM   26  C24 VFQ 9 616     -31.702 129.114   6.406  1.00 43.24     0.066 C 
HETATM   27  C25 VFQ 9 616     -32.632 129.469   7.531  1.00 43.24    -0.074 C 
HETATM   28  C26 VFQ 9 616     -33.951 129.280   7.409  1.00 43.24    -0.048 C 
HETATM   29  C27 VFQ 9 616     -34.855 129.877   8.426  1.00 43.24     0.009 C 
HETATM   30  C28 VFQ 9 616     -35.364 131.099   8.258  1.00 43.24     0.007 C 
HETATM   31  C29 VFQ 9 616     -36.249 131.757   9.235  1.00 62.55    -0.062 C 
HETATM   32  C30 VFQ 9 616     -36.912 132.853   8.832  1.00 62.55     0.007 C 
HETATM   33  C31 VFQ 9 616     -37.844 133.624   9.650  1.00 62.55     0.001 C 
HETATM   34  C32 VFQ 9 616     -38.290 134.758   9.108  1.00 62.55     0.007 C 
HETATM   35  C33 VFQ 9 616     -39.239 135.682   9.756  1.00 62.55    -0.062 C 
HETATM   36  C34 VFQ 9 616     -39.567 136.832   9.138  1.00 62.55     0.007 C 
HETATM   37  C35 VFQ 9 616     -40.508 137.782   9.733  1.00 62.55     0.001 C 
HETATM   38  C36 VFQ 9 616     -35.626 127.574   6.855  1.00 43.24     0.020 C 
HETATM   39  C37 VFQ 9 616     -35.175 129.347   5.205  1.00 43.24     0.020 C 
HETATM   40  C38 VFQ 9 616     -32.019 130.021   8.788  1.00 43.24     0.044 C 
HETATM   41  C39 VFQ 9 616     -36.410 131.219  10.625  1.00 62.55     0.048 C 
HETATM   42  C40 VFQ 9 616     -39.830 135.324  11.085  1.00 62.55     0.048 C 
HETATM   43  O23 VFQ 9 616     -31.246 127.449   4.755  1.00 43.24    -0.395 OA
ATOM     44  H23 VFQ 9 616     -30.329 127.542   4.981  1.00  0.00     0.210 HD
ENDROOT
TORSDOF 12
BEGIN_RES PHE A  61
REMARK  2 active torsions:
REMARK  status: ('A' for Active; 'I' for Inactive)
REMARK    1  A    between atoms: CA   and  CB  
REMARK    2  A    between atoms: CB   and  CG  
ROOT
ATOM      1  CA  PHE A  61     -36.237 128.293  12.768  1.00 39.40     0.164 C 
ENDROOT
BRANCH   1   2
ATOM      2  CB  PHE A  61     -36.813 128.951  11.509  1.00 39.41     0.058 C 
BRANCH   2   3
ATOM      3  CG  PHE A  61     -37.009 128.008  10.346  1.00 39.01    -0.020 A 
ATOM      4  CD2 PHE A  61     -36.140 126.949  10.135  1.00 40.32    -0.004 A 
ATOM      5  CE2 PHE A  61     -36.320 126.084   9.062  1.00 40.20    -0.000 A 
ATOM      6  CZ  PHE A  61     -37.370 126.266   8.192  1.00 40.34    -0.000 A 
ATOM      7  CE1 PHE A  61     -38.244 127.312   8.390  1.00 41.51    -0.000 A 
ATOM      8  CD1 PHE A  61     -38.061 128.181   9.458  1.00 39.94    -0.004 A 
ENDBRANCH   2   3
ENDBRANCH   1   2
END_RES PHE A  61
BEGIN_RES VAL A 134
REMARK  1 active torsions:
REMARK  status: ('A' for Active; 'I' for Inactive)
REMARK    3  A    between atoms: CA   and  CB  
ROOT
ATOM      9  CA  VAL A 134     -29.766 132.051   9.815  1.00 40.75     0.159 C 
ENDROOT
BRANCH   9  10
ATOM     10  CB  VAL A 134     -30.864 132.765   9.009  1.00 40.76     0.029 C 
ATOM     11  CG1 VAL A 134     -30.878 132.276   7.568  1.00 41.76     0.002 C 
ATOM     12  CG2 VAL A 134     -32.232 132.594   9.651  1.00 40.56     0.002 C 
ENDBRANCH   9  10
END_RES VAL A 134
BEGIN_RES TYR A 338
REMARK  3 active torsions:
REMARK  status: ('A' for Active; 'I' for Inactive)
REMARK    4  A    between atoms: CA   and  CB  
REMARK    5  A    between atoms: CB   and  CG  
REMARK    6  A    between atoms: CZ   and  OH  
ROOT
ATOM     13  CA  TYR A 338     -41.631 124.950   6.058  1.00 38.23     0.164 C 
ENDROOT
BRANCH  13  14
ATOM     14  CB  TYR A 338     -41.621 126.456   6.339  1.00 39.15     0.058 C 
BRANCH  14  15
ATOM     15  CG  TYR A 338     -40.429 127.216   5.803  1.00 39.03    -0.020 A 
ATOM     16  CD2 TYR A 338     -40.267 128.560   6.092  1.00 40.65    -0.002 A 
ATOM     17  CE2 TYR A 338     -39.195 129.291   5.604  1.00 40.91     0.024 A 
ATOM     18  CZ  TYR A 338     -38.252 128.675   4.803  1.00 42.33     0.089 A 
ATOM     19  CE1 TYR A 338     -38.390 127.331   4.503  1.00 40.63     0.024 A 
ATOM     20  CD1 TYR A 338     -39.477 126.621   4.990  1.00 39.27    -0.002 A 
BRANCH  18  21
ATOM     21  OH  TYR A 338     -37.189 129.385   4.320  1.00 43.36    -0.359 OA
ATOM     22  HH  TYR A 338     -36.313 129.019   4.349  1.00  0.00     0.217 HD
ENDBRANCH  18  21
ENDBRANCH  14  15
ENDBRANCH  13  14
END_RES TYR A 338
ENDMDL
