MODEL 1
REMARK VINA RESULT:   -10.929      0.000      0.000
REMARK INTER + INTRA:         -11.396
REMARK INTER:                 -10.929
REMARK INTRA:                  -0.467
REMARK UNBOUND:                -0.467
REMARK  0 active torsions:
REMARK  status: ('A' for Active; 'I' for Inactive)
REMARK       I    between atoms: C3_3  and  O3_21 
REMARK       I    between atoms: C6_6  and  C7_7 
REMARK       I    between atoms: C8_8  and  C9_9 
REMARK       I    between atoms: C10_10  and  C11_11 
REMARK       I    between atoms: C12_12  and  C13_13 
REMARK       I    between atoms: C14_14  and  C15_15 
REMARK       I    between atoms: C23_25  and  O23_43 
REMARK       I    between atoms: C26_28  and  C27_29 
REMARK       I    between atoms: C28_30  and  C29_31 
REMARK       I    between atoms: C30_32  and  C31_33 
REMARK       I    between atoms: C32_34  and  C33_35 
REMARK       I    between atoms: C34_36  and  C35_37 
ROOT
HETATM    1  C1  VFQ 51621     -34.206 128.348   6.993  1.00 87.69    -0.018 C 
HETATM    2  C2  VFQ 51621     -33.495 127.950   5.713  1.00 87.69     0.045 C 
HETATM    3  C3  VFQ 51621     -31.971 127.995   5.736  1.00 87.69     0.123 C 
HETATM    4  C4  VFQ 51621     -31.366 129.025   6.680  1.00 87.69     0.066 C 
HETATM    5  C5  VFQ 51621     -32.378 129.983   7.252  1.00 87.69    -0.074 C 
HETATM    6  C6  VFQ 51621     -33.595 129.578   7.607  1.00 87.69    -0.048 C 
HETATM    7  C7  VFQ 51621     -34.367 130.303   8.643  1.00 87.69     0.009 C 
HETATM    8  C8  VFQ 51621     -35.055 131.398   8.340  1.00 87.69     0.007 C 
HETATM    9  C9  VFQ 51621     -35.850 132.133   9.335  1.00 87.69    -0.062 C 
HETATM   10  C10 VFQ 51621     -36.739 133.002   8.864  1.00 87.69     0.007 C 
HETATM   11  C11 VFQ 51621     -37.643 133.820   9.657  1.00 87.69     0.001 C 
HETATM   12  C12 VFQ 51621     -38.262 134.788   8.991  1.00 87.69     0.007 C 
HETATM   13  C13 VFQ 51621     -39.247 135.683   9.615  1.00 87.69    -0.062 C 
HETATM   14  C14 VFQ 51621     -39.891 136.549   8.829  1.00 87.69     0.007 C 
HETATM   15  C15 VFQ 51621     -40.918 137.432   9.355  1.00 87.69     0.001 C 
HETATM   16  C16 VFQ 51621     -34.235 127.187   7.982  1.00 87.69     0.020 C 
HETATM   17  C17 VFQ 51621     -35.633 128.688   6.622  1.00 87.69     0.020 C 
HETATM   18  C18 VFQ 51621     -31.539 130.817   8.169  1.00 87.69     0.044 C 
HETATM   19  C19 VFQ 51621     -35.662 131.917  10.802  1.00 87.69     0.048 C 
HETATM   20  C20 VFQ 51621     -39.541 135.606  11.080  1.00 87.69     0.048 C 
HETATM   21  O3  VFQ 51621     -31.517 126.705   6.139  1.00 87.69    -0.395 OA
ATOM     22  H3  VFQ 51621     -30.567 126.732   6.152  1.00  0.00     0.210 HD
HETATM   23  C21 VFQ 51621     -50.666 145.398   9.711  1.00 94.67    -0.018 C 
HETATM   24  C22 VFQ 51621     -51.793 146.200  10.349  1.00 94.67     0.045 C 
HETATM   25  C23 VFQ 51621     -51.383 147.302  11.303  1.00 94.67     0.123 C 
HETATM   26  C24 VFQ 51621     -50.295 146.787  12.207  1.00 94.67     0.066 C 
HETATM   27  C25 VFQ 51621     -49.112 146.374  11.389  1.00 94.67    -0.074 C 
HETATM   28  C26 VFQ 51621     -49.280 145.719  10.238  1.00 94.67    -0.048 C 
HETATM   29  C27 VFQ 51621     -48.112 145.296   9.428  1.00 94.67     0.009 C 
HETATM   30  C28 VFQ 51621     -47.523 144.119   9.632  1.00 94.67     0.007 C 
HETATM   31  C29 VFQ 51621     -46.386 143.658   8.844  1.00 87.69    -0.062 C 
HETATM   32  C30 VFQ 51621     -46.052 142.379   8.972  1.00 87.69     0.007 C 
HETATM   33  C31 VFQ 51621     -44.968 141.741   8.250  1.00 87.69     0.001 C 
HETATM   34  C32 VFQ 51621     -44.295 140.825   8.925  1.00 87.69     0.007 C 
HETATM   35  C33 VFQ 51621     -43.194 140.063   8.332  1.00 87.69    -0.062 C 
HETATM   36  C34 VFQ 51621     -42.607 139.109   9.061  1.00 87.69     0.007 C 
HETATM   37  C35 VFQ 51621     -41.540 138.270   8.537  1.00 87.69     0.001 C 
HETATM   38  C36 VFQ 51621     -50.663 145.712   8.222  1.00 94.67     0.020 C 
HETATM   39  C37 VFQ 51621     -51.015 143.930   9.936  1.00 94.67     0.020 C 
HETATM   40  C38 VFQ 51621     -47.763 146.742  11.932  1.00 94.67     0.044 C 
HETATM   41  C39 VFQ 51621     -45.650 144.580   7.929  1.00 87.69     0.048 C 
HETATM   42  C40 VFQ 51621     -42.777 140.354   6.932  1.00 87.69     0.048 C 
HETATM   43  O23 VFQ 51621     -52.507 147.647  12.112  1.00 94.67    -0.395 OA
ATOM     44  H23 VFQ 51621     -53.193 147.972  11.541  1.00  0.00     0.210 HD
ENDROOT
TORSDOF 12
BEGIN_RES PHE A  61
REMARK  2 active torsions:
REMARK  status: ('A' for Active; 'I' for Inactive)
REMARK    1  A    between atoms: CA   and  CB  
REMARK    2  A    between atoms: CB   and  CG  
ROOT
ATOM      1  CA  PHE A  61     -36.237 128.293  12.768  1.00 39.40     0.164 C 
ENDROOT
BRANCH   1   2
ATOM      2  CB  PHE A  61     -36.813 128.951  11.509  1.00 39.41     0.058 C 
BRANCH   2   3
ATOM      3  CG  PHE A  61     -37.024 128.005  10.351  1.00 39.01    -0.020 A 
ATOM      4  CD2 PHE A  61     -36.269 126.849  10.231  1.00 40.32    -0.004 A 
ATOM      5  CE2 PHE A  61     -36.462 125.981   9.163  1.00 40.20    -0.000 A 
ATOM      6  CZ  PHE A  61     -37.413 126.257   8.207  1.00 40.34    -0.000 A 
ATOM      7  CE1 PHE A  61     -38.172 127.401   8.314  1.00 41.51    -0.000 A 
ATOM      8  CD1 PHE A  61     -37.975 128.272   9.377  1.00 39.94    -0.004 A 
ENDBRANCH   2   3
ENDBRANCH   1   2
END_RES PHE A  61
BEGIN_RES VAL A 134
REMARK  1 active torsions:
REMARK  status: ('A' for Active; 'I' for Inactive)
REMARK    3  A    between atoms: CA   and  CB  
ROOT
ATOM      9  CA  VAL A 134     -29.766 132.051   9.815  1.00 40.75     0.159 C 
ENDROOT
BRANCH   9  10
ATOM     10  CB  VAL A 134     -30.864 132.765   9.009  1.00 40.76     0.029 C 
ATOM     11  CG1 VAL A 134     -32.105 132.979   9.863  1.00 41.76     0.002 C 
ATOM     12  CG2 VAL A 134     -30.370 134.083   8.433  1.00 40.56     0.002 C 
ENDBRANCH   9  10
END_RES VAL A 134
BEGIN_RES TYR A 338
REMARK  3 active torsions:
REMARK  status: ('A' for Active; 'I' for Inactive)
REMARK    4  A    between atoms: CA   and  CB  
REMARK    5  A    between atoms: CB   and  CG  
REMARK    6  A    between atoms: CZ   and  OH  
ROOT
ATOM     13  CA  TYR A 338     -41.631 124.950   6.058  1.00 38.23     0.164 C 
ENDROOT
BRANCH  13  14
ATOM     14  CB  TYR A 338     -41.621 126.456   6.339  1.00 39.15     0.058 C 
BRANCH  14  15
ATOM     15  CG  TYR A 338     -40.417 127.211   5.826  1.00 39.03    -0.020 A 
ATOM     16  CD2 TYR A 338     -40.264 128.559   6.104  1.00 40.65    -0.002 A 
ATOM     17  CE2 TYR A 338     -39.180 129.286   5.636  1.00 40.91     0.024 A 
ATOM     18  CZ  TYR A 338     -38.216 128.663   4.867  1.00 42.33     0.089 A 
ATOM     19  CE1 TYR A 338     -38.344 127.315   4.579  1.00 40.63     0.024 A 
ATOM     20  CD1 TYR A 338     -39.442 126.609   5.046  1.00 39.27    -0.002 A 
BRANCH  18  21
ATOM     21  OH  TYR A 338     -37.141 129.369   4.404  1.00 43.36    -0.359 OA
ATOM     22  HH  TYR A 338     -37.268 130.126   3.845  1.00  0.00     0.217 HD
ENDBRANCH  18  21
ENDBRANCH  14  15
ENDBRANCH  13  14
END_RES TYR A 338
ENDMDL
MODEL 2
REMARK VINA RESULT:   -10.423      2.004      2.479
REMARK INTER + INTRA:         -10.890
REMARK INTER:                  -7.883
REMARK INTRA:                  -3.007
REMARK UNBOUND:                -0.467
REMARK  0 active torsions:
REMARK  status: ('A' for Active; 'I' for Inactive)
REMARK       I    between atoms: C3_3  and  O3_21 
REMARK       I    between atoms: C6_6  and  C7_7 
REMARK       I    between atoms: C8_8  and  C9_9 
REMARK       I    between atoms: C10_10  and  C11_11 
REMARK       I    between atoms: C12_12  and  C13_13 
REMARK       I    between atoms: C14_14  and  C15_15 
REMARK       I    between atoms: C23_25  and  O23_43 
REMARK       I    between atoms: C26_28  and  C27_29 
REMARK       I    between atoms: C28_30  and  C29_31 
REMARK       I    between atoms: C30_32  and  C31_33 
REMARK       I    between atoms: C32_34  and  C33_35 
REMARK       I    between atoms: C34_36  and  C35_37 
ROOT
HETATM    1  C1  VFQ 51621     -34.678 127.826   5.938  1.00 87.69    -0.018 C 
HETATM    2  C2  VFQ 51621     -34.114 127.564   4.554  1.00 87.69     0.045 C 
HETATM    3  C3  VFQ 51621     -32.604 127.373   4.456  1.00 87.69     0.123 C 
HETATM    4  C4  VFQ 51621     -31.787 128.109   5.509  1.00 87.69     0.066 C 
HETATM    5  C5  VFQ 51621     -32.595 129.090   6.319  1.00 87.69    -0.074 C 
HETATM    6  C6  VFQ 51621     -33.840 128.817   6.700  1.00 87.69    -0.048 C 
HETATM    7  C7  VFQ 51621     -34.424 129.449   7.905  1.00 87.69     0.009 C 
HETATM    8  C8  VFQ 51621     -34.939 130.672   7.853  1.00 87.69     0.007 C 
HETATM    9  C9  VFQ 51621     -35.546 131.326   9.022  1.00 87.69    -0.062 C 
HETATM   10  C10 VFQ 51621     -36.305 132.390   8.782  1.00 87.69     0.007 C 
HETATM   11  C11 VFQ 51621     -37.018 133.178   9.777  1.00 87.69     0.001 C 
HETATM   12  C12 VFQ 51621     -37.505 134.333   9.340  1.00 87.69     0.007 C 
HETATM   13  C13 VFQ 51621     -38.293 135.239  10.188  1.00 87.69    -0.062 C 
HETATM   14  C14 VFQ 51621     -38.830 136.321   9.618  1.00 87.69     0.007 C 
HETATM   15  C15 VFQ 51621     -39.667 137.238  10.372  1.00 87.69     0.001 C 
HETATM   16  C16 VFQ 51621     -34.842 126.523   6.713  1.00 87.69     0.020 C 
HETATM   17  C17 VFQ 51621     -36.048 128.441   5.751  1.00 87.69     0.020 C 
HETATM   18  C18 VFQ 51621     -31.581 129.605   7.292  1.00 87.69     0.044 C 
HETATM   19  C19 VFQ 51621     -35.315 130.820  10.409  1.00 87.69     0.048 C 
HETATM   20  C20 VFQ 51621     -38.515 134.942  11.638  1.00 87.69     0.048 C 
HETATM   21  O3  VFQ 51621     -32.347 125.977   4.593  1.00 87.69    -0.395 OA
ATOM     22  H3  VFQ 51621     -31.406 125.857   4.532  1.00  0.00     0.210 HD
HETATM   23  C21 VFQ 51621     -47.940 146.392  12.899  1.00 94.67    -0.018 C 
HETATM   24  C22 VFQ 51621     -48.882 147.226  13.757  1.00 94.67     0.045 C 
HETATM   25  C23 VFQ 51621     -48.245 148.060  14.847  1.00 94.67     0.123 C 
HETATM   26  C24 VFQ 51621     -47.208 147.230  15.556  1.00 94.67     0.066 C 
HETATM   27  C25 VFQ 51621     -46.156 146.798  14.583  1.00 94.67    -0.074 C 
HETATM   28  C26 VFQ 51621     -46.493 146.397  13.355  1.00 94.67    -0.048 C 
HETATM   29  C27 VFQ 51621     -45.457 145.956  12.390  1.00 94.67     0.009 C 
HETATM   30  C28 VFQ 51621     -45.058 144.687  12.340  1.00 94.67     0.007 C 
HETATM   31  C29 VFQ 51621     -44.058 144.211  11.392  1.00 87.69    -0.062 C 
HETATM   32  C30 VFQ 51621     -43.932 142.893  11.271  1.00 87.69     0.007 C 
HETATM   33  C31 VFQ 51621     -43.009 142.241  10.363  1.00 87.69     0.001 C 
HETATM   34  C32 VFQ 51621     -42.459 141.125  10.813  1.00 87.69     0.007 C 
HETATM   35  C33 VFQ 51621     -41.533 140.326  10.008  1.00 87.69    -0.062 C 
HETATM   36  C34 VFQ 51621     -41.071 139.178  10.512  1.00 87.69     0.007 C 
HETATM   37  C35 VFQ 51621     -40.187 138.296   9.764  1.00 87.69     0.001 C 
HETATM   38  C36 VFQ 51621     -47.968 146.968  11.491  1.00 94.67     0.020 C 
HETATM   39  C37 VFQ 51621     -48.512 144.978  12.898  1.00 94.67     0.020 C 
HETATM   40  C38 VFQ 51621     -44.738 146.852  15.067  1.00 94.67     0.044 C 
HETATM   41  C39 VFQ 51621     -43.232 145.161  10.591  1.00 87.69     0.048 C 
HETATM   42  C40 VFQ 51621     -41.151 140.801   8.649  1.00 87.69     0.048 C 
HETATM   43  O23 VFQ 51621     -49.251 148.418  15.795  1.00 94.67    -0.395 OA
ATOM     44  H23 VFQ 51621     -49.905 148.942  15.347  1.00  0.00     0.210 HD
ENDROOT
TORSDOF 12
BEGIN_RES PHE A  61
REMARK  2 active torsions:
REMARK  status: ('A' for Active; 'I' for Inactive)
REMARK    1  A    between atoms: CA   and  CB  
REMARK    2  A    between atoms: CB   and  CG  
ROOT
ATOM      1  CA  PHE A  61     -36.237 128.293  12.768  1.00 39.40     0.164 C 
ENDROOT
BRANCH   1   2
ATOM      2  CB  PHE A  61     -36.813 128.951  11.509  1.00 39.41     0.058 C 
BRANCH   2   3
ATOM      3  CG  PHE A  61     -36.978 128.015  10.336  1.00 39.01    -0.020 A 
ATOM      4  CD2 PHE A  61     -36.129 126.934  10.163  1.00 40.32    -0.004 A 
ATOM      5  CE2 PHE A  61     -36.280 126.075   9.081  1.00 40.20    -0.000 A 
ATOM      6  CZ  PHE A  61     -37.283 126.286   8.163  1.00 40.34    -0.000 A 
ATOM      7  CE1 PHE A  61     -38.137 127.355   8.322  1.00 41.51    -0.000 A 
ATOM      8  CD1 PHE A  61     -37.982 128.217   9.399  1.00 39.94    -0.004 A 
ENDBRANCH   2   3
ENDBRANCH   1   2
END_RES PHE A  61
BEGIN_RES VAL A 134
REMARK  1 active torsions:
REMARK  status: ('A' for Active; 'I' for Inactive)
REMARK    3  A    between atoms: CA   and  CB  
ROOT
ATOM      9  CA  VAL A 134     -29.766 132.051   9.815  1.00 40.75     0.159 C 
ENDROOT
BRANCH   9  10
ATOM     10  CB  VAL A 134     -30.864 132.765   9.009  1.00 40.76     0.029 C 
ATOM     11  CG1 VAL A 134     -30.888 132.265   7.572  1.00 41.76     0.002 C 
ATOM     12  CG2 VAL A 134     -32.230 132.607   9.659  1.00 40.56     0.002 C 
ENDBRANCH   9  10
END_RES VAL A 134
BEGIN_RES TYR A 338
REMARK  3 active torsions:
REMARK  status: ('A' for Active; 'I' for Inactive)
REMARK    4  A    between atoms: CA   and  CB  
REMARK    5  A    between atoms: CB   and  CG  
REMARK    6  A    between atoms: CZ   and  OH  
ROOT
ATOM     13  CA  TYR A 338     -41.631 124.950   6.058  1.00 38.23     0.164 C 
ENDROOT
BRANCH  13  14
ATOM     14  CB  TYR A 338     -41.621 126.456   6.339  1.00 39.15     0.058 C 
BRANCH  14  15
ATOM     15  CG  TYR A 338     -40.449 127.222   5.769  1.00 39.03    -0.020 A 
ATOM     16  CD2 TYR A 338     -40.269 128.559   6.079  1.00 40.65    -0.002 A 
ATOM     17  CE2 TYR A 338     -39.214 129.296   5.562  1.00 40.91     0.024 A 
ATOM     18  CZ  TYR A 338     -38.309 128.694   4.710  1.00 42.33     0.089 A 
ATOM     19  CE1 TYR A 338     -38.465 127.357   4.388  1.00 40.63     0.024 A 
ATOM     20  CD1 TYR A 338     -39.534 126.641   4.905  1.00 39.27    -0.002 A 
BRANCH  18  21
ATOM     21  OH  TYR A 338     -37.263 129.410   4.197  1.00 43.36    -0.359 OA
ATOM     22  HH  TYR A 338     -36.368 129.179   4.419  1.00  0.00     0.217 HD
ENDBRANCH  18  21
ENDBRANCH  14  15
ENDBRANCH  13  14
END_RES TYR A 338
ENDMDL
MODEL 3
REMARK VINA RESULT:    -9.495      0.585     16.839
REMARK INTER + INTRA:          -9.962
REMARK INTER:                  -9.677
REMARK INTRA:                  -0.284
REMARK UNBOUND:                -0.467
REMARK  0 active torsions:
REMARK  status: ('A' for Active; 'I' for Inactive)
REMARK       I    between atoms: C3_3  and  O3_21 
REMARK       I    between atoms: C6_6  and  C7_7 
REMARK       I    between atoms: C8_8  and  C9_9 
REMARK       I    between atoms: C10_10  and  C11_11 
REMARK       I    between atoms: C12_12  and  C13_13 
REMARK       I    between atoms: C14_14  and  C15_15 
REMARK       I    between atoms: C23_25  and  O23_43 
REMARK       I    between atoms: C26_28  and  C27_29 
REMARK       I    between atoms: C28_30  and  C29_31 
REMARK       I    between atoms: C30_32  and  C31_33 
REMARK       I    between atoms: C32_34  and  C33_35 
REMARK       I    between atoms: C34_36  and  C35_37 
ROOT
HETATM    1  C1  VFQ 51621     -50.796 145.076  10.186  1.00 87.69    -0.018 C 
HETATM    2  C2  VFQ 51621     -51.595 145.384  11.438  1.00 87.69     0.045 C 
HETATM    3  C3  VFQ 51621     -51.527 146.816  11.958  1.00 87.69     0.123 C 
HETATM    4  C4  VFQ 51621     -50.232 147.556  11.653  1.00 87.69     0.066 C 
HETATM    5  C5  VFQ 51621     -49.149 146.668  11.098  1.00 87.69    -0.074 C 
HETATM    6  C6  VFQ 51621     -49.424 145.690  10.238  1.00 87.69    -0.048 C 
HETATM    7  C7  VFQ 51621     -48.401 145.206   9.282  1.00 87.69     0.009 C 
HETATM    8  C8  VFQ 51621     -47.481 144.324   9.656  1.00 87.69     0.007 C 
HETATM    9  C9  VFQ 51621     -46.462 143.804   8.732  1.00 87.69    -0.062 C 
HETATM   10  C10 VFQ 51621     -45.815 142.708   9.115  1.00 87.69     0.007 C 
HETATM   11  C11 VFQ 51621     -44.787 142.010   8.358  1.00 87.69     0.001 C 
HETATM   12  C12 VFQ 51621     -44.108 141.093   9.038  1.00 87.69     0.007 C 
HETATM   13  C13 VFQ 51621     -43.066 140.255   8.427  1.00 87.69    -0.062 C 
HETATM   14  C14 VFQ 51621     -42.525 139.288   9.171  1.00 87.69     0.007 C 
HETATM   15  C15 VFQ 51621     -41.528 138.381   8.628  1.00 87.69     0.001 C 
HETATM   16  C16 VFQ 51621     -51.555 145.513   8.937  1.00 87.69     0.020 C 
HETATM   17  C17 VFQ 51621     -50.618 143.574  10.129  1.00 87.69     0.020 C 
HETATM   18  C18 VFQ 51621     -48.045 147.643  10.837  1.00 87.69     0.044 C 
HETATM   19  C19 VFQ 51621     -46.169 144.478   7.431  1.00 87.69     0.048 C 
HETATM   20  C20 VFQ 51621     -42.648 140.458   7.004  1.00 87.69     0.048 C 
HETATM   21  O3  VFQ 51621     -52.600 147.534  11.353  1.00 87.69    -0.395 OA
ATOM     22  H3  VFQ 51621     -52.558 148.427  11.677  1.00  0.00     0.210 HD
HETATM   23  C21 VFQ 51621     -34.024 128.335   7.451  1.00 94.67    -0.018 C 
HETATM   24  C22 VFQ 51621     -33.067 127.380   6.749  1.00 94.67     0.045 C 
HETATM   25  C23 VFQ 51621     -31.704 127.931   6.391  1.00 94.67     0.123 C 
HETATM   26  C24 VFQ 51621     -31.870 129.308   5.804  1.00 94.67     0.066 C 
HETATM   27  C25 VFQ 51621     -32.522 130.208   6.806  1.00 94.67    -0.074 C 
HETATM   28  C26 VFQ 51621     -33.528 129.765   7.562  1.00 94.67    -0.048 C 
HETATM   29  C27 VFQ 51621     -34.186 130.655   8.548  1.00 94.67     0.009 C 
HETATM   30  C28 VFQ 51621     -35.218 131.423   8.202  1.00 94.67     0.007 C 
HETATM   31  C29 VFQ 51621     -35.904 132.295   9.147  1.00 87.69    -0.062 C 
HETATM   32  C30 VFQ 51621     -37.062 132.812   8.748  1.00 87.69     0.007 C 
HETATM   33  C31 VFQ 51621     -37.893 133.679   9.561  1.00 87.69     0.001 C 
HETATM   34  C32 VFQ 51621     -38.519 134.644   8.908  1.00 87.69     0.007 C 
HETATM   35  C33 VFQ 51621     -39.424 135.583   9.573  1.00 87.69    -0.062 C 
HETATM   36  C34 VFQ 51621     -40.068 136.489   8.832  1.00 87.69     0.007 C 
HETATM   37  C35 VFQ 51621     -41.023 137.429   9.400  1.00 87.69     0.001 C 
HETATM   38  C36 VFQ 51621     -34.232 127.821   8.867  1.00 94.67     0.020 C 
HETATM   39  C37 VFQ 51621     -35.334 128.265   6.671  1.00 94.67     0.020 C 
HETATM   40  C38 VFQ 51621     -31.976 131.602   6.905  1.00 94.67     0.044 C 
HETATM   41  C39 VFQ 51621     -35.337 132.576  10.499  1.00 87.69     0.048 C 
HETATM   42  C40 VFQ 51621     -39.617 135.490  11.047  1.00 87.69     0.048 C 
HETATM   43  O23 VFQ 51621     -31.119 127.091   5.395  1.00 94.67    -0.395 OA
ATOM     44  H23 VFQ 51621     -31.014 126.223   5.766  1.00  0.00     0.210 HD
ENDROOT
TORSDOF 12
BEGIN_RES PHE A  61
REMARK  2 active torsions:
REMARK  status: ('A' for Active; 'I' for Inactive)
REMARK    1  A    between atoms: CA   and  CB  
REMARK    2  A    between atoms: CB   and  CG  
ROOT
ATOM      1  CA  PHE A  61     -36.237 128.293  12.768  1.00 39.40     0.164 C 
ENDROOT
BRANCH   1   2
ATOM      2  CB  PHE A  61     -36.813 128.951  11.509  1.00 39.41     0.058 C 
BRANCH   2   3
ATOM      3  CG  PHE A  61     -37.039 128.002  10.356  1.00 39.01    -0.020 A 
ATOM      4  CD2 PHE A  61     -36.321 126.821  10.256  1.00 40.32    -0.004 A 
ATOM      5  CE2 PHE A  61     -36.527 125.950   9.194  1.00 40.20    -0.000 A 
ATOM      6  CZ  PHE A  61     -37.455 126.248   8.222  1.00 40.34    -0.000 A 
ATOM      7  CE1 PHE A  61     -38.178 127.417   8.308  1.00 41.51    -0.000 A 
ATOM      8  CD1 PHE A  61     -37.968 128.291   9.367  1.00 39.94    -0.004 A 
ENDBRANCH   2   3
ENDBRANCH   1   2
END_RES PHE A  61
BEGIN_RES VAL A 134
REMARK  1 active torsions:
REMARK  status: ('A' for Active; 'I' for Inactive)
REMARK    3  A    between atoms: CA   and  CB  
ROOT
ATOM      9  CA  VAL A 134     -29.766 132.051   9.815  1.00 40.75     0.159 C 
ENDROOT
BRANCH   9  10
ATOM     10  CB  VAL A 134     -30.864 132.765   9.009  1.00 40.76     0.029 C 
ATOM     11  CG1 VAL A 134     -32.105 132.980   9.863  1.00 41.76     0.002 C 
ATOM     12  CG2 VAL A 134     -30.370 134.083   8.433  1.00 40.56     0.002 C 
ENDBRANCH   9  10
END_RES VAL A 134
BEGIN_RES TYR A 338
REMARK  3 active torsions:
REMARK  status: ('A' for Active; 'I' for Inactive)
REMARK    4  A    between atoms: CA   and  CB  
REMARK    5  A    between atoms: CB   and  CG  
REMARK    6  A    between atoms: CZ   and  OH  
ROOT
ATOM     13  CA  TYR A 338     -41.631 124.950   6.058  1.00 38.23     0.164 C 
ENDROOT
BRANCH  13  14
ATOM     14  CB  TYR A 338     -41.621 126.456   6.339  1.00 39.15     0.058 C 
BRANCH  14  15
ATOM     15  CG  TYR A 338     -40.411 127.209   5.836  1.00 39.03    -0.020 A 
ATOM     16  CD2 TYR A 338     -40.256 128.555   6.120  1.00 40.65    -0.002 A 
ATOM     17  CE2 TYR A 338     -39.167 129.281   5.662  1.00 40.91     0.024 A 
ATOM     18  CZ  TYR A 338     -38.199 128.657   4.898  1.00 42.33     0.089 A 
ATOM     19  CE1 TYR A 338     -38.329 127.311   4.605  1.00 40.63     0.024 A 
ATOM     20  CD1 TYR A 338     -39.433 126.606   5.061  1.00 39.27    -0.002 A 
BRANCH  18  21
ATOM     21  OH  TYR A 338     -37.118 129.361   4.445  1.00 43.36    -0.359 OA
ATOM     22  HH  TYR A 338     -37.188 130.294   4.279  1.00  0.00     0.217 HD
ENDBRANCH  18  21
ENDBRANCH  14  15
ENDBRANCH  13  14
END_RES TYR A 338
ENDMDL
MODEL 4
REMARK VINA RESULT:    -8.070      1.382     16.852
REMARK INTER + INTRA:          -8.537
REMARK INTER:                  -8.187
REMARK INTRA:                  -0.350
REMARK UNBOUND:                -0.467
REMARK  0 active torsions:
REMARK  status: ('A' for Active; 'I' for Inactive)
REMARK       I    between atoms: C3_3  and  O3_21 
REMARK       I    between atoms: C6_6  and  C7_7 
REMARK       I    between atoms: C8_8  and  C9_9 
REMARK       I    between atoms: C10_10  and  C11_11 
REMARK       I    between atoms: C12_12  and  C13_13 
REMARK       I    between atoms: C14_14  and  C15_15 
REMARK       I    between atoms: C23_25  and  O23_43 
REMARK       I    between atoms: C26_28  and  C27_29 
REMARK       I    between atoms: C28_30  and  C29_31 
REMARK       I    between atoms: C30_32  and  C31_33 
REMARK       I    between atoms: C32_34  and  C33_35 
REMARK       I    between atoms: C34_36  and  C35_37 
ROOT
HETATM    1  C1  VFQ 51621     -49.156 145.820  12.159  1.00 87.69    -0.018 C 
HETATM    2  C2  VFQ 51621     -50.011 145.964  13.404  1.00 87.69     0.045 C 
HETATM    3  C3  VFQ 51621     -49.839 147.248  14.207  1.00 87.69     0.123 C 
HETATM    4  C4  VFQ 51621     -48.457 147.883  14.129  1.00 87.69     0.066 C 
HETATM    5  C5  VFQ 51621     -47.429 147.004  13.462  1.00 87.69    -0.074 C 
HETATM    6  C6  VFQ 51621     -47.736 146.253  12.408  1.00 87.69    -0.048 C 
HETATM    7  C7  VFQ 51621     -46.699 145.853  11.429  1.00 87.69     0.009 C 
HETATM    8  C8  VFQ 51621     -45.902 144.817  11.664  1.00 87.69     0.007 C 
HETATM    9  C9  VFQ 51621     -44.875 144.377  10.708  1.00 87.69    -0.062 C 
HETATM   10  C10 VFQ 51621     -44.370 143.161  10.893  1.00 87.69     0.007 C 
HETATM   11  C11 VFQ 51621     -43.364 142.514  10.065  1.00 87.69     0.001 C 
HETATM   12  C12 VFQ 51621     -42.834 141.411  10.578  1.00 87.69     0.007 C 
HETATM   13  C13 VFQ 51621     -41.838 140.596   9.865  1.00 87.69    -0.062 C 
HETATM   14  C14 VFQ 51621     -41.454 139.447  10.425  1.00 87.69     0.007 C 
HETATM   15  C15 VFQ 51621     -40.515 138.558   9.761  1.00 87.69     0.001 C 
HETATM   16  C16 VFQ 51621     -49.772 146.578  10.987  1.00 87.69     0.020 C 
HETATM   17  C17 VFQ 51621     -49.125 144.349  11.807  1.00 87.69     0.020 C 
HETATM   18  C18 VFQ 51621     -46.217 147.881  13.464  1.00 87.69     0.044 C 
HETATM   19  C19 VFQ 51621     -44.419 145.257   9.589  1.00 87.69     0.048 C 
HETATM   20  C20 VFQ 51621     -41.296 141.027   8.538  1.00 87.69     0.048 C 
HETATM   21  O3  VFQ 51621     -50.786 148.188  13.706  1.00 87.69    -0.395 OA
ATOM     22  H3  VFQ 51621     -50.679 148.989  14.207  1.00  0.00     0.210 HD
HETATM   23  C21 VFQ 51621     -33.989 128.158   6.960  1.00 94.67    -0.018 C 
HETATM   24  C22 VFQ 51621     -33.083 127.258   6.130  1.00 94.67     0.045 C 
HETATM   25  C23 VFQ 51621     -31.648 127.710   5.964  1.00 94.67     0.123 C 
HETATM   26  C24 VFQ 51621     -31.631 129.185   5.662  1.00 94.67     0.066 C 
HETATM   27  C25 VFQ 51621     -32.262 129.939   6.792  1.00 94.67    -0.074 C 
HETATM   28  C26 VFQ 51621     -33.362 129.472   7.387  1.00 94.67    -0.048 C 
HETATM   29  C27 VFQ 51621     -33.999 130.219   8.497  1.00 94.67     0.009 C 
HETATM   30  C28 VFQ 51621     -34.919 131.151   8.261  1.00 94.67     0.007 C 
HETATM   31  C29 VFQ 51621     -35.584 131.892   9.326  1.00 87.69    -0.062 C 
HETATM   32  C30 VFQ 51621     -36.651 132.606   8.981  1.00 87.69     0.007 C 
HETATM   33  C31 VFQ 51621     -37.449 133.384   9.907  1.00 87.69     0.001 C 
HETATM   34  C32 VFQ 51621     -37.925 134.523   9.433  1.00 87.69     0.007 C 
HETATM   35  C33 VFQ 51621     -38.778 135.409  10.227  1.00 87.69    -0.062 C 
HETATM   36  C34 VFQ 51621     -39.271 136.511   9.652  1.00 87.69     0.007 C 
HETATM   37  C35 VFQ 51621     -40.166 137.422  10.349  1.00 87.69     0.001 C 
HETATM   38  C36 VFQ 51621     -34.352 127.401   8.229  1.00 94.67     0.020 C 
HETATM   39  C37 VFQ 51621     -35.237 128.391   6.114  1.00 94.67     0.020 C 
HETATM   40  C38 VFQ 51621     -31.588 131.214   7.201  1.00 94.67     0.044 C 
HETATM   41  C39 VFQ 51621     -35.094 131.836  10.735  1.00 87.69     0.048 C 
HETATM   42  C40 VFQ 51621     -39.089 135.050  11.638  1.00 87.69     0.048 C 
HETATM   43  O23 VFQ 51621     -31.078 127.022   4.851  1.00 94.67    -0.395 OA
ATOM     44  H23 VFQ 51621     -31.088 126.092   5.042  1.00  0.00     0.210 HD
ENDROOT
TORSDOF 12
BEGIN_RES PHE A  61
REMARK  2 active torsions:
REMARK  status: ('A' for Active; 'I' for Inactive)
REMARK    1  A    between atoms: CA   and  CB  
REMARK    2  A    between atoms: CB   and  CG  
ROOT
ATOM      1  CA  PHE A  61     -36.237 128.293  12.768  1.00 39.40     0.164 C 
ENDROOT
BRANCH   1   2
ATOM      2  CB  PHE A  61     -36.813 128.951  11.509  1.00 39.41     0.058 C 
BRANCH   2   3
ATOM      3  CG  PHE A  61     -36.998 128.010  10.342  1.00 39.01    -0.020 A 
ATOM      4  CD2 PHE A  61     -37.845 128.335   9.294  1.00 40.32    -0.004 A 
ATOM      5  CE2 PHE A  61     -38.017 127.467   8.223  1.00 40.20    -0.000 A 
ATOM      6  CZ  PHE A  61     -37.342 126.268   8.186  1.00 40.34    -0.000 A 
ATOM      7  CE1 PHE A  61     -36.494 125.932   9.219  1.00 41.51    -0.000 A 
ATOM      8  CD1 PHE A  61     -36.328 126.796  10.293  1.00 39.94    -0.004 A 
ENDBRANCH   2   3
ENDBRANCH   1   2
END_RES PHE A  61
BEGIN_RES VAL A 134
REMARK  1 active torsions:
REMARK  status: ('A' for Active; 'I' for Inactive)
REMARK    3  A    between atoms: CA   and  CB  
ROOT
ATOM      9  CA  VAL A 134     -29.766 132.051   9.815  1.00 40.75     0.159 C 
ENDROOT
BRANCH   9  10
ATOM     10  CB  VAL A 134     -30.864 132.765   9.009  1.00 40.76     0.029 C 
ATOM     11  CG1 VAL A 134     -32.104 132.982   9.864  1.00 41.76     0.002 C 
ATOM     12  CG2 VAL A 134     -30.369 134.082   8.431  1.00 40.56     0.002 C 
ENDBRANCH   9  10
END_RES VAL A 134
BEGIN_RES TYR A 338
REMARK  3 active torsions:
REMARK  status: ('A' for Active; 'I' for Inactive)
REMARK    4  A    between atoms: CA   and  CB  
REMARK    5  A    between atoms: CB   and  CG  
REMARK    6  A    between atoms: CZ   and  OH  
ROOT
ATOM     13  CA  TYR A 338     -41.631 124.950   6.058  1.00 38.23     0.164 C 
ENDROOT
BRANCH  13  14
ATOM     14  CB  TYR A 338     -41.621 126.456   6.339  1.00 39.15     0.058 C 
BRANCH  14  15
ATOM     15  CG  TYR A 338     -40.421 127.213   5.818  1.00 39.03    -0.020 A 
ATOM     16  CD2 TYR A 338     -40.262 128.558   6.105  1.00 40.65    -0.002 A 
ATOM     17  CE2 TYR A 338     -39.182 129.286   5.631  1.00 40.91     0.024 A 
ATOM     18  CZ  TYR A 338     -38.227 128.667   4.846  1.00 42.33     0.089 A 
ATOM     19  CE1 TYR A 338     -38.362 127.322   4.550  1.00 40.63     0.024 A 
ATOM     20  CD1 TYR A 338     -39.456 126.614   5.022  1.00 39.27    -0.002 A 
BRANCH  18  21
ATOM     21  OH  TYR A 338     -37.156 129.374   4.377  1.00 43.36    -0.359 OA
ATOM     22  HH  TYR A 338     -36.303 129.283   4.786  1.00  0.00     0.217 HD
ENDBRANCH  18  21
ENDBRANCH  14  15
ENDBRANCH  13  14
END_RES TYR A 338
ENDMDL
