MODEL 1
REMARK VINA RESULT:    -9.192      0.000      0.000
REMARK INTER + INTRA:         -12.152
REMARK INTER:                  -9.192
REMARK INTRA:                  -2.960
REMARK UNBOUND:                -2.960
REMARK  0 active torsions:
REMARK  status: ('A' for Active; 'I' for Inactive)
REMARK       I    between atoms: C3_3  and  O3_21 
REMARK       I    between atoms: C6_6  and  C7_7 
REMARK       I    between atoms: C8_8  and  C9_9 
REMARK       I    between atoms: C10_10  and  C11_11 
REMARK       I    between atoms: C12_12  and  C13_13 
REMARK       I    between atoms: C14_14  and  C15_15 
REMARK       I    between atoms: C23_25  and  O23_43 
REMARK       I    between atoms: C26_28  and  C27_29 
REMARK       I    between atoms: C28_30  and  C29_31 
REMARK       I    between atoms: C30_32  and  C31_33 
REMARK       I    between atoms: C32_34  and  C33_35 
REMARK       I    between atoms: C34_36  and  C35_37 
ROOT
HETATM    1  C1  VFQ Y1621     -47.688 145.695  12.822  1.00 26.19    -0.018 C 
HETATM    2  C2  VFQ Y1621     -48.396 146.304  14.026  1.00 26.65     0.045 C 
HETATM    3  C3  VFQ Y1621     -47.547 147.088  15.007  1.00 28.07     0.123 C 
HETATM    4  C4  VFQ Y1621     -46.502 147.913  14.301  1.00 30.07     0.066 C 
HETATM    5  C5  VFQ Y1621     -45.665 147.012  13.452  1.00 28.83    -0.074 C 
HETATM    6  C6  VFQ Y1621     -46.245 146.135  12.626  1.00 27.49    -0.048 C 
HETATM    7  C7  VFQ Y1621     -45.516 145.551  11.472  1.00 29.45     0.009 C 
HETATM    8  C8  VFQ Y1621     -44.572 144.619  11.617  1.00 27.83     0.007 C 
HETATM    9  C9  VFQ Y1621     -43.879 144.010  10.477  1.00 26.06    -0.062 C 
HETATM   10  C10 VFQ Y1621     -43.215 142.889  10.742  1.00 25.01     0.007 C 
HETATM   11  C11 VFQ Y1621     -42.510 142.096   9.758  1.00 25.09     0.001 C 
HETATM   12  C12 VFQ Y1621     -41.952 141.002  10.240  1.00 26.01     0.007 C 
HETATM   13  C13 VFQ Y1621     -41.256 140.025   9.402  1.00 26.36    -0.062 C 
HETATM   14  C14 VFQ Y1621     -40.814 138.910   9.990  1.00 27.67     0.007 C 
HETATM   15  C15 VFQ Y1621     -40.147 137.870   9.224  1.00 28.38     0.001 C 
HETATM   16  C16 VFQ Y1621     -48.537 146.088  11.627  1.00 26.46     0.020 C 
HETATM   17  C17 VFQ Y1621     -47.681 144.181  12.967  1.00 26.61     0.020 C 
HETATM   18  C18 VFQ Y1621     -44.451 147.801  13.087  1.00 29.43     0.044 C 
HETATM   19  C19 VFQ Y1621     -43.935 144.606   9.106  1.00 26.07     0.048 C 
HETATM   20  C20 VFQ Y1621     -41.106 140.254   7.929  1.00 25.83     0.048 C 
HETATM   21  O3  VFQ Y1621     -48.394 147.961  15.751  1.00 27.44    -0.395 OA
ATOM     22  H3  VFQ Y1621     -47.862 148.452  16.366  1.00  0.00     0.210 HD
HETATM   23  C21 VFQ Y1621     -34.394 126.725   6.371  1.00 19.07    -0.018 C 
HETATM   24  C22 VFQ Y1621     -33.799 125.924   5.197  1.00 18.69     0.045 C 
HETATM   25  C23 VFQ Y1621     -32.449 126.382   4.651  1.00 19.88     0.123 C 
HETATM   26  C24 VFQ Y1621     -32.263 127.909   4.659  1.00 19.59     0.066 C 
HETATM   27  C25 VFQ Y1621     -32.886 128.684   5.778  1.00 18.61    -0.074 C 
HETATM   28  C26 VFQ Y1621     -33.875 128.172   6.592  1.00 18.29    -0.048 C 
HETATM   29  C27 VFQ Y1621     -34.463 128.971   7.688  1.00 19.20     0.009 C 
HETATM   30  C28 VFQ Y1621     -35.385 129.962   7.600  1.00 18.47     0.007 C 
HETATM   31  C29 VFQ Y1621     -35.812 130.831   8.660  1.00 29.73    -0.062 C 
HETATM   32  C30 VFQ Y1621     -36.887 131.579   8.431  1.00 28.64     0.007 C 
HETATM   33  C31 VFQ Y1621     -37.445 132.508   9.391  1.00 27.79     0.001 C 
HETATM   34  C32 VFQ Y1621     -37.999 133.583   8.858  1.00 27.11     0.007 C 
HETATM   35  C33 VFQ Y1621     -38.620 134.628   9.669  1.00 25.78    -0.062 C 
HETATM   36  C34 VFQ Y1621     -39.114 135.715   9.073  1.00 26.10     0.007 C 
HETATM   37  C35 VFQ Y1621     -39.758 136.768   9.842  1.00 27.22     0.001 C 
HETATM   38  C36 VFQ Y1621     -34.211 125.895   7.656  1.00 17.04     0.020 C 
HETATM   39  C37 VFQ Y1621     -35.890 126.748   6.010  1.00 20.18     0.020 C 
HETATM   40  C38 VFQ Y1621     -32.234 130.017   5.806  1.00 19.93     0.044 C 
HETATM   41  C39 VFQ Y1621     -35.062 130.856   9.949  1.00 32.37     0.048 C 
HETATM   42  C40 VFQ Y1621     -38.695 134.448  11.142  1.00 25.14     0.048 C 
HETATM   43  O23 VFQ Y1621     -32.238 125.863   3.346  1.00 19.51    -0.395 OA
ATOM     44  H23 VFQ Y1621     -31.398 126.148   3.006  1.00  0.00     0.210 HD
ENDROOT
TORSDOF 12
BEGIN_RES PHE A  61
REMARK  2 active torsions:
REMARK  status: ('A' for Active; 'I' for Inactive)
REMARK    1  A    between atoms: CA   and  CB  
REMARK    2  A    between atoms: CB   and  CG  
ROOT
ATOM      1  CA  PHE A  61     -36.237 128.293  12.768  1.00 39.40     0.164 C 
ENDROOT
BRANCH   1   2
ATOM      2  CB  PHE A  61     -36.813 128.951  11.509  1.00 39.41     0.058 C 
BRANCH   2   3
ATOM      3  CG  PHE A  61     -37.067 127.997  10.367  1.00 39.01    -0.020 A 
ATOM      4  CD2 PHE A  61     -38.041 128.266   9.418  1.00 40.32    -0.004 A 
ATOM      5  CE2 PHE A  61     -38.276 127.385   8.369  1.00 40.20    -0.000 A 
ATOM      6  CZ  PHE A  61     -37.539 126.229   8.256  1.00 40.34    -0.000 A 
ATOM      7  CE1 PHE A  61     -36.566 125.948   9.189  1.00 41.51    -0.000 A 
ATOM      8  CD1 PHE A  61     -36.335 126.825  10.241  1.00 39.94    -0.004 A 
ENDBRANCH   2   3
ENDBRANCH   1   2
END_RES PHE A  61
BEGIN_RES VAL A 134
REMARK  1 active torsions:
REMARK  status: ('A' for Active; 'I' for Inactive)
REMARK    3  A    between atoms: CA   and  CB  
ROOT
ATOM      9  CA  VAL A 134     -29.766 132.051   9.815  1.00 40.75     0.159 C 
ENDROOT
BRANCH   9  10
ATOM     10  CB  VAL A 134     -30.864 132.765   9.009  1.00 40.76     0.029 C 
ATOM     11  CG1 VAL A 134     -31.224 131.966   7.765  1.00 41.76     0.002 C 
ATOM     12  CG2 VAL A 134     -32.099 133.031   9.856  1.00 40.56     0.002 C 
ENDBRANCH   9  10
END_RES VAL A 134
BEGIN_RES TYR A 338
REMARK  3 active torsions:
REMARK  status: ('A' for Active; 'I' for Inactive)
REMARK    4  A    between atoms: CA   and  CB  
REMARK    5  A    between atoms: CB   and  CG  
REMARK    6  A    between atoms: CZ   and  OH  
ROOT
ATOM     13  CA  TYR A 338     -41.631 124.950   6.058  1.00 38.23     0.164 C 
ENDROOT
BRANCH  13  14
ATOM     14  CB  TYR A 338     -41.621 126.456   6.339  1.00 39.15     0.058 C 
BRANCH  14  15
ATOM     15  CG  TYR A 338     -40.404 127.207   5.849  1.00 39.03    -0.020 A 
ATOM     16  CD2 TYR A 338     -40.225 128.540   6.176  1.00 40.65    -0.002 A 
ATOM     17  CE2 TYR A 338     -39.129 129.264   5.731  1.00 40.91     0.024 A 
ATOM     18  CZ  TYR A 338     -38.180 128.651   4.935  1.00 42.33     0.089 A 
ATOM     19  CE1 TYR A 338     -38.335 127.318   4.598  1.00 40.63     0.024 A 
ATOM     20  CD1 TYR A 338     -39.444 126.615   5.043  1.00 39.27    -0.002 A 
BRANCH  18  21
ATOM     21  OH  TYR A 338     -37.093 129.353   4.494  1.00 43.36    -0.359 OA
ATOM     22  HH  TYR A 338     -36.217 129.101   4.761  1.00  0.00     0.217 HD
ENDBRANCH  18  21
ENDBRANCH  14  15
ENDBRANCH  13  14
END_RES TYR A 338
ENDMDL
MODEL 2
REMARK VINA RESULT:    -8.708      1.278      1.772
REMARK INTER + INTRA:         -11.668
REMARK INTER:                 -11.248
REMARK INTRA:                  -0.420
REMARK UNBOUND:                -2.960
REMARK  0 active torsions:
REMARK  status: ('A' for Active; 'I' for Inactive)
REMARK       I    between atoms: C3_3  and  O3_21 
REMARK       I    between atoms: C6_6  and  C7_7 
REMARK       I    between atoms: C8_8  and  C9_9 
REMARK       I    between atoms: C10_10  and  C11_11 
REMARK       I    between atoms: C12_12  and  C13_13 
REMARK       I    between atoms: C14_14  and  C15_15 
REMARK       I    between atoms: C23_25  and  O23_43 
REMARK       I    between atoms: C26_28  and  C27_29 
REMARK       I    between atoms: C28_30  and  C29_31 
REMARK       I    between atoms: C30_32  and  C31_33 
REMARK       I    between atoms: C32_34  and  C33_35 
REMARK       I    between atoms: C34_36  and  C35_37 
ROOT
HETATM    1  C1  VFQ Y1621     -49.560 146.005  11.552  1.00 26.19    -0.018 C 
HETATM    2  C2  VFQ Y1621     -50.518 146.521  12.619  1.00 26.65     0.045 C 
HETATM    3  C3  VFQ Y1621     -49.919 147.322  13.759  1.00 28.07     0.123 C 
HETATM    4  C4  VFQ Y1621     -48.824 148.238  13.279  1.00 30.07     0.066 C 
HETATM    5  C5  VFQ Y1621     -47.784 147.426  12.577  1.00 28.83    -0.074 C 
HETATM    6  C6  VFQ Y1621     -48.140 146.545  11.637  1.00 27.49    -0.048 C 
HETATM    7  C7  VFQ Y1621     -47.174 146.053  10.623  1.00 29.45     0.009 C 
HETATM    8  C8  VFQ Y1621     -46.208 145.179  10.916  1.00 27.83     0.007 C 
HETATM    9  C9  VFQ Y1621     -45.278 144.660   9.909  1.00 26.06    -0.062 C 
HETATM   10  C10 VFQ Y1621     -44.596 143.575  10.264  1.00 25.01     0.007 C 
HETATM   11  C11 VFQ Y1621     -43.669 142.867   9.408  1.00 25.09     0.001 C 
HETATM   12  C12 VFQ Y1621     -43.132 141.794   9.957  1.00 26.01     0.007 C 
HETATM   13  C13 VFQ Y1621     -42.227 140.896   9.237  1.00 26.36    -0.062 C 
HETATM   14  C14 VFQ Y1621     -41.823 139.791   9.869  1.00 27.67     0.007 C 
HETATM   15  C15 VFQ Y1621     -40.955 138.827   9.214  1.00 28.38     0.001 C 
HETATM   16  C16 VFQ Y1621     -50.202 146.387  10.230  1.00 26.46     0.020 C 
HETATM   17  C17 VFQ Y1621     -49.473 144.490  11.657  1.00 26.61     0.020 C 
HETATM   18  C18 VFQ Y1621     -46.583 148.305  12.463  1.00 29.43     0.044 C 
HETATM   19  C19 VFQ Y1621     -45.125 145.302   8.567  1.00 26.07     0.048 C 
HETATM   20  C20 VFQ Y1621     -41.828 141.190   7.824  1.00 25.83     0.048 C 
HETATM   21  O3  VFQ Y1621     -50.948 148.108  14.356  1.00 27.44    -0.395 OA
ATOM     22  H3  VFQ Y1621     -50.572 148.610  15.071  1.00  0.00     0.210 HD
HETATM   23  C21 VFQ Y1621     -34.006 128.193   7.194  1.00 19.07    -0.018 C 
HETATM   24  C22 VFQ Y1621     -33.151 127.476   6.131  1.00 18.69     0.045 C 
HETATM   25  C23 VFQ Y1621     -31.761 128.041   5.855  1.00 19.88     0.123 C 
HETATM   26  C24 VFQ Y1621     -31.687 129.575   5.936  1.00 19.59     0.066 C 
HETATM   27  C25 VFQ Y1621     -32.557 130.266   6.940  1.00 18.61    -0.074 C 
HETATM   28  C26 VFQ Y1621     -33.639 129.661   7.544  1.00 18.29    -0.048 C 
HETATM   29  C27 VFQ Y1621     -34.473 130.378   8.532  1.00 19.20     0.009 C 
HETATM   30  C28 VFQ Y1621     -35.431 131.310   8.300  1.00 18.47     0.007 C 
HETATM   31  C29 VFQ Y1621     -36.104 132.109   9.284  1.00 29.73    -0.062 C 
HETATM   32  C30 VFQ Y1621     -37.170 132.793   8.880  1.00 28.64     0.007 C 
HETATM   33  C31 VFQ Y1621     -37.958 133.648   9.742  1.00 27.79     0.001 C 
HETATM   34  C32 VFQ Y1621     -38.480 134.704   9.144  1.00 27.11     0.007 C 
HETATM   35  C33 VFQ Y1621     -39.311 135.675   9.852  1.00 25.78    -0.062 C 
HETATM   36  C34 VFQ Y1621     -39.763 136.750   9.203  1.00 26.10     0.007 C 
HETATM   37  C35 VFQ Y1621     -40.610 137.729   9.866  1.00 27.22     0.001 C 
HETATM   38  C36 VFQ Y1621     -34.002 127.328   8.470  1.00 17.04     0.020 C 
HETATM   39  C37 VFQ Y1621     -35.409 128.132   6.564  1.00 20.18     0.020 C 
HETATM   40  C38 VFQ Y1621     -32.018 131.637   7.121  1.00 19.93     0.044 C 
HETATM   41  C39 VFQ Y1621     -35.606 132.134  10.690  1.00 32.37     0.048 C 
HETATM   42  C40 VFQ Y1621     -39.641 135.435  11.281  1.00 25.14     0.048 C 
HETATM   43  O23 VFQ Y1621     -31.278 127.586   4.600  1.00 19.51    -0.395 OA
ATOM     44  H23 VFQ Y1621     -30.413 127.938   4.428  1.00  0.00     0.210 HD
ENDROOT
TORSDOF 12
BEGIN_RES PHE A  61
REMARK  2 active torsions:
REMARK  status: ('A' for Active; 'I' for Inactive)
REMARK    1  A    between atoms: CA   and  CB  
REMARK    2  A    between atoms: CB   and  CG  
ROOT
ATOM      1  CA  PHE A  61     -36.237 128.293  12.768  1.00 39.40     0.164 C 
ENDROOT
BRANCH   1   2
ATOM      2  CB  PHE A  61     -36.813 128.951  11.509  1.00 39.41     0.058 C 
BRANCH   2   3
ATOM      3  CG  PHE A  61     -37.023 128.005  10.351  1.00 39.01    -0.020 A 
ATOM      4  CD2 PHE A  61     -36.301 126.826  10.255  1.00 40.32    -0.004 A 
ATOM      5  CE2 PHE A  61     -36.493 125.958   9.188  1.00 40.20    -0.000 A 
ATOM      6  CZ  PHE A  61     -37.411 126.257   8.207  1.00 40.34    -0.000 A 
ATOM      7  CE1 PHE A  61     -38.137 127.424   8.288  1.00 41.51    -0.000 A 
ATOM      8  CD1 PHE A  61     -37.941 128.295   9.352  1.00 39.94    -0.004 A 
ENDBRANCH   2   3
ENDBRANCH   1   2
END_RES PHE A  61
BEGIN_RES VAL A 134
REMARK  1 active torsions:
REMARK  status: ('A' for Active; 'I' for Inactive)
REMARK    3  A    between atoms: CA   and  CB  
ROOT
ATOM      9  CA  VAL A 134     -29.766 132.051   9.815  1.00 40.75     0.159 C 
ENDROOT
BRANCH   9  10
ATOM     10  CB  VAL A 134     -30.864 132.765   9.009  1.00 40.76     0.029 C 
ATOM     11  CG1 VAL A 134     -32.121 132.939   9.849  1.00 41.76     0.002 C 
ATOM     12  CG2 VAL A 134     -30.384 134.104   8.470  1.00 40.56     0.002 C 
ENDBRANCH   9  10
END_RES VAL A 134
BEGIN_RES TYR A 338
REMARK  3 active torsions:
REMARK  status: ('A' for Active; 'I' for Inactive)
REMARK    4  A    between atoms: CA   and  CB  
REMARK    5  A    between atoms: CB   and  CG  
REMARK    6  A    between atoms: CZ   and  OH  
ROOT
ATOM     13  CA  TYR A 338     -41.631 124.950   6.058  1.00 38.23     0.164 C 
ENDROOT
BRANCH  13  14
ATOM     14  CB  TYR A 338     -41.621 126.456   6.339  1.00 39.15     0.058 C 
BRANCH  14  15
ATOM     15  CG  TYR A 338     -40.415 127.211   5.829  1.00 39.03    -0.020 A 
ATOM     16  CD2 TYR A 338     -40.261 128.558   6.109  1.00 40.65    -0.002 A 
ATOM     17  CE2 TYR A 338     -39.176 129.284   5.644  1.00 40.91     0.024 A 
ATOM     18  CZ  TYR A 338     -38.211 128.661   4.876  1.00 42.33     0.089 A 
ATOM     19  CE1 TYR A 338     -38.340 127.314   4.586  1.00 40.63     0.024 A 
ATOM     20  CD1 TYR A 338     -39.440 126.608   5.049  1.00 39.27    -0.002 A 
BRANCH  18  21
ATOM     21  OH  TYR A 338     -37.134 129.367   4.416  1.00 43.36    -0.359 OA
ATOM     22  HH  TYR A 338     -37.001 129.486   3.483  1.00  0.00     0.217 HD
ENDBRANCH  18  21
ENDBRANCH  14  15
ENDBRANCH  13  14
END_RES TYR A 338
ENDMDL
MODEL 3
REMARK VINA RESULT:    -7.947      0.744     16.831
REMARK INTER + INTRA:         -10.907
REMARK INTER:                  -7.989
REMARK INTRA:                  -2.918
REMARK UNBOUND:                -2.960
REMARK  0 active torsions:
REMARK  status: ('A' for Active; 'I' for Inactive)
REMARK       I    between atoms: C3_3  and  O3_21 
REMARK       I    between atoms: C6_6  and  C7_7 
REMARK       I    between atoms: C8_8  and  C9_9 
REMARK       I    between atoms: C10_10  and  C11_11 
REMARK       I    between atoms: C12_12  and  C13_13 
REMARK       I    between atoms: C14_14  and  C15_15 
REMARK       I    between atoms: C23_25  and  O23_43 
REMARK       I    between atoms: C26_28  and  C27_29 
REMARK       I    between atoms: C28_30  and  C29_31 
REMARK       I    between atoms: C30_32  and  C31_33 
REMARK       I    between atoms: C32_34  and  C33_35 
REMARK       I    between atoms: C34_36  and  C35_37 
ROOT
HETATM    1  C1  VFQ Y1621     -34.652 127.013   5.896  1.00 26.19    -0.018 C 
HETATM    2  C2  VFQ Y1621     -34.165 126.301   4.640  1.00 26.65     0.045 C 
HETATM    3  C3  VFQ Y1621     -32.937 126.868   3.954  1.00 28.07     0.123 C 
HETATM    4  C4  VFQ Y1621     -31.911 127.338   4.953  1.00 30.07     0.066 C 
HETATM    5  C5  VFQ Y1621     -32.542 128.342   5.861  1.00 28.83    -0.074 C 
HETATM    6  C6  VFQ Y1621     -33.715 128.079   6.444  1.00 27.49    -0.048 C 
HETATM    7  C7  VFQ Y1621     -34.163 128.806   7.659  1.00 29.45     0.009 C 
HETATM    8  C8  VFQ Y1621     -34.592 130.069   7.623  1.00 27.83     0.007 C 
HETATM    9  C9  VFQ Y1621     -35.074 130.776   8.814  1.00 26.06    -0.062 C 
HETATM   10  C10 VFQ Y1621     -35.763 131.889   8.580  1.00 25.01     0.007 C 
HETATM   11  C11 VFQ Y1621     -36.375 132.710   9.602  1.00 25.09     0.001 C 
HETATM   12  C12 VFQ Y1621     -37.041 133.749   9.138  1.00 26.01     0.007 C 
HETATM   13  C13 VFQ Y1621     -37.795 134.663   9.998  1.00 26.36    -0.062 C 
HETATM   14  C14 VFQ Y1621     -38.507 135.624   9.403  1.00 27.67     0.007 C 
HETATM   15  C15 VFQ Y1621     -39.315 136.550  10.180  1.00 28.38     0.001 C 
HETATM   16  C16 VFQ Y1621     -34.864 125.908   6.916  1.00 26.46     0.020 C 
HETATM   17  C17 VFQ Y1621     -35.980 127.692   5.596  1.00 26.61     0.020 C 
HETATM   18  C18 VFQ Y1621     -31.415 129.029   6.561  1.00 29.43     0.044 C 
HETATM   19  C19 VFQ Y1621     -34.819 130.264  10.196  1.00 26.07     0.048 C 
HETATM   20  C20 VFQ Y1621     -37.806 134.477  11.483  1.00 25.83     0.048 C 
HETATM   21  O3  VFQ Y1621     -32.355 125.851   3.142  1.00 27.44    -0.395 OA
ATOM     22  H3  VFQ Y1621     -31.586 126.206   2.712  1.00  0.00     0.210 HD
HETATM   23  C21 VFQ Y1621     -47.534 146.034  13.000  1.00 19.07    -0.018 C 
HETATM   24  C22 VFQ Y1621     -48.233 146.733  14.182  1.00 18.69     0.045 C 
HETATM   25  C23 VFQ Y1621     -47.383 147.655  15.052  1.00 19.88     0.123 C 
HETATM   26  C24 VFQ Y1621     -45.938 147.166  15.247  1.00 19.59     0.066 C 
HETATM   27  C25 VFQ Y1621     -45.283 146.446  14.109  1.00 18.61    -0.074 C 
HETATM   28  C26 VFQ Y1621     -45.987 145.908  13.051  1.00 18.29    -0.048 C 
HETATM   29  C27 VFQ Y1621     -45.301 145.205  11.946  1.00 19.20     0.009 C 
HETATM   30  C28 VFQ Y1621     -44.799 143.945  11.939  1.00 18.47     0.007 C 
HETATM   31  C29 VFQ Y1621     -43.992 143.351  10.910  1.00 29.73    -0.062 C 
HETATM   32  C30 VFQ Y1621     -43.796 142.038  10.980  1.00 28.64     0.007 C 
HETATM   33  C31 VFQ Y1621     -43.008 141.286  10.028  1.00 27.79     0.001 C 
HETATM   34  C32 VFQ Y1621     -42.366 140.250  10.540  1.00 27.11     0.007 C 
HETATM   35  C33 VFQ Y1621     -41.526 139.370   9.730  1.00 25.78    -0.062 C 
HETATM   36  C34 VFQ Y1621     -40.861 138.373  10.318  1.00 26.10     0.007 C 
HETATM   37  C35 VFQ Y1621     -40.032 137.463   9.545  1.00 27.22     0.001 C 
HETATM   38  C36 VFQ Y1621     -47.963 146.748  11.703  1.00 17.04     0.020 C 
HETATM   39  C37 VFQ Y1621     -48.181 144.638  13.031  1.00 20.18     0.020 C 
HETATM   40  C38 VFQ Y1621     -43.821 146.457  14.364  1.00 19.93     0.044 C 
HETATM   41  C39 VFQ Y1621     -43.427 144.202   9.823  1.00 32.37     0.048 C 
HETATM   42  C40 VFQ Y1621     -41.442 139.602   8.265  1.00 25.14     0.048 C 
HETATM   43  O23 VFQ Y1621     -48.008 147.870  16.308  1.00 19.51    -0.395 OA
ATOM     44  H23 VFQ Y1621     -47.479 148.444  16.849  1.00  0.00     0.210 HD
ENDROOT
TORSDOF 12
BEGIN_RES PHE A  61
REMARK  2 active torsions:
REMARK  status: ('A' for Active; 'I' for Inactive)
REMARK    1  A    between atoms: CA   and  CB  
REMARK    2  A    between atoms: CB   and  CG  
ROOT
ATOM      1  CA  PHE A  61     -36.237 128.293  12.768  1.00 39.40     0.164 C 
ENDROOT
BRANCH   1   2
ATOM      2  CB  PHE A  61     -36.813 128.951  11.509  1.00 39.41     0.058 C 
BRANCH   2   3
ATOM      3  CG  PHE A  61     -37.018 128.006  10.349  1.00 39.01    -0.020 A 
ATOM      4  CD2 PHE A  61     -36.255 126.856  10.225  1.00 40.32    -0.004 A 
ATOM      5  CE2 PHE A  61     -36.443 125.989   9.156  1.00 40.20    -0.000 A 
ATOM      6  CZ  PHE A  61     -37.397 126.260   8.202  1.00 40.34    -0.000 A 
ATOM      7  CE1 PHE A  61     -38.165 127.398   8.312  1.00 41.51    -0.000 A 
ATOM      8  CD1 PHE A  61     -37.973 128.268   9.377  1.00 39.94    -0.004 A 
ENDBRANCH   2   3
ENDBRANCH   1   2
END_RES PHE A  61
BEGIN_RES VAL A 134
REMARK  1 active torsions:
REMARK  status: ('A' for Active; 'I' for Inactive)
REMARK    3  A    between atoms: CA   and  CB  
ROOT
ATOM      9  CA  VAL A 134     -29.766 132.051   9.815  1.00 40.75     0.159 C 
ENDROOT
BRANCH   9  10
ATOM     10  CB  VAL A 134     -30.864 132.765   9.009  1.00 40.76     0.029 C 
ATOM     11  CG1 VAL A 134     -31.152 132.019   7.714  1.00 41.76     0.002 C 
ATOM     12  CG2 VAL A 134     -32.135 132.941   9.826  1.00 40.56     0.002 C 
ENDBRANCH   9  10
END_RES VAL A 134
BEGIN_RES TYR A 338
REMARK  3 active torsions:
REMARK  status: ('A' for Active; 'I' for Inactive)
REMARK    4  A    between atoms: CA   and  CB  
REMARK    5  A    between atoms: CB   and  CG  
REMARK    6  A    between atoms: CZ   and  OH  
ROOT
ATOM     13  CA  TYR A 338     -41.631 124.950   6.058  1.00 38.23     0.164 C 
ENDROOT
BRANCH  13  14
ATOM     14  CB  TYR A 338     -41.621 126.456   6.339  1.00 39.15     0.058 C 
BRANCH  14  15
ATOM     15  CG  TYR A 338     -40.442 127.220   5.782  1.00 39.03    -0.020 A 
ATOM     16  CD2 TYR A 338     -40.257 128.554   6.100  1.00 40.65    -0.002 A 
ATOM     17  CE2 TYR A 338     -39.196 129.289   5.595  1.00 40.91     0.024 A 
ATOM     18  CZ  TYR A 338     -38.287 128.687   4.746  1.00 42.33     0.089 A 
ATOM     19  CE1 TYR A 338     -38.447 127.353   4.417  1.00 40.63     0.024 A 
ATOM     20  CD1 TYR A 338     -39.522 126.638   4.922  1.00 39.27    -0.002 A 
BRANCH  18  21
ATOM     21  OH  TYR A 338     -37.234 129.401   4.246  1.00 43.36    -0.359 OA
ATOM     22  HH  TYR A 338     -36.547 129.712   4.823  1.00  0.00     0.217 HD
ENDBRANCH  18  21
ENDBRANCH  14  15
ENDBRANCH  13  14
END_RES TYR A 338
ENDMDL
MODEL 4
REMARK VINA RESULT:    -7.763      1.901     16.771
REMARK INTER + INTRA:         -10.722
REMARK INTER:                 -10.395
REMARK INTRA:                  -0.327
REMARK UNBOUND:                -2.960
REMARK  0 active torsions:
REMARK  status: ('A' for Active; 'I' for Inactive)
REMARK       I    between atoms: C3_3  and  O3_21 
REMARK       I    between atoms: C6_6  and  C7_7 
REMARK       I    between atoms: C8_8  and  C9_9 
REMARK       I    between atoms: C10_10  and  C11_11 
REMARK       I    between atoms: C12_12  and  C13_13 
REMARK       I    between atoms: C14_14  and  C15_15 
REMARK       I    between atoms: C23_25  and  O23_43 
REMARK       I    between atoms: C26_28  and  C27_29 
REMARK       I    between atoms: C28_30  and  C29_31 
REMARK       I    between atoms: C30_32  and  C31_33 
REMARK       I    between atoms: C32_34  and  C33_35 
REMARK       I    between atoms: C34_36  and  C35_37 
ROOT
HETATM    1  C1  VFQ Y1621     -34.147 128.210   6.933  1.00 26.19    -0.018 C 
HETATM    2  C2  VFQ Y1621     -33.315 127.512   5.865  1.00 26.65     0.045 C 
HETATM    3  C3  VFQ Y1621     -32.055 128.215   5.398  1.00 28.07     0.123 C 
HETATM    4  C4  VFQ Y1621     -31.336 128.883   6.541  1.00 30.07     0.066 C 
HETATM    5  C5  VFQ Y1621     -32.273 129.832   7.216  1.00 28.83    -0.074 C 
HETATM    6  C6  VFQ Y1621     -33.498 129.430   7.570  1.00 27.49    -0.048 C 
HETATM    7  C7  VFQ Y1621     -34.285 130.147   8.604  1.00 29.45     0.009 C 
HETATM    8  C8  VFQ Y1621     -34.861 131.330   8.377  1.00 27.83     0.007 C 
HETATM    9  C9  VFQ Y1621     -35.673 132.021   9.383  1.00 26.06    -0.062 C 
HETATM   10  C10 VFQ Y1621     -36.439 133.007   8.923  1.00 25.01     0.007 C 
HETATM   11  C11 VFQ Y1621     -37.357 133.782   9.729  1.00 25.09     0.001 C 
HETATM   12  C12 VFQ Y1621     -38.042 134.686   9.055  1.00 26.01     0.007 C 
HETATM   13  C13 VFQ Y1621     -39.075 135.524   9.665  1.00 26.36    -0.062 C 
HETATM   14  C14 VFQ Y1621     -39.765 136.336   8.861  1.00 27.67     0.007 C 
HETATM   15  C15 VFQ Y1621     -40.835 137.174   9.379  1.00 28.38     0.001 C 
HETATM   16  C16 VFQ Y1621     -34.423 127.143   7.977  1.00 26.46     0.020 C 
HETATM   17  C17 VFQ Y1621     -35.460 128.670   6.315  1.00 26.61     0.020 C 
HETATM   18  C18 VFQ Y1621     -31.422 130.713   8.070  1.00 29.43     0.044 C 
HETATM   19  C19 VFQ Y1621     -35.653 131.626  10.825  1.00 26.07     0.048 C 
HETATM   20  C20 VFQ Y1621     -39.376 135.418  11.128  1.00 25.83     0.048 C 
HETATM   21  O3  VFQ Y1621     -31.185 127.253   4.808  1.00 27.44    -0.395 OA
ATOM     22  H3  VFQ Y1621     -30.396 127.694   4.515  1.00  0.00     0.210 HD
HETATM   23  C21 VFQ Y1621     -50.648 145.485   9.681  1.00 19.07    -0.018 C 
HETATM   24  C22 VFQ Y1621     -51.668 146.135  10.635  1.00 18.69     0.045 C 
HETATM   25  C23 VFQ Y1621     -51.152 147.217  11.579  1.00 19.88     0.123 C 
HETATM   26  C24 VFQ Y1621     -49.729 146.957  12.102  1.00 19.59     0.066 C 
HETATM   27  C25 VFQ Y1621     -48.758 146.281  11.184  1.00 18.61    -0.074 C 
HETATM   28  C26 VFQ Y1621     -49.144 145.590  10.054  1.00 18.29    -0.048 C 
HETATM   29  C27 VFQ Y1621     -48.152 144.938   9.173  1.00 19.20     0.009 C 
HETATM   30  C28 VFQ Y1621     -47.497 143.766   9.372  1.00 18.47     0.007 C 
HETATM   31  C29 VFQ Y1621     -46.420 143.243   8.581  1.00 29.73    -0.062 C 
HETATM   32  C30 VFQ Y1621     -46.071 141.979   8.798  1.00 28.64     0.007 C 
HETATM   33  C31 VFQ Y1621     -45.005 141.301   8.090  1.00 27.79     0.001 C 
HETATM   34  C32 VFQ Y1621     -44.356 140.400   8.806  1.00 27.11     0.007 C 
HETATM   35  C33 VFQ Y1621     -43.254 139.610   8.259  1.00 25.78    -0.062 C 
HETATM   36  C34 VFQ Y1621     -42.603 138.755   9.050  1.00 26.10     0.007 C 
HETATM   37  C35 VFQ Y1621     -41.516 137.936   8.539  1.00 27.22     0.001 C 
HETATM   38  C36 VFQ Y1621     -50.883 146.057   8.269  1.00 17.04     0.020 C 
HETATM   39  C37 VFQ Y1621     -51.096 144.013   9.695  1.00 20.18     0.020 C 
HETATM   40  C38 VFQ Y1621     -47.399 146.520  11.728  1.00 19.93     0.044 C 
HETATM   41  C39 VFQ Y1621     -45.755 144.109   7.564  1.00 32.37     0.048 C 
HETATM   42  C40 VFQ Y1621     -42.892 139.774   6.827  1.00 25.14     0.048 C 
HETATM   43  O23 VFQ Y1621     -52.053 147.405  12.661  1.00 19.51    -0.395 OA
ATOM     44  H23 VFQ Y1621     -51.731 148.078  13.248  1.00  0.00     0.210 HD
ENDROOT
TORSDOF 12
BEGIN_RES PHE A  61
REMARK  2 active torsions:
REMARK  status: ('A' for Active; 'I' for Inactive)
REMARK    1  A    between atoms: CA   and  CB  
REMARK    2  A    between atoms: CB   and  CG  
ROOT
ATOM      1  CA  PHE A  61     -36.237 128.293  12.768  1.00 39.40     0.164 C 
ENDROOT
BRANCH   1   2
ATOM      2  CB  PHE A  61     -36.813 128.951  11.509  1.00 39.41     0.058 C 
BRANCH   2   3
ATOM      3  CG  PHE A  61     -37.012 128.007  10.347  1.00 39.01    -0.020 A 
ATOM      4  CD2 PHE A  61     -36.290 126.827  10.257  1.00 40.32    -0.004 A 
ATOM      5  CE2 PHE A  61     -36.472 125.962   9.186  1.00 40.20    -0.000 A 
ATOM      6  CZ  PHE A  61     -37.378 126.264   8.195  1.00 40.34    -0.000 A 
ATOM      7  CE1 PHE A  61     -38.105 127.432   8.271  1.00 41.51    -0.000 A 
ATOM      8  CD1 PHE A  61     -37.919 128.301   9.339  1.00 39.94    -0.004 A 
ENDBRANCH   2   3
ENDBRANCH   1   2
END_RES PHE A  61
BEGIN_RES VAL A 134
REMARK  1 active torsions:
REMARK  status: ('A' for Active; 'I' for Inactive)
REMARK    3  A    between atoms: CA   and  CB  
ROOT
ATOM      9  CA  VAL A 134     -29.766 132.051   9.815  1.00 40.75     0.159 C 
ENDROOT
BRANCH   9  10
ATOM     10  CB  VAL A 134     -30.864 132.765   9.009  1.00 40.76     0.029 C 
ATOM     11  CG1 VAL A 134     -32.099 132.994   9.868  1.00 41.76     0.002 C 
ATOM     12  CG2 VAL A 134     -30.365 134.075   8.419  1.00 40.56     0.002 C 
ENDBRANCH   9  10
END_RES VAL A 134
BEGIN_RES TYR A 338
REMARK  3 active torsions:
REMARK  status: ('A' for Active; 'I' for Inactive)
REMARK    4  A    between atoms: CA   and  CB  
REMARK    5  A    between atoms: CB   and  CG  
REMARK    6  A    between atoms: CZ   and  OH  
ROOT
ATOM     13  CA  TYR A 338     -41.631 124.950   6.058  1.00 38.23     0.164 C 
ENDROOT
BRANCH  13  14
ATOM     14  CB  TYR A 338     -41.621 126.456   6.339  1.00 39.15     0.058 C 
BRANCH  14  15
ATOM     15  CG  TYR A 338     -40.425 127.214   5.810  1.00 39.03    -0.020 A 
ATOM     16  CD2 TYR A 338     -40.267 128.560   6.094  1.00 40.65    -0.002 A 
ATOM     17  CE2 TYR A 338     -39.191 129.290   5.613  1.00 40.91     0.024 A 
ATOM     18  CZ  TYR A 338     -38.240 128.671   4.824  1.00 42.33     0.089 A 
ATOM     19  CE1 TYR A 338     -38.374 127.326   4.530  1.00 40.63     0.024 A 
ATOM     20  CD1 TYR A 338     -39.464 126.616   5.010  1.00 39.27    -0.002 A 
BRANCH  18  21
ATOM     21  OH  TYR A 338     -37.173 129.380   4.348  1.00 43.36    -0.359 OA
ATOM     22  HH  TYR A 338     -37.141 129.647   3.436  1.00  0.00     0.217 HD
ENDBRANCH  18  21
ENDBRANCH  14  15
ENDBRANCH  13  14
END_RES TYR A 338
ENDMDL
