MODEL 1
REMARK VINA RESULT:    -9.771      0.000      0.000
REMARK INTER + INTRA:         -12.643
REMARK INTER:                  -9.771
REMARK INTRA:                  -2.872
REMARK UNBOUND:                -2.872
REMARK  0 active torsions:
REMARK  status: ('A' for Active; 'I' for Inactive)
REMARK       I    between atoms: C3_3  and  O3_21 
REMARK       I    between atoms: C6_6  and  C7_7 
REMARK       I    between atoms: C8_8  and  C9_9 
REMARK       I    between atoms: C10_10  and  C11_11 
REMARK       I    between atoms: C12_12  and  C13_13 
REMARK       I    between atoms: C14_14  and  C15_15 
REMARK       I    between atoms: C23_25  and  O23_43 
REMARK       I    between atoms: C26_28  and  C27_29 
REMARK       I    between atoms: C28_30  and  C29_31 
REMARK       I    between atoms: C30_32  and  C31_33 
REMARK       I    between atoms: C32_34  and  C33_35 
REMARK       I    between atoms: C34_36  and  C35_37 
ROOT
HETATM    1  C1  VFQ 61621     -34.352 127.514   6.465  1.00 90.34    -0.018 C 
HETATM    2  C2  VFQ 61621     -33.762 126.988   5.160  1.00 90.34     0.045 C 
HETATM    3  C3  VFQ 61621     -32.479 127.629   4.654  1.00 90.34     0.123 C 
HETATM    4  C4  VFQ 61621     -31.596 128.085   5.797  1.00 90.34     0.066 C 
HETATM    5  C5  VFQ 61621     -32.402 129.021   6.650  1.00 90.34    -0.074 C 
HETATM    6  C6  VFQ 61621     -33.603 128.666   7.100  1.00 90.34    -0.048 C 
HETATM    7  C7  VFQ 61621     -34.243 129.364   8.243  1.00 90.34     0.009 C 
HETATM    8  C8  VFQ 61621     -34.870 130.530   8.074  1.00 90.34     0.007 C 
HETATM    9  C9  VFQ 61621     -35.552 131.271   9.143  1.00 90.34    -0.062 C 
HETATM   10  C10 VFQ 61621     -36.379 132.232   8.736  1.00 90.34     0.007 C 
HETATM   11  C11 VFQ 61621     -37.200 133.098   9.566  1.00 90.34     0.001 C 
HETATM   12  C12 VFQ 61621     -37.926 133.977   8.882  1.00 90.34     0.007 C 
HETATM   13  C13 VFQ 61621     -38.846 134.915   9.533  1.00 90.34    -0.062 C 
HETATM   14  C14 VFQ 61621     -39.566 135.738   8.764  1.00 90.34     0.007 C 
HETATM   15  C15 VFQ 61621     -40.529 136.669   9.339  1.00 90.34     0.001 C 
HETATM   16  C16 VFQ 61621     -34.441 126.325   7.413  1.00 90.34     0.020 C 
HETATM   17  C17 VFQ 61621     -35.752 128.023   6.176  1.00 90.34     0.020 C 
HETATM   18  C18 VFQ 61621     -31.460 129.844   7.471  1.00 90.34     0.044 C 
HETATM   19  C19 VFQ 61621     -35.342 130.958  10.592  1.00 90.34     0.048 C 
HETATM   20  C20 VFQ 61621     -38.985 134.931  11.024  1.00 90.34     0.048 C 
HETATM   21  O3  VFQ 61621     -31.766 126.652   3.898  1.00 90.34    -0.395 OA
ATOM     22  H3  VFQ 61621     -32.319 126.366   3.181  1.00  0.00     0.210 HD
HETATM   23  C21 VFQ 61621     -50.382 144.488  10.284  1.00 21.49    -0.018 C 
HETATM   24  C22 VFQ 61621     -51.387 145.423  10.946  1.00 21.49     0.045 C 
HETATM   25  C23 VFQ 61621     -50.842 146.607  11.729  1.00 21.49     0.123 C 
HETATM   26  C24 VFQ 61621     -49.545 146.275  12.432  1.00 21.49     0.066 C 
HETATM   27  C25 VFQ 61621     -48.551 145.726  11.447  1.00 21.49    -0.074 C 
HETATM   28  C26 VFQ 61621     -48.929 144.899  10.463  1.00 21.49    -0.048 C 
HETATM   29  C27 VFQ 61621     -47.914 144.375   9.508  1.00 21.49     0.009 C 
HETATM   30  C28 VFQ 61621     -47.323 143.194   9.696  1.00 21.49     0.007 C 
HETATM   31  C29 VFQ 61621     -46.317 142.638   8.785  1.00 90.34    -0.062 C 
HETATM   32  C30 VFQ 61621     -45.916 141.398   9.052  1.00 90.34     0.007 C 
HETATM   33  C31 VFQ 61621     -44.948 140.641   8.272  1.00 90.34     0.001 C 
HETATM   34  C32 VFQ 61621     -44.144 139.837   8.959  1.00 90.34     0.007 C 
HETATM   35  C33 VFQ 61621     -43.138 138.987   8.315  1.00 90.34    -0.062 C 
HETATM   36  C34 VFQ 61621     -42.283 138.300   9.087  1.00 90.34     0.007 C 
HETATM   37  C35 VFQ 61621     -41.282 137.401   8.524  1.00 90.34     0.001 C 
HETATM   38  C36 VFQ 61621     -50.678 144.481   8.792  1.00 21.49     0.020 C 
HETATM   39  C37 VFQ 61621     -50.650 143.092  10.844  1.00 21.49     0.020 C 
HETATM   40  C38 VFQ 61621     -47.125 146.161  11.623  1.00 21.49     0.044 C 
HETATM   41  C39 VFQ 61621     -45.790 143.409   7.615  1.00 90.34     0.048 C 
HETATM   42  C40 VFQ 61621     -43.108 138.883   6.824  1.00 90.34     0.048 C 
HETATM   43  O23 VFQ 61621     -51.805 146.962  12.727  1.00 21.49    -0.395 OA
ATOM     44  H23 VFQ 61621     -52.620 147.171  12.284  1.00  0.00     0.210 HD
ENDROOT
TORSDOF 12
BEGIN_RES PHE A  61
REMARK  2 active torsions:
REMARK  status: ('A' for Active; 'I' for Inactive)
REMARK    1  A    between atoms: CA   and  CB  
REMARK    2  A    between atoms: CB   and  CG  
ROOT
ATOM      1  CA  PHE A  61     -36.237 128.293  12.768  1.00 39.40     0.164 C 
ENDROOT
BRANCH   1   2
ATOM      2  CB  PHE A  61     -36.813 128.951  11.509  1.00 39.41     0.058 C 
BRANCH   2   3
ATOM      3  CG  PHE A  61     -37.026 128.004  10.352  1.00 39.01    -0.020 A 
ATOM      4  CD2 PHE A  61     -36.279 126.843  10.236  1.00 40.32    -0.004 A 
ATOM      5  CE2 PHE A  61     -36.474 125.974   9.169  1.00 40.20    -0.000 A 
ATOM      6  CZ  PHE A  61     -37.420 126.255   8.210  1.00 40.34    -0.000 A 
ATOM      7  CE1 PHE A  61     -38.171 127.405   8.311  1.00 41.51    -0.000 A 
ATOM      8  CD1 PHE A  61     -37.972 128.277   9.374  1.00 39.94    -0.004 A 
ENDBRANCH   2   3
ENDBRANCH   1   2
END_RES PHE A  61
BEGIN_RES VAL A 134
REMARK  1 active torsions:
REMARK  status: ('A' for Active; 'I' for Inactive)
REMARK    3  A    between atoms: CA   and  CB  
ROOT
ATOM      9  CA  VAL A 134     -29.766 132.051   9.815  1.00 40.75     0.159 C 
ENDROOT
BRANCH   9  10
ATOM     10  CB  VAL A 134     -30.864 132.765   9.009  1.00 40.76     0.029 C 
ATOM     11  CG1 VAL A 134     -30.874 132.280   7.567  1.00 41.76     0.002 C 
ATOM     12  CG2 VAL A 134     -32.233 132.590   9.648  1.00 40.56     0.002 C 
ENDBRANCH   9  10
END_RES VAL A 134
BEGIN_RES TYR A 338
REMARK  3 active torsions:
REMARK  status: ('A' for Active; 'I' for Inactive)
REMARK    4  A    between atoms: CA   and  CB  
REMARK    5  A    between atoms: CB   and  CG  
REMARK    6  A    between atoms: CZ   and  OH  
ROOT
ATOM     13  CA  TYR A 338     -41.631 124.950   6.058  1.00 38.23     0.164 C 
ENDROOT
BRANCH  13  14
ATOM     14  CB  TYR A 338     -41.621 126.456   6.339  1.00 39.15     0.058 C 
BRANCH  14  15
ATOM     15  CG  TYR A 338     -40.428 127.215   5.805  1.00 39.03    -0.020 A 
ATOM     16  CD2 TYR A 338     -40.262 128.557   6.101  1.00 40.65    -0.002 A 
ATOM     17  CE2 TYR A 338     -39.189 129.288   5.615  1.00 40.91     0.024 A 
ATOM     18  CZ  TYR A 338     -38.249 128.674   4.809  1.00 42.33     0.089 A 
ATOM     19  CE1 TYR A 338     -38.391 127.332   4.503  1.00 40.63     0.024 A 
ATOM     20  CD1 TYR A 338     -39.478 126.622   4.988  1.00 39.27    -0.002 A 
BRANCH  18  21
ATOM     21  OH  TYR A 338     -37.184 129.384   4.328  1.00 43.36    -0.359 OA
ATOM     22  HH  TYR A 338     -36.304 129.194   4.630  1.00  0.00     0.217 HD
ENDBRANCH  18  21
ENDBRANCH  14  15
ENDBRANCH  13  14
END_RES TYR A 338
ENDMDL
MODEL 2
REMARK VINA RESULT:    -9.256      0.228      0.919
REMARK INTER + INTRA:         -12.129
REMARK INTER:                  -8.854
REMARK INTRA:                  -3.275
REMARK UNBOUND:                -2.872
REMARK  0 active torsions:
REMARK  status: ('A' for Active; 'I' for Inactive)
REMARK       I    between atoms: C3_3  and  O3_21 
REMARK       I    between atoms: C6_6  and  C7_7 
REMARK       I    between atoms: C8_8  and  C9_9 
REMARK       I    between atoms: C10_10  and  C11_11 
REMARK       I    between atoms: C12_12  and  C13_13 
REMARK       I    between atoms: C14_14  and  C15_15 
REMARK       I    between atoms: C23_25  and  O23_43 
REMARK       I    between atoms: C26_28  and  C27_29 
REMARK       I    between atoms: C28_30  and  C29_31 
REMARK       I    between atoms: C30_32  and  C31_33 
REMARK       I    between atoms: C32_34  and  C33_35 
REMARK       I    between atoms: C34_36  and  C35_37 
ROOT
HETATM    1  C1  VFQ 61621     -34.247 127.381   6.343  1.00 90.34    -0.018 C 
HETATM    2  C2  VFQ 61621     -33.669 126.872   5.027  1.00 90.34     0.045 C 
HETATM    3  C3  VFQ 61621     -32.392 127.520   4.516  1.00 90.34     0.123 C 
HETATM    4  C4  VFQ 61621     -31.498 127.964   5.655  1.00 90.34     0.066 C 
HETATM    5  C5  VFQ 61621     -32.298 128.889   6.526  1.00 90.34    -0.074 C 
HETATM    6  C6  VFQ 61621     -33.494 128.527   6.984  1.00 90.34    -0.048 C 
HETATM    7  C7  VFQ 61621     -34.124 129.210   8.141  1.00 90.34     0.009 C 
HETATM    8  C8  VFQ 61621     -34.754 130.378   7.992  1.00 90.34     0.007 C 
HETATM    9  C9  VFQ 61621     -35.427 131.105   9.076  1.00 90.34    -0.062 C 
HETATM   10  C10 VFQ 61621     -36.260 132.069   8.688  1.00 90.34     0.007 C 
HETATM   11  C11 VFQ 61621     -37.074 132.924   9.536  1.00 90.34     0.001 C 
HETATM   12  C12 VFQ 61621     -37.808 133.809   8.869  1.00 90.34     0.007 C 
HETATM   13  C13 VFQ 61621     -38.724 134.738   9.540  1.00 90.34    -0.062 C 
HETATM   14  C14 VFQ 61621     -39.452 135.568   8.788  1.00 90.34     0.007 C 
HETATM   15  C15 VFQ 61621     -40.411 136.491   9.383  1.00 90.34     0.001 C 
HETATM   16  C16 VFQ 61621     -34.325 126.181   7.278  1.00 90.34     0.020 C 
HETATM   17  C17 VFQ 61621     -35.650 127.891   6.074  1.00 90.34     0.020 C 
HETATM   18  C18 VFQ 61621     -31.349 129.704   7.348  1.00 90.34     0.044 C 
HETATM   19  C19 VFQ 61621     -35.202 130.775  10.520  1.00 90.34     0.048 C 
HETATM   20  C20 VFQ 61621     -38.848 134.736  11.033  1.00 90.34     0.048 C 
HETATM   21  O3  VFQ 61621     -31.684 126.554   3.741  1.00 90.34    -0.395 OA
ATOM     22  H3  VFQ 61621     -32.244 126.275   3.026  1.00  0.00     0.210 HD
HETATM   23  C21 VFQ 61621     -50.268 144.281  10.514  1.00 21.49    -0.018 C 
HETATM   24  C22 VFQ 61621     -51.268 145.207  11.197  1.00 21.49     0.045 C 
HETATM   25  C23 VFQ 61621     -50.717 146.383  11.988  1.00 21.49     0.123 C 
HETATM   26  C24 VFQ 61621     -49.413 146.044  12.674  1.00 21.49     0.066 C 
HETATM   27  C25 VFQ 61621     -48.427 145.509  11.673  1.00 21.49    -0.074 C 
HETATM   28  C26 VFQ 61621     -48.813 144.692  10.683  1.00 21.49    -0.048 C 
HETATM   29  C27 VFQ 61621     -47.807 144.181   9.713  1.00 21.49     0.009 C 
HETATM   30  C28 VFQ 61621     -47.212 142.999   9.882  1.00 21.49     0.007 C 
HETATM   31  C29 VFQ 61621     -46.214 142.456   8.955  1.00 90.34    -0.062 C 
HETATM   32  C30 VFQ 61621     -45.808 141.213   9.203  1.00 90.34     0.007 C 
HETATM   33  C31 VFQ 61621     -44.847 140.467   8.405  1.00 90.34     0.001 C 
HETATM   34  C32 VFQ 61621     -44.035 139.657   9.075  1.00 90.34     0.007 C 
HETATM   35  C33 VFQ 61621     -43.034 138.816   8.411  1.00 90.34    -0.062 C 
HETATM   36  C34 VFQ 61621     -42.170 138.122   9.167  1.00 90.34     0.007 C 
HETATM   37  C35 VFQ 61621     -41.173 137.231   8.584  1.00 90.34     0.001 C 
HETATM   38  C36 VFQ 61621     -50.578 144.290   9.025  1.00 21.49     0.020 C 
HETATM   39  C37 VFQ 61621     -50.528 142.878  11.060  1.00 21.49     0.020 C 
HETATM   40  C38 VFQ 61621     -47.000 145.944  11.841  1.00 21.49     0.044 C 
HETATM   41  C39 VFQ 61621     -45.700 143.242   7.789  1.00 90.34     0.048 C 
HETATM   42  C40 VFQ 61621     -43.018 138.729   6.919  1.00 90.34     0.048 C 
HETATM   43  O23 VFQ 61621     -51.671 146.724  12.999  1.00 21.49    -0.395 OA
ATOM     44  H23 VFQ 61621     -52.490 146.936  12.567  1.00  0.00     0.210 HD
ENDROOT
TORSDOF 12
BEGIN_RES PHE A  61
REMARK  2 active torsions:
REMARK  status: ('A' for Active; 'I' for Inactive)
REMARK    1  A    between atoms: CA   and  CB  
REMARK    2  A    between atoms: CB   and  CG  
ROOT
ATOM      1  CA  PHE A  61     -36.237 128.293  12.768  1.00 39.40     0.164 C 
ENDROOT
BRANCH   1   2
ATOM      2  CB  PHE A  61     -36.813 128.951  11.509  1.00 39.41     0.058 C 
BRANCH   2   3
ATOM      3  CG  PHE A  61     -36.999 128.010  10.343  1.00 39.01    -0.020 A 
ATOM      4  CD2 PHE A  61     -37.975 128.246   9.387  1.00 40.32    -0.004 A 
ATOM      5  CE2 PHE A  61     -38.148 127.378   8.316  1.00 40.20    -0.000 A 
ATOM      6  CZ  PHE A  61     -37.345 126.267   8.187  1.00 40.34    -0.000 A 
ATOM      7  CE1 PHE A  61     -36.369 126.020   9.127  1.00 41.51    -0.000 A 
ATOM      8  CD1 PHE A  61     -36.201 126.884  10.202  1.00 39.94    -0.004 A 
ENDBRANCH   2   3
ENDBRANCH   1   2
END_RES PHE A  61
BEGIN_RES VAL A 134
REMARK  1 active torsions:
REMARK  status: ('A' for Active; 'I' for Inactive)
REMARK    3  A    between atoms: CA   and  CB  
ROOT
ATOM      9  CA  VAL A 134     -29.766 132.051   9.815  1.00 40.75     0.159 C 
ENDROOT
BRANCH   9  10
ATOM     10  CB  VAL A 134     -30.864 132.765   9.009  1.00 40.76     0.029 C 
ATOM     11  CG1 VAL A 134     -30.966 132.184   7.606  1.00 41.76     0.002 C 
ATOM     12  CG2 VAL A 134     -32.209 132.706   9.718  1.00 40.56     0.002 C 
ENDBRANCH   9  10
END_RES VAL A 134
BEGIN_RES TYR A 338
REMARK  3 active torsions:
REMARK  status: ('A' for Active; 'I' for Inactive)
REMARK    4  A    between atoms: CA   and  CB  
REMARK    5  A    between atoms: CB   and  CG  
REMARK    6  A    between atoms: CZ   and  OH  
ROOT
ATOM     13  CA  TYR A 338     -41.631 124.950   6.058  1.00 38.23     0.164 C 
ENDROOT
BRANCH  13  14
ATOM     14  CB  TYR A 338     -41.621 126.456   6.339  1.00 39.15     0.058 C 
BRANCH  14  15
ATOM     15  CG  TYR A 338     -40.436 127.218   5.791  1.00 39.03    -0.020 A 
ATOM     16  CD2 TYR A 338     -39.463 126.565   5.054  1.00 40.65    -0.002 A 
ATOM     17  CE2 TYR A 338     -38.355 127.229   4.550  1.00 40.91     0.024 A 
ATOM     18  CZ  TYR A 338     -38.202 128.582   4.783  1.00 42.33     0.089 A 
ATOM     19  CE1 TYR A 338     -39.164 129.258   5.513  1.00 40.63     0.024 A 
ATOM     20  CD1 TYR A 338     -40.258 128.573   6.019  1.00 39.27    -0.002 A 
BRANCH  18  21
ATOM     21  OH  TYR A 338     -37.116 129.248   4.287  1.00 43.36    -0.359 OA
ATOM     22  HH  TYR A 338     -36.246 128.872   4.362  1.00  0.00     0.217 HD
ENDBRANCH  18  21
ENDBRANCH  14  15
ENDBRANCH  13  14
END_RES TYR A 338
ENDMDL
MODEL 3
REMARK VINA RESULT:    -7.343      0.977     16.748
REMARK INTER + INTRA:         -10.216
REMARK INTER:                  -9.955
REMARK INTRA:                  -0.261
REMARK UNBOUND:                -2.872
REMARK  0 active torsions:
REMARK  status: ('A' for Active; 'I' for Inactive)
REMARK       I    between atoms: C3_3  and  O3_21 
REMARK       I    between atoms: C6_6  and  C7_7 
REMARK       I    between atoms: C8_8  and  C9_9 
REMARK       I    between atoms: C10_10  and  C11_11 
REMARK       I    between atoms: C12_12  and  C13_13 
REMARK       I    between atoms: C14_14  and  C15_15 
REMARK       I    between atoms: C23_25  and  O23_43 
REMARK       I    between atoms: C26_28  and  C27_29 
REMARK       I    between atoms: C28_30  and  C29_31 
REMARK       I    between atoms: C30_32  and  C31_33 
REMARK       I    between atoms: C32_34  and  C33_35 
REMARK       I    between atoms: C34_36  and  C35_37 
ROOT
HETATM    1  C1  VFQ 61621     -50.690 144.707  10.754  1.00 90.34    -0.018 C 
HETATM    2  C2  VFQ 61621     -51.438 145.106  12.022  1.00 90.34     0.045 C 
HETATM    3  C3  VFQ 61621     -50.855 146.231  12.864  1.00 90.34     0.123 C 
HETATM    4  C4  VFQ 61621     -50.143 147.257  12.007  1.00 90.34     0.066 C 
HETATM    5  C5  VFQ 61621     -49.092 146.536  11.213  1.00 90.34    -0.074 C 
HETATM    6  C6  VFQ 61621     -49.403 145.460  10.493  1.00 90.34    -0.048 C 
HETATM    7  C7  VFQ 61621     -48.521 144.972   9.404  1.00 90.34     0.009 C 
HETATM    8  C8  VFQ 61621     -47.440 144.235   9.673  1.00 90.34     0.007 C 
HETATM    9  C9  VFQ 61621     -46.532 143.690   8.655  1.00 90.34    -0.062 C 
HETATM   10  C10 VFQ 61621     -45.708 142.732   9.078  1.00 90.34     0.007 C 
HETATM   11  C11 VFQ 61621     -44.732 141.999   8.290  1.00 90.34     0.001 C 
HETATM   12  C12 VFQ 61621     -44.039 141.100   8.983  1.00 90.34     0.007 C 
HETATM   13  C13 VFQ 61621     -43.032 140.233   8.363  1.00 90.34    -0.062 C 
HETATM   14  C14 VFQ 61621     -42.411 139.331   9.128  1.00 90.34     0.007 C 
HETATM   15  C15 VFQ 61621     -41.427 138.410   8.573  1.00 90.34     0.001 C 
HETATM   16  C16 VFQ 61621     -51.670 144.875   9.600  1.00 90.34     0.020 C 
HETATM   17  C17 VFQ 61621     -50.311 143.243  10.873  1.00 90.34     0.020 C 
HETATM   18  C18 VFQ 61621     -48.082 147.536  10.747  1.00 90.34     0.044 C 
HETATM   19  C19 VFQ 61621     -46.542 144.167   7.236  1.00 90.34     0.048 C 
HETATM   20  C20 VFQ 61621     -42.726 140.349   6.901  1.00 90.34     0.048 C 
HETATM   21  O3  VFQ 61621     -51.930 146.879  13.541  1.00 90.34    -0.395 OA
ATOM     22  H3  VFQ 61621     -52.377 146.236  14.079  1.00  0.00     0.210 HD
HETATM   23  C21 VFQ 61621     -34.016 128.278   7.333  1.00 21.49    -0.018 C 
HETATM   24  C22 VFQ 61621     -33.013 127.330   6.686  1.00 21.49     0.045 C 
HETATM   25  C23 VFQ 61621     -31.674 127.906   6.252  1.00 21.49     0.123 C 
HETATM   26  C24 VFQ 61621     -31.803 129.325   5.747  1.00 21.49     0.066 C 
HETATM   27  C25 VFQ 61621     -32.493 130.177   6.776  1.00 21.49    -0.074 C 
HETATM   28  C26 VFQ 61621     -33.515 129.703   7.502  1.00 21.49    -0.048 C 
HETATM   29  C27 VFQ 61621     -34.173 130.579   8.510  1.00 21.49     0.009 C 
HETATM   30  C28 VFQ 61621     -35.265 131.284   8.214  1.00 21.49     0.007 C 
HETATM   31  C29 VFQ 61621     -35.946 132.162   9.173  1.00 90.34    -0.062 C 
HETATM   32  C30 VFQ 61621     -37.090 132.698   8.756  1.00 90.34     0.007 C 
HETATM   33  C31 VFQ 61621     -37.944 133.575   9.542  1.00 90.34     0.001 C 
HETATM   34  C32 VFQ 61621     -38.559 134.545   8.875  1.00 90.34     0.007 C 
HETATM   35  C33 VFQ 61621     -39.475 135.491   9.520  1.00 90.34    -0.062 C 
HETATM   36  C34 VFQ 61621     -39.957 136.516   8.802  1.00 90.34     0.007 C 
HETATM   37  C35 VFQ 61621     -40.905 137.474   9.359  1.00 90.34     0.001 C 
HETATM   38  C36 VFQ 61621     -34.333 127.734   8.717  1.00 21.49     0.020 C 
HETATM   39  C37 VFQ 61621     -35.284 128.219   6.482  1.00 21.49     0.020 C 
HETATM   40  C38 VFQ 61621     -31.969 131.574   6.947  1.00 21.49     0.044 C 
HETATM   41  C39 VFQ 61621     -35.401 132.419  10.543  1.00 90.34     0.048 C 
HETATM   42  C40 VFQ 61621     -39.872 135.275  10.945  1.00 90.34     0.048 C 
HETATM   43  O23 VFQ 61621     -31.171 127.101   5.180  1.00 21.49    -0.395 OA
ATOM     44  H23 VFQ 61621     -31.090 126.209   5.497  1.00  0.00     0.210 HD
ENDROOT
TORSDOF 12
BEGIN_RES PHE A  61
REMARK  2 active torsions:
REMARK  status: ('A' for Active; 'I' for Inactive)
REMARK    1  A    between atoms: CA   and  CB  
REMARK    2  A    between atoms: CB   and  CG  
ROOT
ATOM      1  CA  PHE A  61     -36.237 128.293  12.768  1.00 39.40     0.164 C 
ENDROOT
BRANCH   1   2
ATOM      2  CB  PHE A  61     -36.813 128.951  11.509  1.00 39.41     0.058 C 
BRANCH   2   3
ATOM      3  CG  PHE A  61     -37.035 128.003  10.355  1.00 39.01    -0.020 A 
ATOM      4  CD2 PHE A  61     -36.331 126.812  10.267  1.00 40.32    -0.004 A 
ATOM      5  CE2 PHE A  61     -36.534 125.942   9.203  1.00 40.20    -0.000 A 
ATOM      6  CZ  PHE A  61     -37.445 126.250   8.219  1.00 40.34    -0.000 A 
ATOM      7  CE1 PHE A  61     -38.153 127.429   8.292  1.00 41.51    -0.000 A 
ATOM      8  CD1 PHE A  61     -37.946 128.302   9.352  1.00 39.94    -0.004 A 
ENDBRANCH   2   3
ENDBRANCH   1   2
END_RES PHE A  61
BEGIN_RES VAL A 134
REMARK  1 active torsions:
REMARK  status: ('A' for Active; 'I' for Inactive)
REMARK    3  A    between atoms: CA   and  CB  
ROOT
ATOM      9  CA  VAL A 134     -29.766 132.051   9.815  1.00 40.75     0.159 C 
ENDROOT
BRANCH   9  10
ATOM     10  CB  VAL A 134     -30.864 132.765   9.009  1.00 40.76     0.029 C 
ATOM     11  CG1 VAL A 134     -32.106 132.977   9.862  1.00 41.76     0.002 C 
ATOM     12  CG2 VAL A 134     -30.371 134.084   8.435  1.00 40.56     0.002 C 
ENDBRANCH   9  10
END_RES VAL A 134
BEGIN_RES TYR A 338
REMARK  3 active torsions:
REMARK  status: ('A' for Active; 'I' for Inactive)
REMARK    4  A    between atoms: CA   and  CB  
REMARK    5  A    between atoms: CB   and  CG  
REMARK    6  A    between atoms: CZ   and  OH  
ROOT
ATOM     13  CA  TYR A 338     -41.631 124.950   6.058  1.00 38.23     0.164 C 
ENDROOT
BRANCH  13  14
ATOM     14  CB  TYR A 338     -41.621 126.456   6.339  1.00 39.15     0.058 C 
BRANCH  14  15
ATOM     15  CG  TYR A 338     -40.413 127.210   5.832  1.00 39.03    -0.020 A 
ATOM     16  CD2 TYR A 338     -40.257 128.556   6.116  1.00 40.65    -0.002 A 
ATOM     17  CE2 TYR A 338     -39.170 129.282   5.654  1.00 40.91     0.024 A 
ATOM     18  CZ  TYR A 338     -38.206 128.659   4.885  1.00 42.33     0.089 A 
ATOM     19  CE1 TYR A 338     -38.337 127.313   4.592  1.00 40.63     0.024 A 
ATOM     20  CD1 TYR A 338     -39.438 126.608   5.052  1.00 39.27    -0.002 A 
BRANCH  18  21
ATOM     21  OH  TYR A 338     -37.127 129.364   4.428  1.00 43.36    -0.359 OA
ATOM     22  HH  TYR A 338     -37.121 129.714   3.545  1.00  0.00     0.217 HD
ENDBRANCH  18  21
ENDBRANCH  14  15
ENDBRANCH  13  14
END_RES TYR A 338
ENDMDL
