MODEL 1
REMARK VINA RESULT:   -14.000      0.000      0.000
REMARK INTER + INTRA:         -14.409
REMARK INTER:                 -14.000
REMARK INTRA:                  -0.409
REMARK UNBOUND:                -0.409
REMARK  0 active torsions:
REMARK  status: ('A' for Active; 'I' for Inactive)
REMARK       I    between atoms: C3_3  and  O3_21 
REMARK       I    between atoms: C6_6  and  C7_7 
REMARK       I    between atoms: C8_8  and  C9_9 
REMARK       I    between atoms: C10_10  and  C11_11 
REMARK       I    between atoms: C12_12  and  C13_13 
REMARK       I    between atoms: C14_14  and  C15_15 
REMARK       I    between atoms: C23_25  and  O23_43 
REMARK       I    between atoms: C26_28  and  C27_29 
REMARK       I    between atoms: C28_30  and  C29_31 
REMARK       I    between atoms: C30_32  and  C31_33 
REMARK       I    between atoms: C32_34  and  C33_35 
REMARK       I    between atoms: C34_36  and  C35_37 
ROOT
HETATM    1  C1  VFQ 1 617     -49.847 144.095  11.413  1.00 21.49    -0.018 C 
HETATM    2  C2  VFQ 1 617     -50.359 144.338  12.829  1.00 21.49     0.045 C 
HETATM    3  C3  VFQ 1 617     -49.682 145.427  13.647  1.00 21.49     0.123 C 
HETATM    4  C4  VFQ 1 617     -49.250 146.595  12.791  1.00 21.49     0.066 C 
HETATM    5  C5  VFQ 1 617     -48.395 146.112  11.654  1.00 21.49    -0.074 C 
HETATM    6  C6  VFQ 1 617     -48.668 144.968  11.012  1.00 21.49    -0.048 C 
HETATM    7  C7  VFQ 1 617     -47.816 144.540   9.870  1.00 21.49     0.009 C 
HETATM    8  C8  VFQ 1 617     -46.791 143.703  10.039  1.00 21.49     0.007 C 
HETATM    9  C9  VFQ 1 617     -45.918 143.252   8.945  1.00 21.49    -0.062 C 
HETATM   10  C10 VFQ 1 617     -45.007 142.327   9.265  1.00 21.49     0.007 C 
HETATM   11  C11 VFQ 1 617     -44.037 141.715   8.368  1.00 21.49     0.001 C 
HETATM   12  C12 VFQ 1 617     -43.276 140.822   8.984  1.00 21.49     0.007 C 
HETATM   13  C13 VFQ 1 617     -42.228 140.007   8.359  1.00 21.49    -0.062 C 
HETATM   14  C14 VFQ 1 617     -41.726 139.019   9.104  1.00 21.49     0.007 C 
HETATM   15  C15 VFQ 1 617     -40.713 138.098   8.617  1.00 21.49     0.001 C 
HETATM   16  C16 VFQ 1 617     -51.040 144.288  10.478  1.00 21.49     0.020 C 
HETATM   17  C17 VFQ 1 617     -49.394 142.645  11.334  1.00 21.49     0.020 C 
HETATM   18  C18 VFQ 1 617     -47.250 146.999  11.255  1.00 21.49     0.044 C 
HETATM   19  C19 VFQ 1 617     -46.039 143.819   7.565  1.00 21.49     0.048 C 
HETATM   20  C20 VFQ 1 617     -41.756 140.251   6.959  1.00 21.49     0.048 C 
HETATM   21  O3  VFQ 1 617     -50.627 145.911  14.607  1.00 21.49    -0.395 OA
ATOM     22  H3  VFQ 1 617     -50.204 146.591  15.118  1.00  0.00     0.210 HD
HETATM   23  C21 VFQ 1 617     -33.789 127.820   7.209  1.00 87.69    -0.018 C 
HETATM   24  C22 VFQ 1 617     -32.715 127.001   6.520  1.00 87.69     0.045 C 
HETATM   25  C23 VFQ 1 617     -31.810 127.743   5.544  1.00 87.69     0.123 C 
HETATM   26  C24 VFQ 1 617     -31.590 129.218   5.856  1.00 87.69     0.066 C 
HETATM   27  C25 VFQ 1 617     -32.116 129.631   7.206  1.00 87.69    -0.074 C 
HETATM   28  C26 VFQ 1 617     -33.258 129.144   7.686  1.00 87.69    -0.048 C 
HETATM   29  C27 VFQ 1 617     -34.016 129.870   8.730  1.00 87.69     0.009 C 
HETATM   30  C28 VFQ 1 617     -34.828 130.872   8.410  1.00 87.69     0.007 C 
HETATM   31  C29 VFQ 1 617     -35.607 131.597   9.416  1.00 21.49    -0.062 C 
HETATM   32  C30 VFQ 1 617     -36.579 132.376   8.952  1.00 21.49     0.007 C 
HETATM   33  C31 VFQ 1 617     -37.476 133.155   9.787  1.00 21.49     0.001 C 
HETATM   34  C32 VFQ 1 617     -38.054 134.153   9.141  1.00 21.49     0.007 C 
HETATM   35  C33 VFQ 1 617     -39.013 135.091   9.728  1.00 21.49    -0.062 C 
HETATM   36  C34 VFQ 1 617     -39.451 136.078   8.939  1.00 21.49     0.007 C 
HETATM   37  C35 VFQ 1 617     -40.426 137.054   9.386  1.00 21.49     0.001 C 
HETATM   38  C36 VFQ 1 617     -34.228 127.042   8.429  1.00 87.69     0.020 C 
HETATM   39  C37 VFQ 1 617     -35.000 128.002   6.300  1.00 87.69     0.020 C 
HETATM   40  C38 VFQ 1 617     -31.295 130.605   7.991  1.00 87.69     0.044 C 
HETATM   41  C39 VFQ 1 617     -35.336 131.453  10.882  1.00 21.49     0.048 C 
HETATM   42  C40 VFQ 1 617     -39.478 134.930  11.140  1.00 21.49     0.048 C 
HETATM   43  O23 VFQ 1 617     -32.410 127.647   4.255  1.00 87.69    -0.395 OA
ATOM     44  H23 VFQ 1 617     -31.846 128.109   3.647  1.00  0.00     0.210 HD
ENDROOT
TORSDOF 12
BEGIN_RES PHE A  61
REMARK  2 active torsions:
REMARK  status: ('A' for Active; 'I' for Inactive)
REMARK    1  A    between atoms: CA   and  CB  
REMARK    2  A    between atoms: CB   and  CG  
ROOT
ATOM      1  CA  PHE A  61     -36.237 128.293  12.768  1.00 39.40     0.164 C 
ENDROOT
BRANCH   1   2
ATOM      2  CB  PHE A  61     -36.813 128.951  11.509  1.00 39.41     0.058 C 
BRANCH   2   3
ATOM      3  CG  PHE A  61     -37.004 128.009  10.344  1.00 39.01    -0.020 A 
ATOM      4  CD2 PHE A  61     -36.331 126.799  10.290  1.00 40.32    -0.004 A 
ATOM      5  CE2 PHE A  61     -36.505 125.935   9.216  1.00 40.20    -0.000 A 
ATOM      6  CZ  PHE A  61     -37.356 126.269   8.188  1.00 40.34    -0.000 A 
ATOM      7  CE1 PHE A  61     -38.034 127.467   8.228  1.00 41.51    -0.000 A 
ATOM      8  CD1 PHE A  61     -37.856 128.334   9.298  1.00 39.94    -0.004 A 
ENDBRANCH   2   3
ENDBRANCH   1   2
END_RES PHE A  61
BEGIN_RES VAL A 134
REMARK  1 active torsions:
REMARK  status: ('A' for Active; 'I' for Inactive)
REMARK    3  A    between atoms: CA   and  CB  
ROOT
ATOM      9  CA  VAL A 134     -29.766 132.051   9.815  1.00 40.75     0.159 C 
ENDROOT
BRANCH   9  10
ATOM     10  CB  VAL A 134     -30.864 132.765   9.009  1.00 40.76     0.029 C 
ATOM     11  CG1 VAL A 134     -32.107 132.975   9.861  1.00 41.76     0.002 C 
ATOM     12  CG2 VAL A 134     -30.372 134.085   8.437  1.00 40.56     0.002 C 
ENDBRANCH   9  10
END_RES VAL A 134
BEGIN_RES TYR A 338
REMARK  3 active torsions:
REMARK  status: ('A' for Active; 'I' for Inactive)
REMARK    4  A    between atoms: CA   and  CB  
REMARK    5  A    between atoms: CB   and  CG  
REMARK    6  A    between atoms: CZ   and  OH  
ROOT
ATOM     13  CA  TYR A 338     -41.631 124.950   6.058  1.00 38.23     0.164 C 
ENDROOT
BRANCH  13  14
ATOM     14  CB  TYR A 338     -41.621 126.456   6.339  1.00 39.15     0.058 C 
BRANCH  14  15
ATOM     15  CG  TYR A 338     -40.413 127.210   5.832  1.00 39.03    -0.020 A 
ATOM     16  CD2 TYR A 338     -40.257 128.556   6.117  1.00 40.65    -0.002 A 
ATOM     17  CE2 TYR A 338     -39.170 129.282   5.655  1.00 40.91     0.024 A 
ATOM     18  CZ  TYR A 338     -38.206 128.660   4.884  1.00 42.33     0.089 A 
ATOM     19  CE1 TYR A 338     -38.339 127.314   4.589  1.00 40.63     0.024 A 
ATOM     20  CD1 TYR A 338     -39.439 126.609   5.050  1.00 39.27    -0.002 A 
BRANCH  18  21
ATOM     21  OH  TYR A 338     -37.128 129.365   4.427  1.00 43.36    -0.359 OA
ATOM     22  HH  TYR A 338     -36.362 128.911   4.096  1.00  0.00     0.217 HD
ENDBRANCH  18  21
ENDBRANCH  14  15
ENDBRANCH  13  14
END_RES TYR A 338
ENDMDL
MODEL 2
REMARK VINA RESULT:   -13.328      1.039     16.403
REMARK INTER + INTRA:         -13.737
REMARK INTER:                 -11.029
REMARK INTRA:                  -2.707
REMARK UNBOUND:                -0.409
REMARK  0 active torsions:
REMARK  status: ('A' for Active; 'I' for Inactive)
REMARK       I    between atoms: C3_3  and  O3_21 
REMARK       I    between atoms: C6_6  and  C7_7 
REMARK       I    between atoms: C8_8  and  C9_9 
REMARK       I    between atoms: C10_10  and  C11_11 
REMARK       I    between atoms: C12_12  and  C13_13 
REMARK       I    between atoms: C14_14  and  C15_15 
REMARK       I    between atoms: C23_25  and  O23_43 
REMARK       I    between atoms: C26_28  and  C27_29 
REMARK       I    between atoms: C28_30  and  C29_31 
REMARK       I    between atoms: C30_32  and  C31_33 
REMARK       I    between atoms: C32_34  and  C33_35 
REMARK       I    between atoms: C34_36  and  C35_37 
ROOT
HETATM    1  C1  VFQ 1 617     -34.379 127.448   6.482  1.00 21.49    -0.018 C 
HETATM    2  C2  VFQ 1 617     -33.866 127.107   5.086  1.00 21.49     0.045 C 
HETATM    3  C3  VFQ 1 617     -32.565 127.753   4.635  1.00 21.49     0.123 C 
HETATM    4  C4  VFQ 1 617     -31.589 127.922   5.776  1.00 21.49     0.066 C 
HETATM    5  C5  VFQ 1 617     -32.241 128.667   6.906  1.00 21.49    -0.074 C 
HETATM    6  C6  VFQ 1 617     -33.520 128.448   7.240  1.00 21.49    -0.048 C 
HETATM    7  C7  VFQ 1 617     -34.120 129.183   8.386  1.00 21.49     0.009 C 
HETATM    8  C8  VFQ 1 617     -34.806 130.313   8.209  1.00 21.49     0.007 C 
HETATM    9  C9  VFQ 1 617     -35.416 131.078   9.307  1.00 21.49    -0.062 C 
HETATM   10  C10 VFQ 1 617     -36.161 132.127   8.947  1.00 21.49     0.007 C 
HETATM   11  C11 VFQ 1 617     -36.874 133.034   9.837  1.00 21.49     0.001 C 
HETATM   12  C12 VFQ 1 617     -37.534 133.972   9.176  1.00 21.49     0.007 C 
HETATM   13  C13 VFQ 1 617     -38.376 135.016   9.772  1.00 21.49    -0.062 C 
HETATM   14  C14 VFQ 1 617     -39.122 135.729   8.924  1.00 21.49     0.007 C 
HETATM   15  C15 VFQ 1 617     -40.038 136.770   9.361  1.00 21.49     0.001 C 
HETATM   16  C16 VFQ 1 617     -34.507 126.124   7.235  1.00 21.49     0.020 C 
HETATM   17  C17 VFQ 1 617     -35.764 128.056   6.324  1.00 21.49     0.020 C 
HETATM   18  C18 VFQ 1 617     -31.372 129.632   7.660  1.00 21.49     0.044 C 
HETATM   19  C19 VFQ 1 617     -35.188 130.704  10.739  1.00 21.49     0.048 C 
HETATM   20  C20 VFQ 1 617     -38.416 135.261  11.249  1.00 21.49     0.048 C 
HETATM   21  O3  VFQ 1 617     -31.960 126.896   3.661  1.00 21.49    -0.395 OA
ATOM     22  H3  VFQ 1 617     -31.148 127.300   3.379  1.00  0.00     0.210 HD
HETATM   23  C21 VFQ 1 617     -49.727 144.618   9.644  1.00 87.69    -0.018 C 
HETATM   24  C22 VFQ 1 617     -50.584 145.679  10.306  1.00 87.69     0.045 C 
HETATM   25  C23 VFQ 1 617     -50.008 146.349  11.548  1.00 87.69     0.123 C 
HETATM   26  C24 VFQ 1 617     -48.487 146.431  11.594  1.00 87.69     0.066 C 
HETATM   27  C25 VFQ 1 617     -47.826 146.047  10.296  1.00 87.69    -0.074 C 
HETATM   28  C26 VFQ 1 617     -48.288 145.047   9.548  1.00 87.69    -0.048 C 
HETATM   29  C27 VFQ 1 617     -47.413 144.356   8.575  1.00 87.69     0.009 C 
HETATM   30  C28 VFQ 1 617     -46.584 143.394   8.966  1.00 87.69     0.007 C 
HETATM   31  C29 VFQ 1 617     -45.720 142.677   8.025  1.00 21.49    -0.062 C 
HETATM   32  C30 VFQ 1 617     -45.153 141.565   8.484  1.00 21.49     0.007 C 
HETATM   33  C31 VFQ 1 617     -44.287 140.704   7.701  1.00 21.49     0.001 C 
HETATM   34  C32 VFQ 1 617     -43.515 139.927   8.443  1.00 21.49     0.007 C 
HETATM   35  C33 VFQ 1 617     -42.555 138.952   7.923  1.00 21.49    -0.062 C 
HETATM   36  C34 VFQ 1 617     -41.815 138.296   8.823  1.00 21.49     0.007 C 
HETATM   37  C35 VFQ 1 617     -40.851 137.281   8.443  1.00 21.49     0.001 C 
HETATM   38  C36 VFQ 1 617     -50.243 144.445   8.234  1.00 87.69     0.020 C 
HETATM   39  C37 VFQ 1 617     -49.861 143.282  10.368  1.00 87.69     0.020 C 
HETATM   40  C38 VFQ 1 617     -46.631 146.844   9.875  1.00 87.69     0.044 C 
HETATM   41  C39 VFQ 1 617     -45.504 143.160   6.624  1.00 21.49     0.048 C 
HETATM   42  C40 VFQ 1 617     -42.431 138.705   6.453  1.00 21.49     0.048 C 
HETATM   43  O23 VFQ 1 617     -50.445 145.594  12.676  1.00 87.69    -0.395 OA
ATOM     44  H23 VFQ 1 617     -50.085 146.012  13.449  1.00  0.00     0.210 HD
ENDROOT
TORSDOF 12
BEGIN_RES PHE A  61
REMARK  2 active torsions:
REMARK  status: ('A' for Active; 'I' for Inactive)
REMARK    1  A    between atoms: CA   and  CB  
REMARK    2  A    between atoms: CB   and  CG  
ROOT
ATOM      1  CA  PHE A  61     -36.237 128.293  12.768  1.00 39.40     0.164 C 
ENDROOT
BRANCH   1   2
ATOM      2  CB  PHE A  61     -36.813 128.951  11.509  1.00 39.41     0.058 C 
BRANCH   2   3
ATOM      3  CG  PHE A  61     -37.047 128.000  10.360  1.00 39.01    -0.020 A 
ATOM      4  CD2 PHE A  61     -36.311 126.832  10.241  1.00 40.32    -0.004 A 
ATOM      5  CE2 PHE A  61     -36.525 125.960   9.181  1.00 40.20    -0.000 A 
ATOM      6  CZ  PHE A  61     -37.480 126.244   8.231  1.00 40.34    -0.000 A 
ATOM      7  CE1 PHE A  61     -38.222 127.399   8.336  1.00 41.51    -0.000 A 
ATOM      8  CD1 PHE A  61     -38.003 128.275   9.392  1.00 39.94    -0.004 A 
ENDBRANCH   2   3
ENDBRANCH   1   2
END_RES PHE A  61
BEGIN_RES VAL A 134
REMARK  1 active torsions:
REMARK  status: ('A' for Active; 'I' for Inactive)
REMARK    3  A    between atoms: CA   and  CB  
ROOT
ATOM      9  CA  VAL A 134     -29.766 132.051   9.815  1.00 40.75     0.159 C 
ENDROOT
BRANCH   9  10
ATOM     10  CB  VAL A 134     -30.864 132.765   9.009  1.00 40.76     0.029 C 
ATOM     11  CG1 VAL A 134     -30.896 132.256   7.575  1.00 41.76     0.002 C 
ATOM     12  CG2 VAL A 134     -32.228 132.618   9.666  1.00 40.56     0.002 C 
ENDBRANCH   9  10
END_RES VAL A 134
BEGIN_RES TYR A 338
REMARK  3 active torsions:
REMARK  status: ('A' for Active; 'I' for Inactive)
REMARK    4  A    between atoms: CA   and  CB  
REMARK    5  A    between atoms: CB   and  CG  
REMARK    6  A    between atoms: CZ   and  OH  
ROOT
ATOM     13  CA  TYR A 338     -41.631 124.950   6.058  1.00 38.23     0.164 C 
ENDROOT
BRANCH  13  14
ATOM     14  CB  TYR A 338     -41.621 126.456   6.339  1.00 39.15     0.058 C 
BRANCH  14  15
ATOM     15  CG  TYR A 338     -40.427 127.215   5.806  1.00 39.03    -0.020 A 
ATOM     16  CD2 TYR A 338     -40.259 128.556   6.106  1.00 40.65    -0.002 A 
ATOM     17  CE2 TYR A 338     -39.185 129.287   5.621  1.00 40.91     0.024 A 
ATOM     18  CZ  TYR A 338     -38.246 128.673   4.814  1.00 42.33     0.089 A 
ATOM     19  CE1 TYR A 338     -38.390 127.332   4.505  1.00 40.63     0.024 A 
ATOM     20  CD1 TYR A 338     -39.478 126.622   4.988  1.00 39.27    -0.002 A 
BRANCH  18  21
ATOM     21  OH  TYR A 338     -37.181 129.383   4.334  1.00 43.36    -0.359 OA
ATOM     22  HH  TYR A 338     -36.839 130.125   4.820  1.00  0.00     0.217 HD
ENDBRANCH  18  21
ENDBRANCH  14  15
ENDBRANCH  13  14
END_RES TYR A 338
ENDMDL
