MODEL 1
REMARK VINA RESULT:   -10.565      0.000      0.000
REMARK INTER + INTRA:         -11.043
REMARK INTER:                 -10.565
REMARK INTRA:                  -0.478
REMARK UNBOUND:                -0.478
REMARK  0 active torsions:
REMARK  status: ('A' for Active; 'I' for Inactive)
REMARK       I    between atoms: C3_3  and  O3_21 
REMARK       I    between atoms: C6_6  and  C7_7 
REMARK       I    between atoms: C8_8  and  C9_9 
REMARK       I    between atoms: C10_10  and  C11_11 
REMARK       I    between atoms: C12_12  and  C13_13 
REMARK       I    between atoms: C14_14  and  C15_15 
REMARK       I    between atoms: C23_25  and  O23_43 
REMARK       I    between atoms: C26_28  and  C27_29 
REMARK       I    between atoms: C28_30  and  C29_31 
REMARK       I    between atoms: C30_32  and  C31_33 
REMARK       I    between atoms: C32_34  and  C33_35 
REMARK       I    between atoms: C34_36  and  C35_37 
ROOT
HETATM    1  C1  VFQ E4620     -50.441 145.334  11.358  1.00 19.12    -0.018 C 
HETATM    2  C2  VFQ E4620     -51.351 145.996  12.413  1.00 18.29     0.045 C 
HETATM    3  C3  VFQ E4620     -50.685 146.894  13.456  1.00 18.54     0.123 C 
HETATM    4  C4  VFQ E4620     -49.552 147.746  12.884  1.00 18.55     0.066 C 
HETATM    5  C5  VFQ E4620     -48.661 147.128  11.857  1.00 18.97    -0.074 C 
HETATM    6  C6  VFQ E4620     -49.048 146.010  11.132  1.00 18.68    -0.048 C 
HETATM    7  C7  VFQ E4620     -48.187 145.405  10.105  1.00 18.46     0.009 C 
HETATM    8  C8  VFQ E4620     -47.118 144.621  10.281  1.00 18.89     0.007 C 
HETATM    9  C9  VFQ E4620     -46.189 144.131   9.260  1.00 19.10    -0.062 C 
HETATM   10  C10 VFQ E4620     -45.235 143.258   9.651  1.00 18.99     0.007 C 
HETATM   11  C11 VFQ E4620     -44.240 142.637   8.831  1.00 18.78     0.001 C 
HETATM   12  C12 VFQ E4620     -43.504 141.654   9.353  1.00 19.28     0.007 C 
HETATM   13  C13 VFQ E4620     -42.485 140.837   8.694  1.00 21.25    -0.062 C 
HETATM   14  C14 VFQ E4620     -41.953 139.820   9.409  1.00 20.64     0.007 C 
HETATM   15  C15 VFQ E4620     -41.013 138.836   8.961  1.00 21.49     0.001 C 
HETATM   16  C16 VFQ E4620     -51.277 145.373  10.069  1.00 19.29     0.020 C 
HETATM   17  C17 VFQ E4620     -50.257 143.855  11.745  1.00 16.00     0.020 C 
HETATM   18  C18 VFQ E4620     -47.416 147.951  11.808  1.00 17.87     0.044 C 
HETATM   19  C19 VFQ E4620     -46.395 144.588   7.840  1.00 17.60     0.048 C 
HETATM   20  C20 VFQ E4620     -42.158 141.137   7.258  1.00 16.75     0.048 C 
HETATM   21  O3  VFQ E4620     -51.652 147.726  14.084  1.00 19.42    -0.395 OA
ATOM     22  H3  VFQ E4620     -51.238 148.284  14.732  1.00  0.00     0.210 HD
HETATM   23  C21 VFQ E4620     -34.102 128.265   7.040  1.00 13.13    -0.018 C 
HETATM   24  C22 VFQ E4620     -33.260 127.563   5.985  1.00 13.13     0.045 C 
HETATM   25  C23 VFQ E4620     -31.789 127.908   6.004  1.00 13.13     0.123 C 
HETATM   26  C24 VFQ E4620     -31.622 129.406   5.967  1.00 13.13     0.066 C 
HETATM   27  C25 VFQ E4620     -32.372 130.062   7.093  1.00 13.13    -0.074 C 
HETATM   28  C26 VFQ E4620     -33.548 129.591   7.539  1.00 13.13    -0.048 C 
HETATM   29  C27 VFQ E4620     -34.336 130.305   8.583  1.00 13.13     0.009 C 
HETATM   30  C28 VFQ E4620     -35.146 131.348   8.350  1.00 13.13     0.007 C 
HETATM   31  C29 VFQ E4620     -35.946 132.038   9.418  1.00 25.99    -0.062 C 
HETATM   32  C30 VFQ E4620     -36.718 133.077   9.038  1.00 24.86     0.007 C 
HETATM   33  C31 VFQ E4620     -37.586 133.858   9.879  1.00 24.61     0.001 C 
HETATM   34  C32 VFQ E4620     -38.267 134.912   9.382  1.00 23.19     0.007 C 
HETATM   35  C33 VFQ E4620     -39.171 135.843  10.069  1.00 22.76    -0.062 C 
HETATM   36  C34 VFQ E4620     -39.702 136.849   9.341  1.00 21.16     0.007 C 
HETATM   37  C35 VFQ E4620     -40.599 137.874   9.786  1.00 21.72     0.001 C 
HETATM   38  C36 VFQ E4620     -34.206 127.352   8.250  1.00 13.13     0.020 C 
HETATM   39  C37 VFQ E4620     -35.471 128.448   6.405  1.00 13.13     0.020 C 
HETATM   40  C38 VFQ E4620     -31.700 131.263   7.684  1.00 13.13     0.044 C 
HETATM   41  C39 VFQ E4620     -35.843 131.559  10.839  1.00 26.11     0.048 C 
HETATM   42  C40 VFQ E4620     -39.421 135.629  11.539  1.00 21.07     0.048 C 
HETATM   43  O23 VFQ E4620     -31.181 127.359   4.837  1.00 13.13    -0.395 OA
ATOM     44  H23 VFQ E4620     -30.256 127.576   4.850  1.00  0.00     0.210 HD
ENDROOT
TORSDOF 12
BEGIN_RES PHE A  61
REMARK  2 active torsions:
REMARK  status: ('A' for Active; 'I' for Inactive)
REMARK    1  A    between atoms: CA   and  CB  
REMARK    2  A    between atoms: CB   and  CG  
ROOT
ATOM      1  CA  PHE A  61     -36.237 128.293  12.768  1.00 39.40     0.164 C 
ENDROOT
BRANCH   1   2
ATOM      2  CB  PHE A  61     -36.813 128.951  11.509  1.00 39.41     0.058 C 
BRANCH   2   3
ATOM      3  CG  PHE A  61     -37.011 128.008  10.347  1.00 39.01    -0.020 A 
ATOM      4  CD2 PHE A  61     -36.272 126.839  10.245  1.00 40.32    -0.004 A 
ATOM      5  CE2 PHE A  61     -36.453 125.974   9.173  1.00 40.20    -0.000 A 
ATOM      6  CZ  PHE A  61     -37.376 126.265   8.194  1.00 40.34    -0.000 A 
ATOM      7  CE1 PHE A  61     -38.119 127.421   8.282  1.00 41.51    -0.000 A 
ATOM      8  CD1 PHE A  61     -37.934 128.290   9.350  1.00 39.94    -0.004 A 
ENDBRANCH   2   3
ENDBRANCH   1   2
END_RES PHE A  61
BEGIN_RES VAL A 134
REMARK  1 active torsions:
REMARK  status: ('A' for Active; 'I' for Inactive)
REMARK    3  A    between atoms: CA   and  CB  
ROOT
ATOM      9  CA  VAL A 134     -29.766 132.051   9.815  1.00 40.75     0.159 C 
ENDROOT
BRANCH   9  10
ATOM     10  CB  VAL A 134     -30.864 132.765   9.009  1.00 40.76     0.029 C 
ATOM     11  CG1 VAL A 134     -32.107 132.974   9.861  1.00 41.76     0.002 C 
ATOM     12  CG2 VAL A 134     -30.372 134.086   8.438  1.00 40.56     0.002 C 
ENDBRANCH   9  10
END_RES VAL A 134
BEGIN_RES TYR A 338
REMARK  3 active torsions:
REMARK  status: ('A' for Active; 'I' for Inactive)
REMARK    4  A    between atoms: CA   and  CB  
REMARK    5  A    between atoms: CB   and  CG  
REMARK    6  A    between atoms: CZ   and  OH  
ROOT
ATOM     13  CA  TYR A 338     -41.631 124.950   6.058  1.00 38.23     0.164 C 
ENDROOT
BRANCH  13  14
ATOM     14  CB  TYR A 338     -41.621 126.456   6.339  1.00 39.15     0.058 C 
BRANCH  14  15
ATOM     15  CG  TYR A 338     -40.421 127.213   5.818  1.00 39.03    -0.020 A 
ATOM     16  CD2 TYR A 338     -40.265 128.559   6.100  1.00 40.65    -0.002 A 
ATOM     17  CE2 TYR A 338     -39.185 129.288   5.625  1.00 40.91     0.024 A 
ATOM     18  CZ  TYR A 338     -38.228 128.667   4.845  1.00 42.33     0.089 A 
ATOM     19  CE1 TYR A 338     -38.360 127.321   4.553  1.00 40.63     0.024 A 
ATOM     20  CD1 TYR A 338     -39.454 126.613   5.026  1.00 39.27    -0.002 A 
BRANCH  18  21
ATOM     21  OH  TYR A 338     -37.157 129.375   4.375  1.00 43.36    -0.359 OA
ATOM     22  HH  TYR A 338     -36.695 129.981   4.943  1.00  0.00     0.217 HD
ENDBRANCH  18  21
ENDBRANCH  14  15
ENDBRANCH  13  14
END_RES TYR A 338
ENDMDL
MODEL 2
REMARK VINA RESULT:   -10.192      1.249     16.978
REMARK INTER + INTRA:         -10.670
REMARK INTER:                  -7.710
REMARK INTRA:                  -2.960
REMARK UNBOUND:                -0.478
REMARK  0 active torsions:
REMARK  status: ('A' for Active; 'I' for Inactive)
REMARK       I    between atoms: C3_3  and  O3_21 
REMARK       I    between atoms: C6_6  and  C7_7 
REMARK       I    between atoms: C8_8  and  C9_9 
REMARK       I    between atoms: C10_10  and  C11_11 
REMARK       I    between atoms: C12_12  and  C13_13 
REMARK       I    between atoms: C14_14  and  C15_15 
REMARK       I    between atoms: C23_25  and  O23_43 
REMARK       I    between atoms: C26_28  and  C27_29 
REMARK       I    between atoms: C28_30  and  C29_31 
REMARK       I    between atoms: C30_32  and  C31_33 
REMARK       I    between atoms: C32_34  and  C33_35 
REMARK       I    between atoms: C34_36  and  C35_37 
ROOT
HETATM    1  C1  VFQ E4620     -34.528 126.930   6.105  1.00 19.12    -0.018 C 
HETATM    2  C2  VFQ E4620     -33.952 126.116   4.927  1.00 18.29     0.045 C 
HETATM    3  C3  VFQ E4620     -32.934 126.811   4.021  1.00 18.54     0.123 C 
HETATM    4  C4  VFQ E4620     -31.963 127.712   4.783  1.00 18.55     0.066 C 
HETATM    5  C5  VFQ E4620     -32.497 128.505   5.931  1.00 18.97    -0.074 C 
HETATM    6  C6  VFQ E4620     -33.684 128.164   6.564  1.00 18.68    -0.048 C 
HETATM    7  C7  VFQ E4620     -34.209 128.926   7.707  1.00 18.46     0.009 C 
HETATM    8  C8  VFQ E4620     -34.838 130.106   7.694  1.00 18.89     0.007 C 
HETATM    9  C9  VFQ E4620     -35.240 130.920   8.843  1.00 19.10    -0.062 C 
HETATM   10  C10 VFQ E4620     -35.963 132.033   8.597  1.00 18.99     0.007 C 
HETATM   11  C11 VFQ E4620     -36.479 132.961   9.558  1.00 18.78     0.001 C 
HETATM   12  C12 VFQ E4620     -37.336 133.898   9.146  1.00 19.28     0.007 C 
HETATM   13  C13 VFQ E4620     -38.035 134.902   9.947  1.00 21.25    -0.062 C 
HETATM   14  C14 VFQ E4620     -38.945 135.674   9.311  1.00 20.64     0.007 C 
HETATM   15  C15 VFQ E4620     -39.812 136.657   9.888  1.00 21.49     0.001 C 
HETATM   16  C16 VFQ E4620     -34.650 125.903   7.242  1.00 19.29     0.020 C 
HETATM   17  C17 VFQ E4620     -35.954 127.372   5.727  1.00 16.00     0.020 C 
HETATM   18  C18 VFQ E4620     -31.520 129.602   6.195  1.00 17.87     0.044 C 
HETATM   19  C19 VFQ E4620     -34.869 130.431  10.219  1.00 17.60     0.048 C 
HETATM   20  C20 VFQ E4620     -37.751 134.954  11.422  1.00 16.75     0.048 C 
HETATM   21  O3  VFQ E4620     -32.214 125.850   3.259  1.00 19.42    -0.395 OA
ATOM     22  H3  VFQ E4620     -31.582 126.281   2.696  1.00  0.00     0.210 HD
HETATM   23  C21 VFQ E4620     -49.445 144.554  12.726  1.00 13.13    -0.018 C 
HETATM   24  C22 VFQ E4620     -50.070 145.306  13.892  1.00 13.13     0.045 C 
HETATM   25  C23 VFQ E4620     -49.534 146.700  14.117  1.00 13.13     0.123 C 
HETATM   26  C24 VFQ E4620     -48.029 146.653  14.206  1.00 13.13     0.066 C 
HETATM   27  C25 VFQ E4620     -47.435 146.008  12.985  1.00 13.13    -0.074 C 
HETATM   28  C26 VFQ E4620     -48.039 144.993  12.347  1.00 13.13    -0.048 C 
HETATM   29  C27 VFQ E4620     -47.396 144.290  11.200  1.00 13.13     0.009 C 
HETATM   30  C28 VFQ E4620     -46.479 143.319  11.316  1.00 13.13     0.007 C 
HETATM   31  C29 VFQ E4620     -45.859 142.612  10.144  1.00 25.99    -0.062 C 
HETATM   32  C30 VFQ E4620     -44.947 141.655  10.412  1.00 24.86     0.007 C 
HETATM   33  C31 VFQ E4620     -44.256 140.833   9.455  1.00 24.61     0.001 C 
HETATM   34  C32 VFQ E4620     -43.321 139.945   9.853  1.00 23.19     0.007 C 
HETATM   35  C33 VFQ E4620     -42.492 139.042   9.044  1.00 22.76    -0.062 C 
HETATM   36  C34 VFQ E4620     -41.593 138.269   9.693  1.00 21.16     0.007 C 
HETATM   37  C35 VFQ E4620     -40.679 137.323   9.126  1.00 21.72     0.001 C 
HETATM   38  C36 VFQ E4620     -50.317 144.768  11.500  1.00 13.13     0.020 C 
HETATM   39  C37 VFQ E4620     -49.469 143.089  13.134  1.00 13.13     0.020 C 
HETATM   40  C38 VFQ E4620     -46.134 146.595  12.531  1.00 13.13     0.044 C 
HETATM   41  C39 VFQ E4620     -46.266 143.003   8.751  1.00 26.11     0.048 C 
HETATM   42  C40 VFQ E4620     -42.680 139.059   7.549  1.00 21.07     0.048 C 
HETATM   43  O23 VFQ E4620     -50.042 147.185  15.359  1.00 13.13    -0.395 OA
ATOM     44  H23 VFQ E4620     -49.704 148.062  15.499  1.00  0.00     0.210 HD
ENDROOT
TORSDOF 12
BEGIN_RES PHE A  61
REMARK  2 active torsions:
REMARK  status: ('A' for Active; 'I' for Inactive)
REMARK    1  A    between atoms: CA   and  CB  
REMARK    2  A    between atoms: CB   and  CG  
ROOT
ATOM      1  CA  PHE A  61     -36.237 128.293  12.768  1.00 39.40     0.164 C 
ENDROOT
BRANCH   1   2
ATOM      2  CB  PHE A  61     -36.813 128.951  11.509  1.00 39.41     0.058 C 
BRANCH   2   3
ATOM      3  CG  PHE A  61     -37.037 128.002  10.356  1.00 39.01    -0.020 A 
ATOM      4  CD2 PHE A  61     -36.303 126.832  10.244  1.00 40.32    -0.004 A 
ATOM      5  CE2 PHE A  61     -36.507 125.962   9.181  1.00 40.20    -0.000 A 
ATOM      6  CZ  PHE A  61     -37.450 126.249   8.220  1.00 40.34    -0.000 A 
ATOM      7  CE1 PHE A  61     -38.190 127.407   8.318  1.00 41.51    -0.000 A 
ATOM      8  CD1 PHE A  61     -37.981 128.281   9.377  1.00 39.94    -0.004 A 
ENDBRANCH   2   3
ENDBRANCH   1   2
END_RES PHE A  61
BEGIN_RES VAL A 134
REMARK  1 active torsions:
REMARK  status: ('A' for Active; 'I' for Inactive)
REMARK    3  A    between atoms: CA   and  CB  
ROOT
ATOM      9  CA  VAL A 134     -29.766 132.051   9.815  1.00 40.75     0.159 C 
ENDROOT
BRANCH   9  10
ATOM     10  CB  VAL A 134     -30.864 132.765   9.009  1.00 40.76     0.029 C 
ATOM     11  CG1 VAL A 134     -31.178 132.000   7.732  1.00 41.76     0.002 C 
ATOM     12  CG2 VAL A 134     -32.123 132.973   9.837  1.00 40.56     0.002 C 
ENDBRANCH   9  10
END_RES VAL A 134
BEGIN_RES TYR A 338
REMARK  3 active torsions:
REMARK  status: ('A' for Active; 'I' for Inactive)
REMARK    4  A    between atoms: CA   and  CB  
REMARK    5  A    between atoms: CB   and  CG  
REMARK    6  A    between atoms: CZ   and  OH  
ROOT
ATOM     13  CA  TYR A 338     -41.631 124.950   6.058  1.00 38.23     0.164 C 
ENDROOT
BRANCH  13  14
ATOM     14  CB  TYR A 338     -41.621 126.456   6.339  1.00 39.15     0.058 C 
BRANCH  14  15
ATOM     15  CG  TYR A 338     -40.429 127.215   5.804  1.00 39.03    -0.020 A 
ATOM     16  CD2 TYR A 338     -40.237 128.545   6.139  1.00 40.65    -0.002 A 
ATOM     17  CE2 TYR A 338     -39.163 129.276   5.655  1.00 40.91     0.024 A 
ATOM     18  CZ  TYR A 338     -38.249 128.675   4.810  1.00 42.33     0.089 A 
ATOM     19  CE1 TYR A 338     -38.417 127.346   4.464  1.00 40.63     0.024 A 
ATOM     20  CD1 TYR A 338     -39.504 126.636   4.949  1.00 39.27    -0.002 A 
BRANCH  18  21
ATOM     21  OH  TYR A 338     -37.184 129.385   4.330  1.00 43.36    -0.359 OA
ATOM     22  HH  TYR A 338     -36.305 129.031   4.388  1.00  0.00     0.217 HD
ENDBRANCH  18  21
ENDBRANCH  14  15
ENDBRANCH  13  14
END_RES TYR A 338
ENDMDL
MODEL 3
REMARK VINA RESULT:    -9.213      0.707     16.966
REMARK INTER + INTRA:          -9.691
REMARK INTER:                  -9.554
REMARK INTRA:                  -0.138
REMARK UNBOUND:                -0.478
REMARK  0 active torsions:
REMARK  status: ('A' for Active; 'I' for Inactive)
REMARK       I    between atoms: C3_3  and  O3_21 
REMARK       I    between atoms: C6_6  and  C7_7 
REMARK       I    between atoms: C8_8  and  C9_9 
REMARK       I    between atoms: C10_10  and  C11_11 
REMARK       I    between atoms: C12_12  and  C13_13 
REMARK       I    between atoms: C14_14  and  C15_15 
REMARK       I    between atoms: C23_25  and  O23_43 
REMARK       I    between atoms: C26_28  and  C27_29 
REMARK       I    between atoms: C28_30  and  C29_31 
REMARK       I    between atoms: C30_32  and  C31_33 
REMARK       I    between atoms: C32_34  and  C33_35 
REMARK       I    between atoms: C34_36  and  C35_37 
ROOT
HETATM    1  C1  VFQ E4620     -34.217 128.167   6.722  1.00 19.12    -0.018 C 
HETATM    2  C2  VFQ E4620     -33.283 127.469   5.712  1.00 18.29     0.045 C 
HETATM    3  C3  VFQ E4620     -32.039 128.233   5.257  1.00 18.54     0.123 C 
HETATM    4  C4  VFQ E4620     -31.375 129.029   6.380  1.00 18.55     0.066 C 
HETATM    5  C5  VFQ E4620     -32.259 129.709   7.374  1.00 18.97    -0.074 C 
HETATM    6  C6  VFQ E4620     -33.582 129.328   7.556  1.00 18.68    -0.048 C 
HETATM    7  C7  VFQ E4620     -34.455 129.977   8.545  1.00 18.46     0.009 C 
HETATM    8  C8  VFQ E4620     -35.063 131.165   8.456  1.00 18.89     0.007 C 
HETATM    9  C9  VFQ E4620     -35.823 131.861   9.496  1.00 19.10    -0.062 C 
HETATM   10  C10 VFQ E4620     -36.445 133.009   9.151  1.00 18.99     0.007 C 
HETATM   11  C11 VFQ E4620     -37.253 133.842   9.990  1.00 18.78     0.001 C 
HETATM   12  C12 VFQ E4620     -37.947 134.834   9.427  1.00 19.28     0.007 C 
HETATM   13  C13 VFQ E4620     -38.880 135.763  10.064  1.00 21.25    -0.062 C 
HETATM   14  C14 VFQ E4620     -39.549 136.616   9.256  1.00 20.64     0.007 C 
HETATM   15  C15 VFQ E4620     -40.569 137.551   9.627  1.00 21.49     0.001 C 
HETATM   16  C16 VFQ E4620     -34.682 127.029   7.645  1.00 19.29     0.020 C 
HETATM   17  C17 VFQ E4620     -35.453 128.675   5.958  1.00 16.00     0.020 C 
HETATM   18  C18 VFQ E4620     -31.433 130.752   8.051  1.00 17.87     0.044 C 
HETATM   19  C19 VFQ E4620     -35.905 131.224  10.858  1.00 17.60     0.048 C 
HETATM   20  C20 VFQ E4620     -39.083 135.654  11.550  1.00 16.75     0.048 C 
HETATM   21  O3  VFQ E4620     -31.100 127.343   4.668  1.00 19.42    -0.395 OA
ATOM     22  H3  VFQ E4620     -30.326 127.818   4.385  1.00  0.00     0.210 HD
HETATM   23  C21 VFQ E4620     -50.713 145.304  10.058  1.00 13.13    -0.018 C 
HETATM   24  C22 VFQ E4620     -51.689 145.942  11.036  1.00 13.13     0.045 C 
HETATM   25  C23 VFQ E4620     -51.272 147.294  11.567  1.00 13.13     0.123 C 
HETATM   26  C24 VFQ E4620     -49.875 147.207  12.126  1.00 13.13     0.066 C 
HETATM   27  C25 VFQ E4620     -48.912 146.682  11.098  1.00 13.13    -0.074 C 
HETATM   28  C26 VFQ E4620     -49.267 145.751  10.196  1.00 13.13    -0.048 C 
HETATM   29  C27 VFQ E4620     -48.280 145.160   9.248  1.00 13.13     0.009 C 
HETATM   30  C28 VFQ E4620     -47.435 144.163   9.547  1.00 13.13     0.007 C 
HETATM   31  C29 VFQ E4620     -46.464 143.570   8.567  1.00 25.99    -0.062 C 
HETATM   32  C30 VFQ E4620     -45.671 142.571   9.008  1.00 24.86     0.007 C 
HETATM   33  C31 VFQ E4620     -44.699 141.840   8.241  1.00 24.61     0.001 C 
HETATM   34  C32 VFQ E4620     -43.928 140.896   8.820  1.00 23.19     0.007 C 
HETATM   35  C33 VFQ E4620     -42.871 140.066   8.228  1.00 22.76    -0.062 C 
HETATM   36  C34 VFQ E4620     -42.217 139.211   9.045  1.00 21.16     0.007 C 
HETATM   37  C35 VFQ E4620     -41.156 138.311   8.702  1.00 21.72     0.001 C 
HETATM   38  C36 VFQ E4620     -51.150 145.663   8.648  1.00 13.13     0.020 C 
HETATM   39  C37 VFQ E4620     -50.846 143.805  10.280  1.00 13.13     0.020 C 
HETATM   40  C38 VFQ E4620     -47.543 147.286  11.148  1.00 13.13     0.044 C 
HETATM   41  C39 VFQ E4620     -46.409 144.113   7.166  1.00 26.11     0.048 C 
HETATM   42  C40 VFQ E4620     -42.571 140.243   6.762  1.00 21.07     0.048 C 
HETATM   43  O23 VFQ E4620     -52.158 147.657  12.625  1.00 13.13    -0.395 OA
ATOM     44  H23 VFQ E4620     -51.895 148.507  12.958  1.00  0.00     0.210 HD
ENDROOT
TORSDOF 12
BEGIN_RES PHE A  61
REMARK  2 active torsions:
REMARK  status: ('A' for Active; 'I' for Inactive)
REMARK    1  A    between atoms: CA   and  CB  
REMARK    2  A    between atoms: CB   and  CG  
ROOT
ATOM      1  CA  PHE A  61     -36.237 128.293  12.768  1.00 39.40     0.164 C 
ENDROOT
BRANCH   1   2
ATOM      2  CB  PHE A  61     -36.813 128.951  11.509  1.00 39.41     0.058 C 
BRANCH   2   3
ATOM      3  CG  PHE A  61     -37.019 128.006  10.349  1.00 39.01    -0.020 A 
ATOM      4  CD2 PHE A  61     -36.325 126.808  10.276  1.00 40.32    -0.004 A 
ATOM      5  CE2 PHE A  61     -36.512 125.941   9.206  1.00 40.20    -0.000 A 
ATOM      6  CZ  PHE A  61     -37.398 126.260   8.202  1.00 40.34    -0.000 A 
ATOM      7  CE1 PHE A  61     -38.097 127.445   8.262  1.00 41.51    -0.000 A 
ATOM      8  CD1 PHE A  61     -37.905 128.315   9.327  1.00 39.94    -0.004 A 
ENDBRANCH   2   3
ENDBRANCH   1   2
END_RES PHE A  61
BEGIN_RES VAL A 134
REMARK  1 active torsions:
REMARK  status: ('A' for Active; 'I' for Inactive)
REMARK    3  A    between atoms: CA   and  CB  
ROOT
ATOM      9  CA  VAL A 134     -29.766 132.051   9.815  1.00 40.75     0.159 C 
ENDROOT
BRANCH   9  10
ATOM     10  CB  VAL A 134     -30.864 132.765   9.009  1.00 40.76     0.029 C 
ATOM     11  CG1 VAL A 134     -32.111 132.965   9.858  1.00 41.76     0.002 C 
ATOM     12  CG2 VAL A 134     -30.375 134.091   8.447  1.00 40.56     0.002 C 
ENDBRANCH   9  10
END_RES VAL A 134
BEGIN_RES TYR A 338
REMARK  3 active torsions:
REMARK  status: ('A' for Active; 'I' for Inactive)
REMARK    4  A    between atoms: CA   and  CB  
REMARK    5  A    between atoms: CB   and  CG  
REMARK    6  A    between atoms: CZ   and  OH  
ROOT
ATOM     13  CA  TYR A 338     -41.631 124.950   6.058  1.00 38.23     0.164 C 
ENDROOT
BRANCH  13  14
ATOM     14  CB  TYR A 338     -41.621 126.456   6.339  1.00 39.15     0.058 C 
BRANCH  14  15
ATOM     15  CG  TYR A 338     -40.429 127.215   5.804  1.00 39.03    -0.020 A 
ATOM     16  CD2 TYR A 338     -40.275 128.563   6.080  1.00 40.65    -0.002 A 
ATOM     17  CE2 TYR A 338     -39.203 129.294   5.593  1.00 40.91     0.024 A 
ATOM     18  CZ  TYR A 338     -38.251 128.674   4.805  1.00 42.33     0.089 A 
ATOM     19  CE1 TYR A 338     -38.380 127.327   4.519  1.00 40.63     0.024 A 
ATOM     20  CD1 TYR A 338     -39.467 126.617   5.005  1.00 39.27    -0.002 A 
BRANCH  18  21
ATOM     21  OH  TYR A 338     -37.187 129.384   4.323  1.00 43.36    -0.359 OA
ATOM     22  HH  TYR A 338     -36.936 129.313   3.409  1.00  0.00     0.217 HD
ENDBRANCH  18  21
ENDBRANCH  14  15
ENDBRANCH  13  14
END_RES TYR A 338
ENDMDL
