MODEL 1
REMARK VINA RESULT:    -9.974      0.000      0.000
REMARK INTER + INTRA:         -10.320
REMARK INTER:                  -9.974
REMARK INTRA:                  -0.346
REMARK UNBOUND:                -0.346
REMARK  0 active torsions:
REMARK  status: ('A' for Active; 'I' for Inactive)
REMARK       I    between atoms: C3_3  and  O3_21 
REMARK       I    between atoms: C6_6  and  C7_7 
REMARK       I    between atoms: C8_8  and  C9_9 
REMARK       I    between atoms: C10_10  and  C11_11 
REMARK       I    between atoms: C12_12  and  C13_13 
REMARK       I    between atoms: C14_14  and  C15_15 
REMARK       I    between atoms: C23_25  and  O23_43 
REMARK       I    between atoms: C26_28  and  C27_29 
REMARK       I    between atoms: C28_30  and  C29_31 
REMARK       I    between atoms: C30_32  and  C31_33 
REMARK       I    between atoms: C32_34  and  C33_35 
REMARK       I    between atoms: C34_36  and  C35_37 
ROOT
HETATM    1  C1  VFQ D3620     -34.184 128.390   6.881  1.00 21.49    -0.018 C 
HETATM    2  C2  VFQ D3620     -33.239 127.888   5.766  1.00 21.50     0.045 C 
HETATM    3  C3  VFQ D3620     -31.831 128.481   5.646  1.00 22.37     0.123 C 
HETATM    4  C4  VFQ D3620     -31.336 129.249   6.874  1.00 21.17     0.066 C 
HETATM    5  C5  VFQ D3620     -32.327 129.879   7.797  1.00 19.70    -0.074 C 
HETATM    6  C6  VFQ D3620     -33.658 129.506   7.826  1.00 20.41    -0.048 C 
HETATM    7  C7  VFQ D3620     -34.632 130.132   8.742  1.00 19.41     0.009 C 
HETATM    8  C8  VFQ D3620     -35.232 131.324   8.612  1.00 18.90     0.007 C 
HETATM    9  C9  VFQ D3620     -36.085 132.001   9.592  1.00 20.60    -0.062 C 
HETATM   10  C10 VFQ D3620     -36.678 133.153   9.212  1.00 18.78     0.007 C 
HETATM   11  C11 VFQ D3620     -37.555 133.966   9.998  1.00 19.97     0.001 C 
HETATM   12  C12 VFQ D3620     -38.202 134.989   9.413  1.00 23.02     0.007 C 
HETATM   13  C13 VFQ D3620     -39.165 135.921  10.001  1.00 23.57    -0.062 C 
HETATM   14  C14 VFQ D3620     -39.762 136.803   9.171  1.00 23.43     0.007 C 
HETATM   15  C15 VFQ D3620     -40.788 137.753   9.491  1.00 24.57     0.001 C 
HETATM   16  C16 VFQ D3620     -34.473 127.114   7.695  1.00 19.84     0.020 C 
HETATM   17  C17 VFQ D3620     -35.502 128.841   6.200  1.00 19.63     0.020 C 
HETATM   18  C18 VFQ D3620     -31.603 130.898   8.602  1.00 19.29     0.044 C 
HETATM   19  C19 VFQ D3620     -36.287 131.346  10.940  1.00 18.57     0.048 C 
HETATM   20  C20 VFQ D3620     -39.471 135.785  11.461  1.00 22.43     0.048 C 
HETATM   21  O3  VFQ D3620     -30.900 127.471   5.297  1.00 22.38    -0.395 OA
ATOM     22  H3  VFQ D3620     -30.026 127.839   5.222  1.00  0.00     0.210 HD
HETATM   23  C21 VFQ D3620     -50.826 145.321   9.872  1.00 26.49    -0.018 C 
HETATM   24  C22 VFQ D3620     -51.820 146.216  10.607  1.00 26.49     0.045 C 
HETATM   25  C23 VFQ D3620     -51.320 147.576  11.066  1.00 26.49     0.123 C 
HETATM   26  C24 VFQ D3620     -49.906 147.460  11.596  1.00 26.49     0.066 C 
HETATM   27  C25 VFQ D3620     -49.050 146.958  10.471  1.00 26.49    -0.074 C 
HETATM   28  C26 VFQ D3620     -49.430 145.908   9.728  1.00 26.49    -0.048 C 
HETATM   29  C27 VFQ D3620     -48.476 145.339   8.733  1.00 26.49     0.009 C 
HETATM   30  C28 VFQ D3620     -47.633 144.353   9.043  1.00 26.49     0.007 C 
HETATM   31  C29 VFQ D3620     -46.637 143.732   8.124  1.00 31.15    -0.062 C 
HETATM   32  C30 VFQ D3620     -45.852 142.749   8.615  1.00 29.00     0.007 C 
HETATM   33  C31 VFQ D3620     -44.842 142.028   7.902  1.00 26.88     0.001 C 
HETATM   34  C32 VFQ D3620     -44.095 141.106   8.518  1.00 27.02     0.007 C 
HETATM   35  C33 VFQ D3620     -43.007 140.285   7.977  1.00 27.13    -0.062 C 
HETATM   36  C34 VFQ D3620     -42.387 139.433   8.824  1.00 25.88     0.007 C 
HETATM   37  C35 VFQ D3620     -41.309 138.530   8.535  1.00 25.96     0.001 C 
HETATM   38  C36 VFQ D3620     -51.370 145.096   8.474  1.00 26.49     0.020 C 
HETATM   39  C37 VFQ D3620     -50.793 143.984  10.601  1.00 26.49     0.020 C 
HETATM   40  C38 VFQ D3620     -47.778 147.707  10.208  1.00 26.49     0.044 C 
HETATM   41  C39 VFQ D3620     -46.551 144.242   6.714  1.00 30.08     0.048 C 
HETATM   42  C40 VFQ D3620     -42.650 140.456   6.529  1.00 24.80     0.048 C 
HETATM   43  O23 VFQ D3620     -52.185 148.072  12.092  1.00 26.49    -0.395 OA
ATOM     44  H23 VFQ D3620     -51.873 148.922  12.379  1.00  0.00     0.210 HD
ENDROOT
TORSDOF 12
BEGIN_RES PHE A  61
REMARK  2 active torsions:
REMARK  status: ('A' for Active; 'I' for Inactive)
REMARK    1  A    between atoms: CA   and  CB  
REMARK    2  A    between atoms: CB   and  CG  
ROOT
ATOM      1  CA  PHE A  61     -36.237 128.293  12.768  1.00 39.40     0.164 C 
ENDROOT
BRANCH   1   2
ATOM      2  CB  PHE A  61     -36.813 128.951  11.509  1.00 39.41     0.058 C 
BRANCH   2   3
ATOM      3  CG  PHE A  61     -37.002 128.010  10.344  1.00 39.01    -0.020 A 
ATOM      4  CD2 PHE A  61     -36.271 126.835  10.252  1.00 40.32    -0.004 A 
ATOM      5  CE2 PHE A  61     -36.444 125.972   9.177  1.00 40.20    -0.000 A 
ATOM      6  CZ  PHE A  61     -37.350 126.270   8.186  1.00 40.34    -0.000 A 
ATOM      7  CE1 PHE A  61     -38.085 127.432   8.263  1.00 41.51    -0.000 A 
ATOM      8  CD1 PHE A  61     -37.908 128.299   9.334  1.00 39.94    -0.004 A 
ENDBRANCH   2   3
ENDBRANCH   1   2
END_RES PHE A  61
BEGIN_RES VAL A 134
REMARK  1 active torsions:
REMARK  status: ('A' for Active; 'I' for Inactive)
REMARK    3  A    between atoms: CA   and  CB  
ROOT
ATOM      9  CA  VAL A 134     -29.766 132.051   9.815  1.00 40.75     0.159 C 
ENDROOT
BRANCH   9  10
ATOM     10  CB  VAL A 134     -30.864 132.765   9.009  1.00 40.76     0.029 C 
ATOM     11  CG1 VAL A 134     -32.081 133.038   9.881  1.00 41.76     0.002 C 
ATOM     12  CG2 VAL A 134     -30.351 134.051   8.379  1.00 40.56     0.002 C 
ENDBRANCH   9  10
END_RES VAL A 134
BEGIN_RES TYR A 338
REMARK  3 active torsions:
REMARK  status: ('A' for Active; 'I' for Inactive)
REMARK    4  A    between atoms: CA   and  CB  
REMARK    5  A    between atoms: CB   and  CG  
REMARK    6  A    between atoms: CZ   and  OH  
ROOT
ATOM     13  CA  TYR A 338     -41.631 124.950   6.058  1.00 38.23     0.164 C 
ENDROOT
BRANCH  13  14
ATOM     14  CB  TYR A 338     -41.621 126.456   6.339  1.00 39.15     0.058 C 
BRANCH  14  15
ATOM     15  CG  TYR A 338     -40.428 127.215   5.806  1.00 39.03    -0.020 A 
ATOM     16  CD2 TYR A 338     -40.271 128.561   6.087  1.00 40.65    -0.002 A 
ATOM     17  CE2 TYR A 338     -39.197 129.292   5.602  1.00 40.91     0.024 A 
ATOM     18  CZ  TYR A 338     -38.248 128.674   4.811  1.00 42.33     0.089 A 
ATOM     19  CE1 TYR A 338     -38.380 127.327   4.519  1.00 40.63     0.024 A 
ATOM     20  CD1 TYR A 338     -39.468 126.617   5.004  1.00 39.27    -0.002 A 
BRANCH  18  21
ATOM     21  OH  TYR A 338     -37.183 129.383   4.330  1.00 43.36    -0.359 OA
ATOM     22  HH  TYR A 338     -36.834 129.200   3.465  1.00  0.00     0.217 HD
ENDBRANCH  18  21
ENDBRANCH  14  15
ENDBRANCH  13  14
END_RES TYR A 338
ENDMDL
MODEL 2
REMARK VINA RESULT:    -9.953      1.566      1.987
REMARK INTER + INTRA:         -10.300
REMARK INTER:                  -7.534
REMARK INTRA:                  -2.765
REMARK UNBOUND:                -0.346
REMARK  0 active torsions:
REMARK  status: ('A' for Active; 'I' for Inactive)
REMARK       I    between atoms: C3_3  and  O3_21 
REMARK       I    between atoms: C6_6  and  C7_7 
REMARK       I    between atoms: C8_8  and  C9_9 
REMARK       I    between atoms: C10_10  and  C11_11 
REMARK       I    between atoms: C12_12  and  C13_13 
REMARK       I    between atoms: C14_14  and  C15_15 
REMARK       I    between atoms: C23_25  and  O23_43 
REMARK       I    between atoms: C26_28  and  C27_29 
REMARK       I    between atoms: C28_30  and  C29_31 
REMARK       I    between atoms: C30_32  and  C31_33 
REMARK       I    between atoms: C32_34  and  C33_35 
REMARK       I    between atoms: C34_36  and  C35_37 
ROOT
HETATM    1  C1  VFQ D3620     -34.605 127.032   6.118  1.00 21.49    -0.018 C 
HETATM    2  C2  VFQ D3620     -34.117 126.379   4.806  1.00 21.50     0.045 C 
HETATM    3  C3  VFQ D3620     -32.869 126.929   4.107  1.00 22.37     0.123 C 
HETATM    4  C4  VFQ D3620     -31.984 127.836   4.966  1.00 21.17     0.066 C 
HETATM    5  C5  VFQ D3620     -32.588 128.592   6.103  1.00 19.70    -0.074 C 
HETATM    6  C6  VFQ D3620     -33.805 128.248   6.662  1.00 20.41    -0.048 C 
HETATM    7  C7  VFQ D3620     -34.396 129.000   7.787  1.00 19.41     0.009 C 
HETATM    8  C8  VFQ D3620     -35.038 130.176   7.740  1.00 18.90     0.007 C 
HETATM    9  C9  VFQ D3620     -35.495 130.984   8.874  1.00 20.60    -0.062 C 
HETATM   10  C10 VFQ D3620     -36.220 132.089   8.600  1.00 18.78     0.007 C 
HETATM   11  C11 VFQ D3620     -36.775 133.008   9.546  1.00 19.97     0.001 C 
HETATM   12  C12 VFQ D3620     -37.621 133.960   9.118  1.00 23.02     0.007 C 
HETATM   13  C13 VFQ D3620     -38.331 134.975   9.899  1.00 23.57    -0.062 C 
HETATM   14  C14 VFQ D3620     -39.217 135.756   9.244  1.00 23.43     0.007 C 
HETATM   15  C15 VFQ D3620     -40.083 136.755   9.798  1.00 24.57     0.001 C 
HETATM   16  C16 VFQ D3620     -34.539 125.872   7.131  1.00 19.84     0.020 C 
HETATM   17  C17 VFQ D3620     -36.094 127.416   5.917  1.00 19.63     0.020 C 
HETATM   18  C18 VFQ D3620     -31.651 129.692   6.456  1.00 19.29     0.044 C 
HETATM   19  C19 VFQ D3620     -35.171 130.505  10.272  1.00 18.57     0.048 C 
HETATM   20  C20 VFQ D3620     -38.079 135.027  11.374  1.00 22.43     0.048 C 
HETATM   21  O3  VFQ D3620     -32.098 125.868   3.568  1.00 22.38    -0.395 OA
ATOM     22  H3  VFQ D3620     -31.324 126.209   3.135  1.00  0.00     0.210 HD
HETATM   23  C21 VFQ D3620     -49.515 144.476  12.895  1.00 26.49    -0.018 C 
HETATM   24  C22 VFQ D3620     -50.199 145.472  13.828  1.00 26.49     0.045 C 
HETATM   25  C23 VFQ D3620     -49.608 146.871  13.903  1.00 26.49     0.123 C 
HETATM   26  C24 VFQ D3620     -48.096 146.798  13.889  1.00 26.49     0.066 C 
HETATM   27  C25 VFQ D3620     -47.694 146.145  12.599  1.00 26.49    -0.074 C 
HETATM   28  C26 VFQ D3620     -48.287 145.018  12.180  1.00 26.49    -0.048 C 
HETATM   29  C27 VFQ D3620     -47.745 144.313  10.983  1.00 26.49     0.009 C 
HETATM   30  C28 VFQ D3620     -46.817 143.360  11.082  1.00 26.49     0.007 C 
HETATM   31  C29 VFQ D3620     -46.207 142.612   9.945  1.00 31.15    -0.062 C 
HETATM   32  C30 VFQ D3620     -45.267 141.686  10.231  1.00 29.00     0.007 C 
HETATM   33  C31 VFQ D3620     -44.565 140.865   9.292  1.00 26.88     0.001 C 
HETATM   34  C32 VFQ D3620     -43.618 140.015   9.700  1.00 27.02     0.007 C 
HETATM   35  C33 VFQ D3620     -42.777 139.115   8.903  1.00 27.13    -0.062 C 
HETATM   36  C34 VFQ D3620     -41.865 138.365   9.562  1.00 25.88     0.007 C 
HETATM   37  C35 VFQ D3620     -40.940 137.416   9.012  1.00 25.96     0.001 C 
HETATM   38  C36 VFQ D3620     -50.525 144.088  11.832  1.00 26.49     0.020 C 
HETATM   39  C37 VFQ D3620     -49.178 143.240  13.719  1.00 26.49     0.020 C 
HETATM   40  C38 VFQ D3620     -46.629 146.835  11.800  1.00 26.49     0.044 C 
HETATM   41  C39 VFQ D3620     -46.656 142.941   8.550  1.00 30.08     0.048 C 
HETATM   42  C40 VFQ D3620     -42.979 139.097   7.416  1.00 24.80     0.048 C 
HETATM   43  O23 VFQ D3620     -50.054 147.505  15.105  1.00 26.49    -0.395 OA
ATOM     44  H23 VFQ D3620     -49.685 148.379  15.152  1.00  0.00     0.210 HD
ENDROOT
TORSDOF 12
BEGIN_RES PHE A  61
REMARK  2 active torsions:
REMARK  status: ('A' for Active; 'I' for Inactive)
REMARK    1  A    between atoms: CA   and  CB  
REMARK    2  A    between atoms: CB   and  CG  
ROOT
ATOM      1  CA  PHE A  61     -36.237 128.293  12.768  1.00 39.40     0.164 C 
ENDROOT
BRANCH   1   2
ATOM      2  CB  PHE A  61     -36.813 128.951  11.509  1.00 39.41     0.058 C 
BRANCH   2   3
ATOM      3  CG  PHE A  61     -37.041 128.001  10.357  1.00 39.01    -0.020 A 
ATOM      4  CD2 PHE A  61     -36.276 126.854  10.219  1.00 40.32    -0.004 A 
ATOM      5  CE2 PHE A  61     -36.486 125.983   9.157  1.00 40.20    -0.000 A 
ATOM      6  CZ  PHE A  61     -37.463 126.247   8.225  1.00 40.34    -0.000 A 
ATOM      7  CE1 PHE A  61     -38.234 127.382   8.350  1.00 41.51    -0.000 A 
ATOM      8  CD1 PHE A  61     -38.020 128.256   9.408  1.00 39.94    -0.004 A 
ENDBRANCH   2   3
ENDBRANCH   1   2
END_RES PHE A  61
BEGIN_RES VAL A 134
REMARK  1 active torsions:
REMARK  status: ('A' for Active; 'I' for Inactive)
REMARK    3  A    between atoms: CA   and  CB  
ROOT
ATOM      9  CA  VAL A 134     -29.766 132.051   9.815  1.00 40.75     0.159 C 
ENDROOT
BRANCH   9  10
ATOM     10  CB  VAL A 134     -30.864 132.765   9.009  1.00 40.76     0.029 C 
ATOM     11  CG1 VAL A 134     -30.907 132.244   7.580  1.00 41.76     0.002 C 
ATOM     12  CG2 VAL A 134     -32.225 132.631   9.674  1.00 40.56     0.002 C 
ENDBRANCH   9  10
END_RES VAL A 134
BEGIN_RES TYR A 338
REMARK  3 active torsions:
REMARK  status: ('A' for Active; 'I' for Inactive)
REMARK    4  A    between atoms: CA   and  CB  
REMARK    5  A    between atoms: CB   and  CG  
REMARK    6  A    between atoms: CZ   and  OH  
ROOT
ATOM     13  CA  TYR A 338     -41.631 124.950   6.058  1.00 38.23     0.164 C 
ENDROOT
BRANCH  13  14
ATOM     14  CB  TYR A 338     -41.621 126.456   6.339  1.00 39.15     0.058 C 
BRANCH  14  15
ATOM     15  CG  TYR A 338     -40.429 127.215   5.804  1.00 39.03    -0.020 A 
ATOM     16  CD2 TYR A 338     -40.238 128.545   6.138  1.00 40.65    -0.002 A 
ATOM     17  CE2 TYR A 338     -39.165 129.277   5.652  1.00 40.91     0.024 A 
ATOM     18  CZ  TYR A 338     -38.250 128.675   4.808  1.00 42.33     0.089 A 
ATOM     19  CE1 TYR A 338     -38.417 127.346   4.463  1.00 40.63     0.024 A 
ATOM     20  CD1 TYR A 338     -39.504 126.636   4.949  1.00 39.27    -0.002 A 
BRANCH  18  21
ATOM     21  OH  TYR A 338     -37.186 129.386   4.327  1.00 43.36    -0.359 OA
ATOM     22  HH  TYR A 338     -36.926 130.201   4.740  1.00  0.00     0.217 HD
ENDBRANCH  18  21
ENDBRANCH  14  15
ENDBRANCH  13  14
END_RES TYR A 338
ENDMDL
MODEL 3
REMARK VINA RESULT:    -8.690      0.598     16.944
REMARK INTER + INTRA:          -9.037
REMARK INTER:                  -8.580
REMARK INTRA:                  -0.456
REMARK UNBOUND:                -0.346
REMARK  0 active torsions:
REMARK  status: ('A' for Active; 'I' for Inactive)
REMARK       I    between atoms: C3_3  and  O3_21 
REMARK       I    between atoms: C6_6  and  C7_7 
REMARK       I    between atoms: C8_8  and  C9_9 
REMARK       I    between atoms: C10_10  and  C11_11 
REMARK       I    between atoms: C12_12  and  C13_13 
REMARK       I    between atoms: C14_14  and  C15_15 
REMARK       I    between atoms: C23_25  and  O23_43 
REMARK       I    between atoms: C26_28  and  C27_29 
REMARK       I    between atoms: C28_30  and  C29_31 
REMARK       I    between atoms: C30_32  and  C31_33 
REMARK       I    between atoms: C32_34  and  C33_35 
REMARK       I    between atoms: C34_36  and  C35_37 
ROOT
HETATM    1  C1  VFQ D3620     -50.447 145.266  10.825  1.00 21.49    -0.018 C 
HETATM    2  C2  VFQ D3620     -51.234 145.848  12.020  1.00 21.50     0.045 C 
HETATM    3  C3  VFQ D3620     -50.656 147.035  12.799  1.00 22.37     0.123 C 
HETATM    4  C4  VFQ D3620     -49.528 147.794  12.095  1.00 21.17     0.066 C 
HETATM    5  C5  VFQ D3620     -48.681 147.086  11.089  1.00 19.70    -0.074 C 
HETATM    6  C6  VFQ D3620     -49.075 145.909  10.480  1.00 20.41    -0.048 C 
HETATM    7  C7  VFQ D3620     -48.232 145.216   9.485  1.00 19.41     0.009 C 
HETATM    8  C8  VFQ D3620     -47.162 144.441   9.714  1.00 18.90     0.007 C 
HETATM    9  C9  VFQ D3620     -46.247 143.874   8.720  1.00 20.60    -0.062 C 
HETATM   10  C10 VFQ D3620     -45.291 143.030   9.162  1.00 18.78     0.007 C 
HETATM   11  C11 VFQ D3620     -44.308 142.356   8.370  1.00 19.97     0.001 C 
HETATM   12  C12 VFQ D3620     -43.541 141.412   8.940  1.00 23.02     0.007 C 
HETATM   13  C13 VFQ D3620     -42.508 140.575   8.326  1.00 23.57    -0.062 C 
HETATM   14  C14 VFQ D3620     -41.949 139.615   9.094  1.00 23.43     0.007 C 
HETATM   15  C15 VFQ D3620     -40.984 138.629   8.701  1.00 24.57     0.001 C 
HETATM   16  C16 VFQ D3620     -51.419 145.451   9.643  1.00 19.84     0.020 C 
HETATM   17  C17 VFQ D3620     -50.277 143.746  11.081  1.00 19.63     0.020 C 
HETATM   18  C18 VFQ D3620     -47.437 147.882  10.915  1.00 19.29     0.044 C 
HETATM   19  C19 VFQ D3620     -46.460 144.229   7.265  1.00 18.57     0.048 C 
HETATM   20  C20 VFQ D3620     -42.197 140.796   6.878  1.00 22.43     0.048 C 
HETATM   21  O3  VFQ D3620     -51.689 147.932  13.167  1.00 22.38    -0.395 OA
ATOM     22  H3  VFQ D3620     -51.331 148.669  13.650  1.00  0.00     0.210 HD
HETATM   23  C21 VFQ D3620     -34.044 128.310   6.829  1.00 26.49    -0.018 C 
HETATM   24  C22 VFQ D3620     -33.003 127.499   6.062  1.00 26.49     0.045 C 
HETATM   25  C23 VFQ D3620     -31.549 127.921   6.209  1.00 26.49     0.123 C 
HETATM   26  C24 VFQ D3620     -31.444 129.431   6.215  1.00 26.49     0.066 C 
HETATM   27  C25 VFQ D3620     -32.238 129.927   7.387  1.00 26.49    -0.074 C 
HETATM   28  C26 VFQ D3620     -33.479 129.477   7.623  1.00 26.49    -0.048 C 
HETATM   29  C27 VFQ D3620     -34.292 130.117   8.697  1.00 26.49     0.009 C 
HETATM   30  C28 VFQ D3620     -35.103 131.149   8.452  1.00 26.49     0.007 C 
HETATM   31  C29 VFQ D3620     -35.941 131.861   9.459  1.00 31.15    -0.062 C 
HETATM   32  C30 VFQ D3620     -36.693 132.898   9.033  1.00 29.00     0.007 C 
HETATM   33  C31 VFQ D3620     -37.562 133.706   9.833  1.00 26.88     0.001 C 
HETATM   34  C32 VFQ D3620     -38.221 134.740   9.300  1.00 27.02     0.007 C 
HETATM   35  C33 VFQ D3620     -39.128 135.693   9.948  1.00 27.13    -0.062 C 
HETATM   36  C34 VFQ D3620     -39.653 136.675   9.182  1.00 25.88     0.007 C 
HETATM   37  C35 VFQ D3620     -40.560 137.713   9.579  1.00 25.96     0.001 C 
HETATM   38  C36 VFQ D3620     -34.709 127.370   7.816  1.00 26.49     0.020 C 
HETATM   39  C37 VFQ D3620     -35.088 128.775   5.823  1.00 26.49     0.020 C 
HETATM   40  C38 VFQ D3620     -31.561 130.917   8.287  1.00 26.49     0.044 C 
HETATM   41  C39 VFQ D3620     -35.888 131.399  10.887  1.00 30.08     0.048 C 
HETATM   42  C40 VFQ D3620     -39.400 135.518  11.414  1.00 24.80     0.048 C 
HETATM   43  O23 VFQ D3620     -30.793 127.384   5.120  1.00 26.49    -0.395 OA
ATOM     44  H23 VFQ D3620     -29.885 127.648   5.211  1.00  0.00     0.210 HD
ENDROOT
TORSDOF 12
BEGIN_RES PHE A  61
REMARK  2 active torsions:
REMARK  status: ('A' for Active; 'I' for Inactive)
REMARK    1  A    between atoms: CA   and  CB  
REMARK    2  A    between atoms: CB   and  CG  
ROOT
ATOM      1  CA  PHE A  61     -36.237 128.293  12.768  1.00 39.40     0.164 C 
ENDROOT
BRANCH   1   2
ATOM      2  CB  PHE A  61     -36.813 128.951  11.509  1.00 39.41     0.058 C 
BRANCH   2   3
ATOM      3  CG  PHE A  61     -37.016 128.007  10.348  1.00 39.01    -0.020 A 
ATOM      4  CD2 PHE A  61     -36.289 126.830  10.253  1.00 40.32    -0.004 A 
ATOM      5  CE2 PHE A  61     -36.474 125.964   9.183  1.00 40.20    -0.000 A 
ATOM      6  CZ  PHE A  61     -37.391 126.261   8.200  1.00 40.34    -0.000 A 
ATOM      7  CE1 PHE A  61     -38.122 127.425   8.281  1.00 41.51    -0.000 A 
ATOM      8  CD1 PHE A  61     -37.933 128.295   9.347  1.00 39.94    -0.004 A 
ENDBRANCH   2   3
ENDBRANCH   1   2
END_RES PHE A  61
BEGIN_RES VAL A 134
REMARK  1 active torsions:
REMARK  status: ('A' for Active; 'I' for Inactive)
REMARK    3  A    between atoms: CA   and  CB  
ROOT
ATOM      9  CA  VAL A 134     -29.766 132.051   9.815  1.00 40.75     0.159 C 
ENDROOT
BRANCH   9  10
ATOM     10  CB  VAL A 134     -30.864 132.765   9.009  1.00 40.76     0.029 C 
ATOM     11  CG1 VAL A 134     -32.105 132.979   9.863  1.00 41.76     0.002 C 
ATOM     12  CG2 VAL A 134     -30.370 134.084   8.434  1.00 40.56     0.002 C 
ENDBRANCH   9  10
END_RES VAL A 134
BEGIN_RES TYR A 338
REMARK  3 active torsions:
REMARK  status: ('A' for Active; 'I' for Inactive)
REMARK    4  A    between atoms: CA   and  CB  
REMARK    5  A    between atoms: CB   and  CG  
REMARK    6  A    between atoms: CZ   and  OH  
ROOT
ATOM     13  CA  TYR A 338     -41.631 124.950   6.058  1.00 38.23     0.164 C 
ENDROOT
BRANCH  13  14
ATOM     14  CB  TYR A 338     -41.621 126.456   6.339  1.00 39.15     0.058 C 
BRANCH  14  15
ATOM     15  CG  TYR A 338     -40.416 127.211   5.826  1.00 39.03    -0.020 A 
ATOM     16  CD2 TYR A 338     -40.264 128.559   6.104  1.00 40.65    -0.002 A 
ATOM     17  CE2 TYR A 338     -39.180 129.286   5.637  1.00 40.91     0.024 A 
ATOM     18  CZ  TYR A 338     -38.215 128.663   4.868  1.00 42.33     0.089 A 
ATOM     19  CE1 TYR A 338     -38.343 127.315   4.580  1.00 40.63     0.024 A 
ATOM     20  CD1 TYR A 338     -39.441 126.609   5.046  1.00 39.27    -0.002 A 
BRANCH  18  21
ATOM     21  OH  TYR A 338     -37.140 129.369   4.405  1.00 43.36    -0.359 OA
ATOM     22  HH  TYR A 338     -36.305 129.323   4.856  1.00  0.00     0.217 HD
ENDBRANCH  18  21
ENDBRANCH  14  15
ENDBRANCH  13  14
END_RES TYR A 338
ENDMDL
