MODEL 1
REMARK VINA RESULT:   -10.305      0.000      0.000
REMARK INTER + INTRA:         -12.728
REMARK INTER:                 -10.305
REMARK INTRA:                  -2.423
REMARK UNBOUND:                -2.423
REMARK  0 active torsions:
REMARK  status: ('A' for Active; 'I' for Inactive)
REMARK       I    between atoms: C3_3  and  O3_21 
REMARK       I    between atoms: C6_6  and  C7_7 
REMARK       I    between atoms: C8_8  and  C9_9 
REMARK       I    between atoms: C10_10  and  C11_11 
REMARK       I    between atoms: C12_12  and  C13_13 
REMARK       I    between atoms: C14_14  and  C15_15 
REMARK       I    between atoms: C23_25  and  O23_43 
REMARK       I    between atoms: C26_28  and  C27_29 
REMARK       I    between atoms: C28_30  and  C29_31 
REMARK       I    between atoms: C30_32  and  C31_33 
REMARK       I    between atoms: C32_34  and  C33_35 
REMARK       I    between atoms: C34_36  and  C35_37 
ROOT
HETATM    1  C1  VFQ V1621     -34.203 127.035   6.739  1.00 16.22    -0.018 C 
HETATM    2  C2  VFQ V1621     -34.018 126.775   5.260  1.00 16.22     0.045 C 
HETATM    3  C3  VFQ V1621     -33.100 127.738   4.566  1.00 16.22     0.123 C 
HETATM    4  C4  VFQ V1621     -31.900 127.915   5.457  1.00 16.22     0.066 C 
HETATM    5  C5  VFQ V1621     -32.400 128.671   6.644  1.00 16.22    -0.074 C 
HETATM    6  C6  VFQ V1621     -33.464 128.213   7.299  1.00 16.22    -0.048 C 
HETATM    7  C7  VFQ V1621     -34.115 128.929   8.406  1.00 16.22     0.009 C 
HETATM    8  C8  VFQ V1621     -34.280 130.235   8.226  1.00 16.22     0.007 C 
HETATM    9  C9  VFQ V1621     -35.143 130.989   9.152  1.00 16.22    -0.062 C 
HETATM   10  C10 VFQ V1621     -35.742 132.087   8.671  1.00 16.22     0.007 C 
HETATM   11  C11 VFQ V1621     -36.738 132.854   9.409  1.00 16.22     0.001 C 
HETATM   12  C12 VFQ V1621     -37.412 133.816   8.789  1.00 16.22     0.007 C 
HETATM   13  C13 VFQ V1621     -38.475 134.575   9.470  1.00 16.22    -0.062 C 
HETATM   14  C14 VFQ V1621     -39.189 135.449   8.744  1.00 16.22     0.007 C 
HETATM   15  C15 VFQ V1621     -40.282 136.259   9.277  1.00 16.22     0.001 C 
HETATM   16  C16 VFQ V1621     -33.644 125.850   7.506  1.00 16.22     0.020 C 
HETATM   17  C17 VFQ V1621     -35.683 127.191   6.952  1.00 16.22     0.020 C 
HETATM   18  C18 VFQ V1621     -31.422 129.626   7.243  1.00 16.22     0.044 C 
HETATM   19  C19 VFQ V1621     -35.401 130.464  10.534  1.00 16.22     0.048 C 
HETATM   20  C20 VFQ V1621     -38.719 134.316  10.925  1.00 16.22     0.048 C 
HETATM   21  O3  VFQ V1621     -32.754 127.140   3.322  1.00 16.22    -0.395 OA
ATOM     22  H3  VFQ V1621     -32.174 127.750   2.882  1.00  0.00     0.210 HD
HETATM   23  C21 VFQ V1621     -49.768 144.747  10.448  1.00 71.46    -0.018 C 
HETATM   24  C22 VFQ V1621     -50.612 145.501  11.461  1.00 75.98     0.045 C 
HETATM   25  C23 VFQ V1621     -49.965 146.657  12.192  1.00 84.37     0.123 C 
HETATM   26  C24 VFQ V1621     -48.594 146.285  12.679  1.00 79.68     0.066 C 
HETATM   27  C25 VFQ V1621     -47.765 145.801  11.531  1.00 81.86    -0.074 C 
HETATM   28  C26 VFQ V1621     -48.270 144.994  10.583  1.00 72.92    -0.048 C 
HETATM   29  C27 VFQ V1621     -47.359 144.348   9.607  1.00 76.42     0.009 C 
HETATM   30  C28 VFQ V1621     -46.726 143.214   9.900  1.00 69.46     0.007 C 
HETATM   31  C29 VFQ V1621     -45.822 142.558   8.954  1.00 16.22    -0.062 C 
HETATM   32  C30 VFQ V1621     -45.273 141.396   9.341  1.00 16.22     0.007 C 
HETATM   33  C31 VFQ V1621     -44.330 140.628   8.543  1.00 16.22     0.001 C 
HETATM   34  C32 VFQ V1621     -43.719 139.587   9.091  1.00 16.22     0.007 C 
HETATM   35  C33 VFQ V1621     -42.699 138.825   8.354  1.00 16.22    -0.062 C 
HETATM   36  C34 VFQ V1621     -42.007 137.899   9.036  1.00 16.22     0.007 C 
HETATM   37  C35 VFQ V1621     -40.928 137.090   8.481  1.00 16.22     0.001 C 
HETATM   38  C36 VFQ V1621     -50.196 145.167   9.053  1.00 75.59     0.020 C 
HETATM   39  C37 VFQ V1621     -50.151 143.284  10.608  1.00 74.59     0.020 C 
HETATM   40  C38 VFQ V1621     -46.352 146.299  11.501  1.00 90.73     0.044 C 
HETATM   41  C39 VFQ V1621     -45.611 143.192   7.617  1.00 16.22     0.048 C 
HETATM   42  C40 VFQ V1621     -42.461 139.154   6.913  1.00 16.22     0.048 C 
HETATM   43  O23 VFQ V1621     -50.765 146.973  13.331  1.00 94.57    -0.395 OA
ATOM     44  H23 VFQ V1621     -50.358 147.699  13.791  1.00  0.00     0.210 HD
ENDROOT
TORSDOF 12
BEGIN_RES PHE A  61
REMARK  2 active torsions:
REMARK  status: ('A' for Active; 'I' for Inactive)
REMARK    1  A    between atoms: CA   and  CB  
REMARK    2  A    between atoms: CB   and  CG  
ROOT
ATOM      1  CA  PHE A  61     -36.237 128.293  12.768  1.00 39.40     0.164 C 
ENDROOT
BRANCH   1   2
ATOM      2  CB  PHE A  61     -36.813 128.951  11.509  1.00 39.41     0.058 C 
BRANCH   2   3
ATOM      3  CG  PHE A  61     -37.105 127.991  10.381  1.00 39.01    -0.020 A 
ATOM      4  CD2 PHE A  61     -36.395 126.807  10.252  1.00 40.32    -0.004 A 
ATOM      5  CE2 PHE A  61     -36.662 125.926   9.212  1.00 40.20    -0.000 A 
ATOM      6  CZ  PHE A  61     -37.644 126.216   8.292  1.00 40.34    -0.000 A 
ATOM      7  CE1 PHE A  61     -38.360 127.387   8.407  1.00 41.51    -0.000 A 
ATOM      8  CD1 PHE A  61     -38.089 128.271   9.443  1.00 39.94    -0.004 A 
ENDBRANCH   2   3
ENDBRANCH   1   2
END_RES PHE A  61
BEGIN_RES VAL A 134
REMARK  1 active torsions:
REMARK  status: ('A' for Active; 'I' for Inactive)
REMARK    3  A    between atoms: CA   and  CB  
ROOT
ATOM      9  CA  VAL A 134     -29.766 132.051   9.815  1.00 40.75     0.159 C 
ENDROOT
BRANCH   9  10
ATOM     10  CB  VAL A 134     -30.864 132.765   9.009  1.00 40.76     0.029 C 
ATOM     11  CG1 VAL A 134     -30.982 132.168   7.614  1.00 41.76     0.002 C 
ATOM     12  CG2 VAL A 134     -32.204 132.726   9.728  1.00 40.56     0.002 C 
ENDBRANCH   9  10
END_RES VAL A 134
BEGIN_RES TYR A 338
REMARK  3 active torsions:
REMARK  status: ('A' for Active; 'I' for Inactive)
REMARK    4  A    between atoms: CA   and  CB  
REMARK    5  A    between atoms: CB   and  CG  
REMARK    6  A    between atoms: CZ   and  OH  
ROOT
ATOM     13  CA  TYR A 338     -41.631 124.950   6.058  1.00 38.23     0.164 C 
ENDROOT
BRANCH  13  14
ATOM     14  CB  TYR A 338     -41.621 126.456   6.339  1.00 39.15     0.058 C 
BRANCH  14  15
ATOM     15  CG  TYR A 338     -40.400 127.205   5.857  1.00 39.03    -0.020 A 
ATOM     16  CD2 TYR A 338     -40.229 128.543   6.172  1.00 40.65    -0.002 A 
ATOM     17  CE2 TYR A 338     -39.129 129.265   5.734  1.00 40.91     0.024 A 
ATOM     18  CZ  TYR A 338     -38.167 128.646   4.958  1.00 42.33     0.089 A 
ATOM     19  CE1 TYR A 338     -38.313 127.309   4.634  1.00 40.63     0.024 A 
ATOM     20  CD1 TYR A 338     -39.427 126.608   5.071  1.00 39.27    -0.002 A 
BRANCH  18  21
ATOM     21  OH  TYR A 338     -37.077 129.347   4.524  1.00 43.36    -0.359 OA
ATOM     22  HH  TYR A 338     -36.429 129.660   5.145  1.00  0.00     0.217 HD
ENDBRANCH  18  21
ENDBRANCH  14  15
ENDBRANCH  13  14
END_RES TYR A 338
ENDMDL
MODEL 2
REMARK VINA RESULT:    -8.787      1.185     16.669
REMARK INTER + INTRA:         -11.210
REMARK INTER:                 -10.999
REMARK INTRA:                  -0.211
REMARK UNBOUND:                -2.423
REMARK  0 active torsions:
REMARK  status: ('A' for Active; 'I' for Inactive)
REMARK       I    between atoms: C3_3  and  O3_21 
REMARK       I    between atoms: C6_6  and  C7_7 
REMARK       I    between atoms: C8_8  and  C9_9 
REMARK       I    between atoms: C10_10  and  C11_11 
REMARK       I    between atoms: C12_12  and  C13_13 
REMARK       I    between atoms: C14_14  and  C15_15 
REMARK       I    between atoms: C23_25  and  O23_43 
REMARK       I    between atoms: C26_28  and  C27_29 
REMARK       I    between atoms: C28_30  and  C29_31 
REMARK       I    between atoms: C30_32  and  C31_33 
REMARK       I    between atoms: C32_34  and  C33_35 
REMARK       I    between atoms: C34_36  and  C35_37 
ROOT
HETATM    1  C1  VFQ V1621     -49.608 145.627  11.244  1.00 16.22    -0.018 C 
HETATM    2  C2  VFQ V1621     -50.239 145.488  12.612  1.00 16.22     0.045 C 
HETATM    3  C3  VFQ V1621     -49.383 145.971  13.747  1.00 16.22     0.123 C 
HETATM    4  C4  VFQ V1621     -48.792 147.287  13.319  1.00 16.22     0.066 C 
HETATM    5  C5  VFQ V1621     -47.818 146.947  12.238  1.00 16.22    -0.074 C 
HETATM    6  C6  VFQ V1621     -48.225 146.208  11.211  1.00 16.22    -0.048 C 
HETATM    7  C7  VFQ V1621     -47.333 145.715  10.152  1.00 16.22     0.009 C 
HETATM    8  C8  VFQ V1621     -46.167 145.230  10.564  1.00 16.22     0.007 C 
HETATM    9  C9  VFQ V1621     -45.319 144.483   9.618  1.00 16.22    -0.062 C 
HETATM   10  C10 VFQ V1621     -44.498 143.558  10.133  1.00 16.22     0.007 C 
HETATM   11  C11 VFQ V1621     -43.709 142.636   9.325  1.00 16.22     0.001 C 
HETATM   12  C12 VFQ V1621     -43.066 141.635   9.916  1.00 16.22     0.007 C 
HETATM   13  C13 VFQ V1621     -42.311 140.638   9.138  1.00 16.22    -0.062 C 
HETATM   14  C14 VFQ V1621     -41.787 139.592   9.796  1.00 16.22     0.007 C 
HETATM   15  C15 VFQ V1621     -41.029 138.518   9.158  1.00 16.22     0.001 C 
HETATM   16  C16 VFQ V1621     -50.438 146.605  10.431  1.00 16.22     0.020 C 
HETATM   17  C17 VFQ V1621     -49.616 144.251  10.640  1.00 16.22     0.020 C 
HETATM   18  C18 VFQ V1621     -46.602 147.812  12.191  1.00 16.22     0.044 C 
HETATM   19  C19 VFQ V1621     -45.471 144.700   8.140  1.00 16.22     0.048 C 
HETATM   20  C20 VFQ V1621     -42.188 140.828   7.658  1.00 16.22     0.048 C 
HETATM   21  O3  VFQ V1621     -50.247 146.115  14.868  1.00 16.22    -0.395 OA
ATOM     22  H3  VFQ V1621     -49.705 146.420  15.587  1.00  0.00     0.210 HD
HETATM   23  C21 VFQ V1621     -34.025 128.013   7.158  1.00 71.46    -0.018 C 
HETATM   24  C22 VFQ V1621     -33.151 127.306   6.137  1.00 75.98     0.045 C 
HETATM   25  C23 VFQ V1621     -31.756 127.847   5.913  1.00 84.37     0.123 C 
HETATM   26  C24 VFQ V1621     -31.774 129.344   5.786  1.00 79.68     0.066 C 
HETATM   27  C25 VFQ V1621     -32.432 129.944   6.990  1.00 81.86    -0.074 C 
HETATM   28  C26 VFQ V1621     -33.535 129.406   7.536  1.00 72.92    -0.048 C 
HETATM   29  C27 VFQ V1621     -34.287 130.161   8.567  1.00 76.42     0.009 C 
HETATM   30  C28 VFQ V1621     -35.190 131.080   8.228  1.00 69.46     0.007 C 
HETATM   31  C29 VFQ V1621     -35.945 131.838   9.227  1.00 16.22    -0.062 C 
HETATM   32  C30 VFQ V1621     -36.860 132.706   8.769  1.00 16.22     0.007 C 
HETATM   33  C31 VFQ V1621     -37.674 133.564   9.618  1.00 16.22     0.001 C 
HETATM   34  C32 VFQ V1621     -38.421 134.504   9.057  1.00 16.22     0.007 C 
HETATM   35  C33 VFQ V1621     -39.201 135.448   9.872  1.00 16.22    -0.062 C 
HETATM   36  C34 VFQ V1621     -39.790 136.472   9.238  1.00 16.22     0.007 C 
HETATM   37  C35 VFQ V1621     -40.555 137.528   9.892  1.00 16.22     0.001 C 
HETATM   38  C36 VFQ V1621     -34.077 127.168   8.419  1.00 75.59     0.020 C 
HETATM   39  C37 VFQ V1621     -35.426 128.011   6.565  1.00 74.59     0.020 C 
HETATM   40  C38 VFQ V1621     -31.762 131.161   7.551  1.00 90.73     0.044 C 
HETATM   41  C39 VFQ V1621     -35.684 131.564  10.672  1.00 16.22     0.048 C 
HETATM   42  C40 VFQ V1621     -39.254 135.240  11.354  1.00 16.22     0.048 C 
HETATM   43  O23 VFQ V1621     -31.256 127.310   4.689  1.00 94.57    -0.395 OA
ATOM     44  H23 VFQ V1621     -30.380 127.650   4.548  1.00  0.00     0.210 HD
ENDROOT
TORSDOF 12
BEGIN_RES PHE A  61
REMARK  2 active torsions:
REMARK  status: ('A' for Active; 'I' for Inactive)
REMARK    1  A    between atoms: CA   and  CB  
REMARK    2  A    between atoms: CB   and  CG  
ROOT
ATOM      1  CA  PHE A  61     -36.237 128.293  12.768  1.00 39.40     0.164 C 
ENDROOT
BRANCH   1   2
ATOM      2  CB  PHE A  61     -36.813 128.951  11.509  1.00 39.41     0.058 C 
BRANCH   2   3
ATOM      3  CG  PHE A  61     -37.044 128.001  10.359  1.00 39.01    -0.020 A 
ATOM      4  CD2 PHE A  61     -36.332 126.816  10.260  1.00 40.32    -0.004 A 
ATOM      5  CE2 PHE A  61     -36.544 125.944   9.199  1.00 40.20    -0.000 A 
ATOM      6  CZ  PHE A  61     -37.472 126.245   8.228  1.00 40.34    -0.000 A 
ATOM      7  CE1 PHE A  61     -38.189 127.417   8.313  1.00 41.51    -0.000 A 
ATOM      8  CD1 PHE A  61     -37.973 128.292   9.370  1.00 39.94    -0.004 A 
ENDBRANCH   2   3
ENDBRANCH   1   2
END_RES PHE A  61
BEGIN_RES VAL A 134
REMARK  1 active torsions:
REMARK  status: ('A' for Active; 'I' for Inactive)
REMARK    3  A    between atoms: CA   and  CB  
ROOT
ATOM      9  CA  VAL A 134     -29.766 132.051   9.815  1.00 40.75     0.159 C 
ENDROOT
BRANCH   9  10
ATOM     10  CB  VAL A 134     -30.864 132.765   9.009  1.00 40.76     0.029 C 
ATOM     11  CG1 VAL A 134     -32.118 132.947   9.852  1.00 41.76     0.002 C 
ATOM     12  CG2 VAL A 134     -30.381 134.100   8.463  1.00 40.56     0.002 C 
ENDBRANCH   9  10
END_RES VAL A 134
BEGIN_RES TYR A 338
REMARK  3 active torsions:
REMARK  status: ('A' for Active; 'I' for Inactive)
REMARK    4  A    between atoms: CA   and  CB  
REMARK    5  A    between atoms: CB   and  CG  
REMARK    6  A    between atoms: CZ   and  OH  
ROOT
ATOM     13  CA  TYR A 338     -41.631 124.950   6.058  1.00 38.23     0.164 C 
ENDROOT
BRANCH  13  14
ATOM     14  CB  TYR A 338     -41.621 126.456   6.339  1.00 39.15     0.058 C 
BRANCH  14  15
ATOM     15  CG  TYR A 338     -40.413 127.210   5.832  1.00 39.03    -0.020 A 
ATOM     16  CD2 TYR A 338     -40.257 128.556   6.116  1.00 40.65    -0.002 A 
ATOM     17  CE2 TYR A 338     -39.170 129.282   5.655  1.00 40.91     0.024 A 
ATOM     18  CZ  TYR A 338     -38.206 128.659   4.885  1.00 42.33     0.089 A 
ATOM     19  CE1 TYR A 338     -38.337 127.314   4.591  1.00 40.63     0.024 A 
ATOM     20  CD1 TYR A 338     -39.438 126.608   5.052  1.00 39.27    -0.002 A 
BRANCH  18  21
ATOM     21  OH  TYR A 338     -37.128 129.365   4.428  1.00 43.36    -0.359 OA
ATOM     22  HH  TYR A 338     -37.080 129.634   3.518  1.00  0.00     0.217 HD
ENDBRANCH  18  21
ENDBRANCH  14  15
ENDBRANCH  13  14
END_RES TYR A 338
ENDMDL
