REMARK VINA RESULT:   -11.202      1.126     16.663
REMARK INTER + INTRA:         -11.178
REMARK INTER:                  -8.213
REMARK INTRA:                  -2.965
REMARK UNBOUND:                 0.024
REMARK  0 active torsions:
REMARK  status: ('A' for Active; 'I' for Inactive)
REMARK       I    between atoms: C3_3  and  O3_21 
REMARK       I    between atoms: C6_6  and  C7_7 
REMARK       I    between atoms: C8_8  and  C9_9 
REMARK       I    between atoms: C10_10  and  C11_11 
REMARK       I    between atoms: C12_12  and  C13_13 
REMARK       I    between atoms: C14_14  and  C15_15 
REMARK       I    between atoms: C23_25  and  O23_43 
REMARK       I    between atoms: C26_28  and  C27_29 
REMARK       I    between atoms: C28_30  and  C29_31 
REMARK       I    between atoms: C30_32  and  C31_33 
REMARK       I    between atoms: C32_34  and  C33_35 
REMARK       I    between atoms: C34_36  and  C35_37 
ROOT
HETATM    1  C1  VFQ G1620     -34.418 126.875   6.229  1.00 59.27    -0.018 C 
HETATM    2  C2  VFQ G1620     -33.854 126.084   5.060  1.00 64.60     0.045 C 
HETATM    3  C3  VFQ G1620     -32.899 126.852   4.172  1.00 63.28     0.123 C 
HETATM    4  C4  VFQ G1620     -31.787 127.439   5.001  1.00 61.00     0.066 C 
HETATM    5  C5  VFQ G1620     -32.356 128.302   6.092  1.00 64.87    -0.074 C 
HETATM    6  C6  VFQ G1620     -33.538 128.031   6.682  1.00 63.96    -0.048 C 
HETATM    7  C7  VFQ G1620     -34.010 128.834   7.842  1.00 64.82     0.009 C 
HETATM    8  C8  VFQ G1620     -34.671 129.988   7.701  1.00 58.91     0.007 C 
HETATM    9  C9  VFQ G1620     -35.146 130.771   8.842  1.00 59.76    -0.062 C 
HETATM   10  C10 VFQ G1620     -35.864 131.856   8.539  1.00 59.44     0.007 C 
HETATM   11  C11 VFQ G1620     -36.452 132.780   9.490  1.00 53.66     0.001 C 
HETATM   12  C12 VFQ G1620     -37.265 133.656   8.921  1.00 59.47     0.007 C 
HETATM   13  C13 VFQ G1620     -38.004 134.678   9.669  1.00 64.69    -0.062 C 
HETATM   14  C14 VFQ G1620     -38.916 135.386   8.998  1.00 66.67     0.007 C 
HETATM   15  C15 VFQ G1620     -39.736 136.401   9.641  1.00 73.65     0.001 C 
HETATM   16  C16 VFQ G1620     -34.667 125.850   7.331  1.00 56.55     0.020 C 
HETATM   17  C17 VFQ G1620     -35.749 127.478   5.807  1.00 59.14     0.020 C 
HETATM   18  C18 VFQ G1620     -31.425 129.382   6.568  1.00 61.00     0.044 C 
HETATM   19  C19 VFQ G1620     -34.813 130.365  10.247  1.00 55.95     0.048 C 
HETATM   20  C20 VFQ G1620     -37.746 134.896  11.128  1.00 67.83     0.048 C 
HETATM   21  O3  VFQ G1620     -32.338 125.958   3.208  1.00 73.40    -0.395 OA
ATOM     22  H3  VFQ G1620     -31.737 126.440   2.650  1.00  0.00     0.210 HD
HETATM   23  C21 VFQ G1620     -49.703 144.029  11.434  1.00 21.58    -0.018 C 
HETATM   24  C22 VFQ G1620     -50.571 144.741  12.493  1.00 21.20     0.045 C 
HETATM   25  C23 VFQ G1620     -49.984 145.876  13.336  1.00 20.61     0.123 C 
HETATM   26  C24 VFQ G1620     -48.467 146.084  13.199  1.00 19.82     0.066 C 
HETATM   27  C25 VFQ G1620     -47.690 145.464  12.079  1.00 19.81    -0.074 C 
HETATM   28  C26 VFQ G1620     -48.210 144.503  11.237  1.00 19.95    -0.048 C 
HETATM   29  C27 VFQ G1620     -47.457 143.866  10.117  1.00 17.10     0.009 C 
HETATM   30  C28 VFQ G1620     -46.575 142.853  10.269  1.00 17.58     0.007 C 
HETATM   31  C29 VFQ G1620     -45.795 142.177   9.269  1.00 93.82    -0.062 C 
HETATM   32  C30 VFQ G1620     -45.021 141.181   9.695  1.00 83.29     0.007 C 
HETATM   33  C31 VFQ G1620     -44.189 140.359   8.840  1.00 75.18     0.001 C 
HETATM   34  C32 VFQ G1620     -43.381 139.541   9.493  1.00 71.38     0.007 C 
HETATM   35  C33 VFQ G1620     -42.494 138.603   8.799  1.00 70.67    -0.062 C 
HETATM   36  C34 VFQ G1620     -41.638 137.888   9.537  1.00 74.09     0.007 C 
HETATM   37  C35 VFQ G1620     -40.749 136.901   8.944  1.00 74.87     0.001 C 
HETATM   38  C36 VFQ G1620     -50.473 144.121  10.097  1.00 19.38     0.020 C 
HETATM   39  C37 VFQ G1620     -49.751 142.560  11.911  1.00 19.65     0.020 C 
HETATM   40  C38 VFQ G1620     -46.339 146.082  12.051  1.00 20.06     0.044 C 
HETATM   41  C39 VFQ G1620     -45.873 142.577   7.827  1.00 99.93     0.048 C 
HETATM   42  C40 VFQ G1620     -42.584 138.444   7.316  1.00 65.73     0.048 C 
HETATM   43  O23 VFQ G1620     -50.332 145.704  14.702  1.00 18.88    -0.395 OA
ATOM     44  H23 VFQ G1620     -49.968 146.408  15.226  1.00  0.00     0.210 HD
ENDROOT
TORSDOF 12
