REMARK VINA RESULT:    -8.631      0.000      0.000
REMARK INTER + INTRA:         -11.953
REMARK INTER:                  -8.631
REMARK INTRA:                  -3.323
REMARK UNBOUND:                -3.323
REMARK  0 active torsions:
REMARK  status: ('A' for Active; 'I' for Inactive)
REMARK       I    between atoms: C3_3  and  O3_21 
REMARK       I    between atoms: C6_6  and  C7_7 
REMARK       I    between atoms: C8_8  and  C9_9 
REMARK       I    between atoms: C10_10  and  C11_11 
REMARK       I    between atoms: C12_12  and  C13_13 
REMARK       I    between atoms: C14_14  and  C15_15 
REMARK       I    between atoms: C23_25  and  O23_43 
REMARK       I    between atoms: C26_28  and  C27_29 
REMARK       I    between atoms: C28_30  and  C29_31 
REMARK       I    between atoms: C30_32  and  C31_33 
REMARK       I    between atoms: C32_34  and  C33_35 
REMARK       I    between atoms: C34_36  and  C35_37 
ROOT
HETATM    1  C1  VFQ D3621     -47.414 146.213  12.844  1.00 23.41    -0.018 C 
HETATM    2  C2  VFQ D3621     -48.294 146.792  13.966  1.00 23.79     0.045 C 
HETATM    3  C3  VFQ D3621     -47.660 147.483  15.170  1.00 23.28     0.123 C 
HETATM    4  C4  VFQ D3621     -46.218 147.959  14.932  1.00 23.70     0.066 C 
HETATM    5  C5  VFQ D3621     -45.392 147.387  13.816  1.00 23.84    -0.074 C 
HETATM    6  C6  VFQ D3621     -45.901 146.576  12.821  1.00 22.99    -0.048 C 
HETATM    7  C7  VFQ D3621     -45.108 146.006  11.700  1.00 20.55     0.009 C 
HETATM    8  C8  VFQ D3621     -44.334 144.902  11.787  1.00 19.35     0.007 C 
HETATM    9  C9  VFQ D3621     -43.468 144.276  10.785  1.00 18.45    -0.062 C 
HETATM   10  C10 VFQ D3621     -42.905 143.091  11.106  1.00 18.11     0.007 C 
HETATM   11  C11 VFQ D3621     -42.101 142.258  10.258  1.00 18.44     0.001 C 
HETATM   12  C12 VFQ D3621     -41.650 141.044  10.653  1.00 19.34     0.007 C 
HETATM   13  C13 VFQ D3621     -40.908 140.082   9.818  1.00 20.12    -0.062 C 
HETATM   14  C14 VFQ D3621     -40.554 138.893  10.362  1.00 19.73     0.007 C 
HETATM   15  C15 VFQ D3621     -39.869 137.785   9.702  1.00 19.24     0.001 C 
HETATM   16  C16 VFQ D3621     -48.117 146.753  11.593  1.00 23.73     0.020 C 
HETATM   17  C17 VFQ D3621     -47.586 144.689  12.863  1.00 23.42     0.020 C 
HETATM   18  C18 VFQ D3621     -43.991 147.862  13.953  1.00 22.78     0.044 C 
HETATM   19  C19 VFQ D3621     -43.331 144.950   9.455  1.00 16.12     0.048 C 
HETATM   20  C20 VFQ D3621     -40.619 140.488   8.399  1.00 17.75     0.048 C 
HETATM   21  O3  VFQ D3621     -48.478 148.560  15.603  1.00 21.52    -0.395 OA
ATOM     22  H3  VFQ D3621     -48.083 148.990  16.352  1.00  0.00     0.210 HD
HETATM   23  C21 VFQ D3621     -33.901 126.531   6.635  1.00 38.90    -0.018 C 
HETATM   24  C22 VFQ D3621     -33.078 125.850   5.543  1.00 38.90     0.045 C 
HETATM   25  C23 VFQ D3621     -32.668 126.745   4.376  1.00 38.90     0.123 C 
HETATM   26  C24 VFQ D3621     -33.587 127.947   4.284  1.00 38.90     0.066 C 
HETATM   27  C25 VFQ D3621     -33.422 128.689   5.577  1.00 38.90    -0.074 C 
HETATM   28  C26 VFQ D3621     -33.675 128.023   6.708  1.00 38.90    -0.048 C 
HETATM   29  C27 VFQ D3621     -33.959 128.735   7.966  1.00 38.90     0.009 C 
HETATM   30  C28 VFQ D3621     -34.845 129.718   7.814  1.00 38.90     0.007 C 
HETATM   31  C29 VFQ D3621     -35.450 130.462   8.971  1.00 21.21    -0.062 C 
HETATM   32  C30 VFQ D3621     -36.299 131.479   8.688  1.00 20.08     0.007 C 
HETATM   33  C31 VFQ D3621     -36.972 132.322   9.649  1.00 17.89     0.001 C 
HETATM   34  C32 VFQ D3621     -37.640 133.450   9.304  1.00 17.64     0.007 C 
HETATM   35  C33 VFQ D3621     -38.320 134.423  10.194  1.00 17.45    -0.062 C 
HETATM   36  C34 VFQ D3621     -38.824 135.550   9.635  1.00 15.95     0.007 C 
HETATM   37  C35 VFQ D3621     -39.486 136.650  10.319  1.00 18.41     0.001 C 
HETATM   38  C36 VFQ D3621     -33.587 125.909   7.989  1.00 38.90     0.020 C 
HETATM   39  C37 VFQ D3621     -35.384 126.344   6.324  1.00 38.90     0.020 C 
HETATM   40  C38 VFQ D3621     -32.853 130.088   5.544  1.00 38.90     0.044 C 
HETATM   41  C39 VFQ D3621     -35.018 130.095  10.366  1.00 22.05     0.048 C 
HETATM   42  C40 VFQ D3621     -38.337 134.124  11.672  1.00 11.49     0.048 C 
HETATM   43  O23 VFQ D3621     -32.735 126.013   3.149  1.00 38.90    -0.395 OA
ATOM     44  H23 VFQ D3621     -32.480 126.571   2.423  1.00  0.00     0.210 HD
ENDROOT
TORSDOF 12
