REMARK VINA RESULT:    -8.581      3.103      5.231
REMARK INTER + INTRA:         -10.693
REMARK INTER:                  -3.918
REMARK INTRA:                  -6.776
REMARK UNBOUND:                -2.113
REMARK  0 active torsions:
REMARK  status: ('A' for Active; 'I' for Inactive)
REMARK       I    between atoms: C3_3  and  O3_21 
REMARK       I    between atoms: C6_6  and  C7_7 
REMARK       I    between atoms: C8_8  and  C9_9 
REMARK       I    between atoms: C10_10  and  C11_11 
REMARK       I    between atoms: C12_12  and  C13_13 
REMARK       I    between atoms: C14_14  and  C15_15 
REMARK       I    between atoms: C23_25  and  O23_43 
REMARK       I    between atoms: C26_28  and  C27_29 
REMARK       I    between atoms: C28_30  and  C29_31 
REMARK       I    between atoms: C30_32  and  C31_33 
REMARK       I    between atoms: C32_34  and  C33_35 
REMARK       I    between atoms: C34_36  and  C35_37 
ROOT
HETATM    1  C1  VFQ Z 618     -49.402 150.140   8.374  1.00 27.67    -0.018 C 
HETATM    2  C2  VFQ Z 618     -50.345 150.757   7.343  1.00 27.67     0.045 C 
HETATM    3  C3  VFQ Z 618     -51.807 150.343   7.407  1.00 27.67     0.123 C 
HETATM    4  C4  VFQ Z 618     -52.259 150.180   8.842  1.00 27.67     0.066 C 
HETATM    5  C5  VFQ Z 618     -51.396 149.116   9.452  1.00 27.67    -0.074 C 
HETATM    6  C6  VFQ Z 618     -50.067 149.211   9.376  1.00 27.67    -0.048 C 
HETATM    7  C7  VFQ Z 618     -49.194 148.433  10.288  1.00 27.67     0.009 C 
HETATM    8  C8  VFQ Z 618     -48.906 147.148  10.070  1.00 27.67     0.007 C 
HETATM    9  C9  VFQ Z 618     -48.024 146.392  10.969  1.00 27.67    -0.062 C 
HETATM   10  C10 VFQ Z 618     -47.453 145.294  10.466  1.00 27.67     0.007 C 
HETATM   11  C11 VFQ Z 618     -46.526 144.423  11.176  1.00 27.67     0.001 C 
HETATM   12  C12 VFQ Z 618     -45.991 143.499  10.387  1.00 27.67     0.007 C 
HETATM   13  C13 VFQ Z 618     -44.993 142.491  10.767  1.00 27.67    -0.062 C 
HETATM   14  C14 VFQ Z 618     -44.619 141.624   9.816  1.00 27.67     0.007 C 
HETATM   15  C15 VFQ Z 618     -43.599 140.610  10.031  1.00 27.67     0.001 C 
HETATM   16  C16 VFQ Z 618     -48.689 151.288   9.082  1.00 27.67     0.020 C 
HETATM   17  C17 VFQ Z 618     -48.363 149.316   7.627  1.00 27.67     0.020 C 
HETATM   18  C18 VFQ Z 618     -52.096 148.550  10.650  1.00 27.67     0.044 C 
HETATM   19  C19 VFQ Z 618     -47.786 146.839  12.377  1.00 27.67     0.048 C 
HETATM   20  C20 VFQ Z 618     -44.399 142.456  12.141  1.00 27.67     0.048 C 
HETATM   21  O3  VFQ Z 618     -52.600 151.350   6.776  1.00 27.67    -0.395 OA
ATOM     22  H3  VFQ Z 618     -52.316 151.452   5.875  1.00  0.00     0.210 HD
HETATM   23  C21 VFQ Z 618     -35.082 131.261   8.167  1.00 22.61    -0.018 C 
HETATM   24  C22 VFQ Z 618     -33.814 130.546   8.670  1.00 23.33     0.045 C 
HETATM   25  C23 VFQ Z 618     -33.686 130.116  10.134  1.00 24.77     0.123 C 
HETATM   26  C24 VFQ Z 618     -34.814 130.575  11.075  1.00 22.10     0.066 C 
HETATM   27  C25 VFQ Z 618     -36.084 131.115  10.510  1.00 21.89    -0.074 C 
HETATM   28  C26 VFQ Z 618     -36.253 131.449   9.185  1.00 21.83    -0.048 C 
HETATM   29  C27 VFQ Z 618     -37.507 131.998   8.620  1.00 21.27     0.009 C 
HETATM   30  C28 VFQ Z 618     -37.888 133.294   8.712  1.00 20.16     0.007 C 
HETATM   31  C29 VFQ Z 618     -39.097 133.879   8.187  1.00 27.67    -0.062 C 
HETATM   32  C30 VFQ Z 618     -39.287 135.190   8.359  1.00 27.67     0.007 C 
HETATM   33  C31 VFQ Z 618     -40.452 135.925   7.885  1.00 27.67     0.001 C 
HETATM   34  C32 VFQ Z 618     -40.878 136.893   8.688  1.00 27.67     0.007 C 
HETATM   35  C33 VFQ Z 618     -42.024 137.766   8.398  1.00 27.67    -0.062 C 
HETATM   36  C34 VFQ Z 618     -42.247 138.786   9.236  1.00 27.67     0.007 C 
HETATM   37  C35 VFQ Z 618     -43.313 139.762   9.048  1.00 27.67     0.001 C 
HETATM   38  C36 VFQ Z 618     -35.564 130.503   6.912  1.00 21.21     0.020 C 
HETATM   39  C37 VFQ Z 618     -34.554 132.624   7.694  1.00 21.56     0.020 C 
HETATM   40  C38 VFQ Z 618     -37.073 131.195  11.608  1.00 21.82     0.044 C 
HETATM   41  C39 VFQ Z 618     -40.097 133.020   7.474  1.00 27.67     0.048 C 
HETATM   42  C40 VFQ Z 618     -42.913 137.523   7.220  1.00 27.67     0.048 C 
HETATM   43  O23 VFQ Z 618     -32.420 130.506  10.657  1.00 25.40    -0.395 OA
ATOM     44  H23 VFQ Z 618     -32.340 130.238  11.564  1.00  0.00     0.210 HD
ENDROOT
TORSDOF 12
