REMARK VINA RESULT:    -9.081      0.000      0.000
REMARK INTER + INTRA:         -12.176
REMARK INTER:                  -9.081
REMARK INTRA:                  -3.095
REMARK UNBOUND:                -3.095
REMARK  0 active torsions:
REMARK  status: ('A' for Active; 'I' for Inactive)
REMARK       I    between atoms: C3_3  and  O3_21 
REMARK       I    between atoms: C6_6  and  C7_7 
REMARK       I    between atoms: C8_8  and  C9_9 
REMARK       I    between atoms: C10_10  and  C11_11 
REMARK       I    between atoms: C12_12  and  C13_13 
REMARK       I    between atoms: C14_14  and  C15_15 
REMARK       I    between atoms: C23_25  and  O23_43 
REMARK       I    between atoms: C26_28  and  C27_29 
REMARK       I    between atoms: C28_30  and  C29_31 
REMARK       I    between atoms: C30_32  and  C31_33 
REMARK       I    between atoms: C32_34  and  C33_35 
REMARK       I    between atoms: C34_36  and  C35_37 
ROOT
HETATM    1  C1  VFQ G1621     -34.543 126.970   6.135  1.00 57.09    -0.018 C 
HETATM    2  C2  VFQ G1621     -34.106 126.338   4.821  1.00 57.09     0.045 C 
HETATM    3  C3  VFQ G1621     -32.889 126.929   4.134  1.00 57.09     0.123 C 
HETATM    4  C4  VFQ G1621     -31.858 127.359   5.154  1.00 57.09     0.066 C 
HETATM    5  C5  VFQ G1621     -32.489 128.356   6.082  1.00 57.09    -0.074 C 
HETATM    6  C6  VFQ G1621     -33.678 128.104   6.642  1.00 57.09    -0.048 C 
HETATM    7  C7  VFQ G1621     -34.183 128.907   7.789  1.00 57.09     0.009 C 
HETATM    8  C8  VFQ G1621     -34.766 130.097   7.615  1.00 57.09     0.007 C 
HETATM    9  C9  VFQ G1621     -35.299 130.921   8.712  1.00 57.09    -0.062 C 
HETATM   10  C10 VFQ G1621     -36.228 131.815   8.364  1.00 57.09     0.007 C 
HETATM   11  C11 VFQ G1621     -36.935 132.729   9.251  1.00 57.09     0.001 C 
HETATM   12  C12 VFQ G1621     -37.851 133.481   8.650  1.00 57.09     0.007 C 
HETATM   13  C13 VFQ G1621     -38.718 134.445   9.342  1.00 57.09    -0.062 C 
HETATM   14  C14 VFQ G1621     -39.540 135.211   8.612  1.00 57.09     0.007 C 
HETATM   15  C15 VFQ G1621     -40.462 136.151   9.236  1.00 57.09     0.001 C 
HETATM   16  C16 VFQ G1621     -34.625 125.850   7.161  1.00 57.09     0.020 C 
HETATM   17  C17 VFQ G1621     -35.925 127.545   5.919  1.00 57.09     0.020 C 
HETATM   18  C18 VFQ G1621     -31.465 129.240   6.729  1.00 57.09     0.044 C 
HETATM   19  C19 VFQ G1621     -34.827 130.763  10.125  1.00 57.09     0.048 C 
HETATM   20  C20 VFQ G1621     -38.711 134.522  10.837  1.00 57.09     0.048 C 
HETATM   21  O3  VFQ G1621     -32.321 125.912   3.306  1.00 57.09    -0.395 OA
ATOM     22  H3  VFQ G1621     -32.969 125.642   2.665  1.00  0.00     0.210 HD
HETATM   23  C21 VFQ G1621     -50.072 144.295  10.589  1.00 40.88    -0.018 C 
HETATM   24  C22 VFQ G1621     -50.999 145.354  11.189  1.00 40.88     0.045 C 
HETATM   25  C23 VFQ G1621     -50.363 146.583  11.829  1.00 40.88     0.123 C 
HETATM   26  C24 VFQ G1621     -49.006 146.264  12.428  1.00 40.88     0.066 C 
HETATM   27  C25 VFQ G1621     -48.153 145.677  11.337  1.00 40.88    -0.074 C 
HETATM   28  C26 VFQ G1621     -48.615 144.708  10.539  1.00 40.88    -0.048 C 
HETATM   29  C27 VFQ G1621     -47.704 144.042   9.566  1.00 40.88     0.009 C 
HETATM   30  C28 VFQ G1621     -47.060 142.910   9.847  1.00 40.88     0.007 C 
HETATM   31  C29 VFQ G1621     -46.162 142.236   8.900  1.00 57.09    -0.062 C 
HETATM   32  C30 VFQ G1621     -45.738 141.018   9.244  1.00 57.09     0.007 C 
HETATM   33  C31 VFQ G1621     -44.845 140.213   8.428  1.00 57.09     0.001 C 
HETATM   34  C32 VFQ G1621     -43.985 139.448   9.086  1.00 57.09     0.007 C 
HETATM   35  C33 VFQ G1621     -43.027 138.580   8.401  1.00 57.09    -0.062 C 
HETATM   36  C34 VFQ G1621     -42.276 137.729   9.104  1.00 57.09     0.007 C 
HETATM   37  C35 VFQ G1621     -41.320 136.823   8.479  1.00 57.09     0.001 C 
HETATM   38  C36 VFQ G1621     -50.503 144.052   9.153  1.00 40.88     0.020 C 
HETATM   39  C37 VFQ G1621     -50.270 143.003  11.376  1.00 40.88     0.020 C 
HETATM   40  C38 VFQ G1621     -46.782 146.246  11.156  1.00 40.88     0.044 C 
HETATM   41  C39 VFQ G1621     -45.737 142.890   7.623  1.00 57.09     0.048 C 
HETATM   42  C40 VFQ G1621     -42.913 138.694   6.925  1.00 57.09     0.048 C 
HETATM   43  O23 VFQ G1621     -51.227 147.053  12.869  1.00 40.88    -0.395 OA
ATOM     44  H23 VFQ G1621     -50.831 147.819  13.268  1.00  0.00     0.210 HD
ENDROOT
TORSDOF 12
