REMARK VINA RESULT:    -9.666      2.354     17.082
REMARK INTER + INTRA:         -10.054
REMARK INTER:                  -8.113
REMARK INTRA:                  -1.942
REMARK UNBOUND:                -0.389
REMARK  0 active torsions:
REMARK  status: ('A' for Active; 'I' for Inactive)
REMARK       I    between atoms: C3_3  and  O3_21 
REMARK       I    between atoms: C6_6  and  C7_7 
REMARK       I    between atoms: C8_8  and  C9_9 
REMARK       I    between atoms: C10_10  and  C11_11 
REMARK       I    between atoms: C12_12  and  C13_13 
REMARK       I    between atoms: C14_14  and  C15_15 
REMARK       I    between atoms: C23_25  and  O23_43 
REMARK       I    between atoms: C26_28  and  C27_29 
REMARK       I    between atoms: C28_30  and  C29_31 
REMARK       I    between atoms: C30_32  and  C31_33 
REMARK       I    between atoms: C32_34  and  C33_35 
REMARK       I    between atoms: C34_36  and  C35_37 
ROOT
HETATM    1  C1  VFQ F5621     -46.982 148.501   9.912  1.00 20.77    -0.018 C 
HETATM    2  C2  VFQ F5621     -48.478 148.853   9.863  1.00 19.21     0.045 C 
HETATM    3  C3  VFQ F5621     -49.297 148.921  11.149  1.00 20.68     0.123 C 
HETATM    4  C4  VFQ F5621     -48.539 148.591  12.440  1.00 17.77     0.066 C 
HETATM    5  C5  VFQ F5621     -47.152 148.035  12.407  1.00 19.05    -0.074 C 
HETATM    6  C6  VFQ F5621     -46.388 147.972  11.257  1.00 19.48    -0.048 C 
HETATM    7  C7  VFQ F5621     -45.009 147.417  11.179  1.00 16.56     0.009 C 
HETATM    8  C8  VFQ F5621     -44.700 146.094  11.115  1.00 15.55     0.007 C 
HETATM    9  C9  VFQ F5621     -43.379 145.447  11.075  1.00 14.22    -0.062 C 
HETATM   10  C10 VFQ F5621     -43.342 144.109  10.880  1.00 14.29     0.007 C 
HETATM   11  C11 VFQ F5621     -42.167 143.287  10.720  1.00 14.32     0.001 C 
HETATM   12  C12 VFQ F5621     -42.242 141.967  10.422  1.00 14.19     0.007 C 
HETATM   13  C13 VFQ F5621     -41.124 141.029  10.133  1.00 15.26    -0.062 C 
HETATM   14  C14 VFQ F5621     -41.432 139.753   9.811  1.00 15.45     0.007 C 
HETATM   15  C15 VFQ F5621     -40.517 138.700   9.439  1.00 16.70     0.001 C 
HETATM   16  C16 VFQ F5621     -46.281 149.823   9.511  1.00 20.67     0.020 C 
HETATM   17  C17 VFQ F5621     -46.750 147.481   8.777  1.00 19.98     0.020 C 
HETATM   18  C18 VFQ F5621     -46.782 147.598  13.782  1.00 17.40     0.044 C 
HETATM   19  C19 VFQ F5621     -42.168 146.322  11.169  1.00 13.40     0.048 C 
HETATM   20  C20 VFQ F5621     -39.723 141.569  10.177  1.00 11.87     0.048 C 
HETATM   21  O3  VFQ F5621     -49.946 150.184  11.260  1.00 20.33    -0.395 OA
ATOM     22  H3  VFQ F5621     -50.456 150.227  12.061  1.00  0.00     0.210 HD
HETATM   23  C21 VFQ F5621     -34.459 127.507   6.237  1.00 27.99    -0.018 C 
HETATM   24  C22 VFQ F5621     -33.079 127.010   5.783  1.00 27.99     0.045 C 
HETATM   25  C23 VFQ F5621     -31.892 127.797   6.325  1.00 27.99     0.123 C 
HETATM   26  C24 VFQ F5621     -32.231 129.274   6.283  1.00 27.99     0.066 C 
HETATM   27  C25 VFQ F5621     -33.340 129.460   7.276  1.00 27.99    -0.074 C 
HETATM   28  C26 VFQ F5621     -34.448 128.717   7.159  1.00 27.99    -0.048 C 
HETATM   29  C27 VFQ F5621     -35.748 129.150   7.719  1.00 27.99     0.009 C 
HETATM   30  C28 VFQ F5621     -36.049 130.455   7.666  1.00 27.99     0.007 C 
HETATM   31  C29 VFQ F5621     -37.441 130.937   7.979  1.00 22.13    -0.062 C 
HETATM   32  C30 VFQ F5621     -37.645 132.272   7.941  1.00 22.11     0.007 C 
HETATM   33  C31 VFQ F5621     -38.894 132.954   8.202  1.00 21.40     0.001 C 
HETATM   34  C32 VFQ F5621     -38.969 134.298   8.328  1.00 17.66     0.007 C 
HETATM   35  C33 VFQ F5621     -40.141 135.130   8.641  1.00 16.53    -0.062 C 
HETATM   36  C34 VFQ F5621     -39.934 136.452   8.825  1.00 14.90     0.007 C 
HETATM   37  C35 VFQ F5621     -40.907 137.445   9.186  1.00 15.48     0.001 C 
HETATM   38  C36 VFQ F5621     -35.215 126.331   6.850  1.00 27.99     0.020 C 
HETATM   39  C37 VFQ F5621     -35.198 128.014   4.997  1.00 27.99     0.020 C 
HETATM   40  C38 VFQ F5621     -33.094 130.380   8.440  1.00 27.99     0.044 C 
HETATM   41  C39 VFQ F5621     -38.493 129.950   8.378  1.00 22.70     0.048 C 
HETATM   42  C40 VFQ F5621     -41.465 134.443   8.808  1.00 12.92     0.048 C 
HETATM   43  O23 VFQ F5621     -30.721 127.532   5.542  1.00 27.99    -0.395 OA
ATOM     44  H23 VFQ F5621     -29.981 128.023   5.879  1.00  0.00     0.210 HD
ENDROOT
TORSDOF 12
