REMARK VINA RESULT:    -9.049      1.334     16.731
REMARK INTER + INTRA:         -11.681
REMARK INTER:                 -11.479
REMARK INTRA:                  -0.202
REMARK UNBOUND:                -2.631
REMARK  0 active torsions:
REMARK  status: ('A' for Active; 'I' for Inactive)
REMARK       I    between atoms: C3_3  and  O3_21 
REMARK       I    between atoms: C6_6  and  C7_7 
REMARK       I    between atoms: C8_8  and  C9_9 
REMARK       I    between atoms: C10_10  and  C11_11 
REMARK       I    between atoms: C12_12  and  C13_13 
REMARK       I    between atoms: C14_14  and  C15_15 
REMARK       I    between atoms: C23_25  and  O23_43 
REMARK       I    between atoms: C26_28  and  C27_29 
REMARK       I    between atoms: C28_30  and  C29_31 
REMARK       I    between atoms: C30_32  and  C31_33 
REMARK       I    between atoms: C32_34  and  C33_35 
REMARK       I    between atoms: C34_36  and  C35_37 
ROOT
HETATM    1  C1  VFQ S1621     -49.706 145.412  11.931  1.00 56.99    -0.018 C 
HETATM    2  C2  VFQ S1621     -50.536 145.336  13.211  1.00 56.99     0.045 C 
HETATM    3  C3  VFQ S1621     -49.933 145.913  14.484  1.00 56.99     0.123 C 
HETATM    4  C4  VFQ S1621     -48.999 147.070  14.191  1.00 56.99     0.066 C 
HETATM    5  C5  VFQ S1621     -47.957 146.616  13.210  1.00 56.99    -0.074 C 
HETATM    6  C6  VFQ S1621     -48.284 145.898  12.136  1.00 56.99    -0.048 C 
HETATM    7  C7  VFQ S1621     -47.248 145.583  11.117  1.00 56.99     0.009 C 
HETATM    8  C8  VFQ S1621     -46.557 144.442  11.154  1.00 56.99     0.007 C 
HETATM    9  C9  VFQ S1621     -45.519 144.067  10.173  1.00 56.99    -0.062 C 
HETATM   10  C10 VFQ S1621     -44.905 142.897  10.358  1.00 56.99     0.007 C 
HETATM   11  C11 VFQ S1621     -43.859 142.368   9.494  1.00 56.99     0.001 C 
HETATM   12  C12 VFQ S1621     -43.178 141.347   9.997  1.00 56.99     0.007 C 
HETATM   13  C13 VFQ S1621     -42.107 140.645   9.275  1.00 56.99    -0.062 C 
HETATM   14  C14 VFQ S1621     -41.624 139.532   9.835  1.00 56.99     0.007 C 
HETATM   15  C15 VFQ S1621     -40.596 138.714   9.216  1.00 56.99     0.001 C 
HETATM   16  C16 VFQ S1621     -50.462 146.281  10.927  1.00 56.99     0.020 C 
HETATM   17  C17 VFQ S1621     -49.616 144.010  11.366  1.00 56.99     0.020 C 
HETATM   18  C18 VFQ S1621     -46.600 147.224  13.367  1.00 56.99     0.044 C 
HETATM   19  C19 VFQ S1621     -45.149 144.950   9.026  1.00 56.99     0.048 C 
HETATM   20  C20 VFQ S1621     -41.590 141.151   7.964  1.00 56.99     0.048 C 
HETATM   21  O3  VFQ S1621     -50.991 146.392  15.319  1.00 56.99    -0.395 OA
ATOM     22  H3  VFQ S1621     -51.577 145.667  15.503  1.00  0.00     0.210 HD
HETATM   23  C21 VFQ S1621     -33.982 127.973   7.209  1.00 71.46    -0.018 C 
HETATM   24  C22 VFQ S1621     -33.101 127.317   6.161  1.00 75.98     0.045 C 
HETATM   25  C23 VFQ S1621     -31.740 127.928   5.908  1.00 84.37     0.123 C 
HETATM   26  C24 VFQ S1621     -31.835 129.423   5.794  1.00 79.68     0.066 C 
HETATM   27  C25 VFQ S1621     -32.491 129.980   7.019  1.00 81.86    -0.074 C 
HETATM   28  C26 VFQ S1621     -33.552 129.385   7.588  1.00 72.92    -0.048 C 
HETATM   29  C27 VFQ S1621     -34.314 130.093   8.644  1.00 76.42     0.009 C 
HETATM   30  C28 VFQ S1621     -35.270 130.969   8.336  1.00 69.46     0.007 C 
HETATM   31  C29 VFQ S1621     -36.044 131.691   9.357  1.00 56.99    -0.062 C 
HETATM   32  C30 VFQ S1621     -36.892 132.587   8.867  1.00 56.99     0.007 C 
HETATM   33  C31 VFQ S1621     -37.801 133.411   9.643  1.00 56.99     0.001 C 
HETATM   34  C32 VFQ S1621     -38.055 134.615   9.156  1.00 56.99     0.007 C 
HETATM   35  C33 VFQ S1621     -39.001 135.518   9.813  1.00 56.99    -0.062 C 
HETATM   36  C34 VFQ S1621     -39.250 136.710   9.257  1.00 56.99     0.007 C 
HETATM   37  C35 VFQ S1621     -40.230 137.606   9.849  1.00 56.99     0.001 C 
HETATM   38  C36 VFQ S1621     -33.960 127.115   8.464  1.00 75.59     0.020 C 
HETATM   39  C37 VFQ S1621     -35.396 127.905   6.652  1.00 74.59     0.020 C 
HETATM   40  C38 VFQ S1621     -31.868 131.223   7.574  1.00 90.73     0.044 C 
HETATM   41  C39 VFQ S1621     -35.909 131.437  10.825  1.00 56.99     0.048 C 
HETATM   42  C40 VFQ S1621     -39.698 135.072  11.060  1.00 56.99     0.048 C 
HETATM   43  O23 VFQ S1621     -31.246 127.426   4.666  1.00 94.57    -0.395 OA
ATOM     44  H23 VFQ S1621     -30.392 127.809   4.507  1.00  0.00     0.210 HD
ENDROOT
TORSDOF 12
