REMARK VINA RESULT:   -11.614      0.000      0.000
REMARK INTER + INTRA:         -14.105
REMARK INTER:                 -11.614
REMARK INTRA:                  -2.491
REMARK UNBOUND:                -2.491
REMARK  0 active torsions:
REMARK  status: ('A' for Active; 'I' for Inactive)
REMARK       I    between atoms: C3_3  and  O3_21 
REMARK       I    between atoms: C6_6  and  C7_7 
REMARK       I    between atoms: C8_8  and  C9_9 
REMARK       I    between atoms: C10_10  and  C11_11 
REMARK       I    between atoms: C12_12  and  C13_13 
REMARK       I    between atoms: C14_14  and  C15_15 
REMARK       I    between atoms: C23_25  and  O23_43 
REMARK       I    between atoms: C26_28  and  C27_29 
REMARK       I    between atoms: C28_30  and  C29_31 
REMARK       I    between atoms: C30_32  and  C31_33 
REMARK       I    between atoms: C32_34  and  C33_35 
REMARK       I    between atoms: C34_36  and  C35_37 
ROOT
HETATM    1  C1  VFQ 1 619     -34.315 126.804   6.469  1.00 34.54    -0.018 C 
HETATM    2  C2  VFQ 1 619     -34.077 126.196   5.086  1.00 34.54     0.045 C 
HETATM    3  C3  VFQ 1 619     -33.086 126.879   4.143  1.00 34.54     0.123 C 
HETATM    4  C4  VFQ 1 619     -32.098 127.787   4.856  1.00 34.54     0.066 C 
HETATM    5  C5  VFQ 1 619     -32.867 128.706   5.762  1.00 34.54    -0.074 C 
HETATM    6  C6  VFQ 1 619     -33.769 128.214   6.618  1.00 34.54    -0.048 C 
HETATM    7  C7  VFQ 1 619     -34.224 129.063   7.744  1.00 34.54     0.009 C 
HETATM    8  C8  VFQ 1 619     -35.262 129.879   7.584  1.00 34.54     0.007 C 
HETATM    9  C9  VFQ 1 619     -35.780 130.771   8.634  1.00 34.54    -0.062 C 
HETATM   10  C10 VFQ 1 619     -36.675 131.665   8.219  1.00 34.54     0.007 C 
HETATM   11  C11 VFQ 1 619     -37.327 132.667   9.044  1.00 34.54     0.001 C 
HETATM   12  C12 VFQ 1 619     -38.183 133.418   8.365  1.00 34.54     0.007 C 
HETATM   13  C13 VFQ 1 619     -38.958 134.508   8.964  1.00 34.54    -0.062 C 
HETATM   14  C14 VFQ 1 619     -39.987 134.999   8.265  1.00 34.54     0.007 C 
HETATM   15  C15 VFQ 1 619     -40.791 136.091   8.790  1.00 34.54     0.001 C 
HETATM   16  C16 VFQ 1 619     -33.718 125.850   7.500  1.00 34.54     0.020 C 
HETATM   17  C17 VFQ 1 619     -35.816 126.864   6.720  1.00 34.54     0.020 C 
HETATM   18  C18 VFQ 1 619     -32.034 129.910   6.097  1.00 34.54     0.044 C 
HETATM   19  C19 VFQ 1 619     -35.334 130.691  10.062  1.00 34.54     0.048 C 
HETATM   20  C20 VFQ 1 619     -38.587 135.059  10.308  1.00 34.54     0.048 C 
HETATM   21  O3  VFQ 1 619     -32.359 125.870   3.436  1.00 34.54    -0.395 OA
ATOM     22  H3  VFQ 1 619     -32.977 125.302   2.991  1.00  0.00     0.210 HD
HETATM   23  C21 VFQ 1 619     -50.742 143.320  12.026  1.00 61.00    -0.018 C 
HETATM   24  C22 VFQ 1 619     -51.565 144.548  12.406  1.00 61.00     0.045 C 
HETATM   25  C23 VFQ 1 619     -51.472 145.775  11.508  1.00 61.00     0.123 C 
HETATM   26  C24 VFQ 1 619     -50.098 145.925  10.895  1.00 61.00     0.066 C 
HETATM   27  C25 VFQ 1 619     -49.690 144.655  10.202  1.00 61.00    -0.074 C 
HETATM   28  C26 VFQ 1 619     -49.959 143.456  10.731  1.00 61.00    -0.048 C 
HETATM   29  C27 VFQ 1 619     -49.505 142.221  10.043  1.00 61.00     0.009 C 
HETATM   30  C28 VFQ 1 619     -48.318 141.672  10.304  1.00 61.00     0.007 C 
HETATM   31  C29 VFQ 1 619     -47.843 140.456   9.651  1.00 34.54    -0.062 C 
HETATM   32  C30 VFQ 1 619     -46.537 140.173   9.689  1.00 34.54     0.007 C 
HETATM   33  C31 VFQ 1 619     -45.977 138.988   9.051  1.00 34.54     0.001 C 
HETATM   34  C32 VFQ 1 619     -44.655 138.867   9.070  1.00 34.54     0.007 C 
HETATM   35  C33 VFQ 1 619     -43.968 137.718   8.462  1.00 34.54    -0.062 C 
HETATM   36  C34 VFQ 1 619     -42.671 137.553   8.732  1.00 34.54     0.007 C 
HETATM   37  C35 VFQ 1 619     -41.908 136.449   8.172  1.00 34.54     0.001 C 
HETATM   38  C36 VFQ 1 619     -51.703 142.150  11.855  1.00 61.00     0.020 C 
HETATM   39  C37 VFQ 1 619     -49.810 143.036  13.197  1.00 61.00     0.020 C 
HETATM   40  C38 VFQ 1 619     -48.982 144.797   8.886  1.00 61.00     0.044 C 
HETATM   41  C39 VFQ 1 619     -48.811 139.554   8.943  1.00 34.54     0.048 C 
HETATM   42  C40 VFQ 1 619     -44.705 136.765   7.567  1.00 34.54     0.048 C 
HETATM   43  O23 VFQ 1 619     -51.734 146.935  12.306  1.00 61.00    -0.395 OA
ATOM     44  H23 VFQ 1 619     -51.677 147.700  11.746  1.00  0.00     0.210 HD
ENDROOT
TORSDOF 12
