REMARK VINA RESULT:   -11.763      0.000      0.000
REMARK INTER + INTRA:         -12.049
REMARK INTER:                 -11.763
REMARK INTRA:                  -0.287
REMARK UNBOUND:                -0.287
REMARK  0 active torsions:
REMARK  status: ('A' for Active; 'I' for Inactive)
REMARK       I    between atoms: C3_3  and  O3_21 
REMARK       I    between atoms: C6_6  and  C7_7 
REMARK       I    between atoms: C8_8  and  C9_9 
REMARK       I    between atoms: C10_10  and  C11_11 
REMARK       I    between atoms: C12_12  and  C13_13 
REMARK       I    between atoms: C14_14  and  C15_15 
REMARK       I    between atoms: C23_25  and  O23_43 
REMARK       I    between atoms: C26_28  and  C27_29 
REMARK       I    between atoms: C28_30  and  C29_31 
REMARK       I    between atoms: C30_32  and  C31_33 
REMARK       I    between atoms: C32_34  and  C33_35 
REMARK       I    between atoms: C34_36  and  C35_37 
ROOT
HETATM    1  C1  VFQ 61620     -50.264 144.593  10.743  1.00 97.95    -0.018 C 
HETATM    2  C2  VFQ 61620     -50.990 144.828  12.064  1.00 97.95     0.045 C 
HETATM    3  C3  VFQ 61620     -50.425 145.890  12.991  1.00 97.95     0.123 C 
HETATM    4  C4  VFQ 61620     -49.875 147.068  12.221  1.00 97.95     0.066 C 
HETATM    5  C5  VFQ 61620     -48.839 146.575  11.255  1.00 97.95    -0.074 C 
HETATM    6  C6  VFQ 61620     -49.031 145.455  10.549  1.00 97.95    -0.048 C 
HETATM    7  C7  VFQ 61620     -48.033 145.019   9.543  1.00 97.95     0.009 C 
HETATM    8  C8  VFQ 61620     -47.012 144.232   9.876  1.00 97.95     0.007 C 
HETATM    9  C9  VFQ 61620     -46.021 143.773   8.900  1.00 97.95    -0.062 C 
HETATM   10  C10 VFQ 61620     -45.103 142.918   9.342  1.00 97.95     0.007 C 
HETATM   11  C11 VFQ 61620     -44.061 142.356   8.503  1.00 97.95     0.001 C 
HETATM   12  C12 VFQ 61620     -43.246 141.532   9.139  1.00 97.95     0.007 C 
HETATM   13  C13 VFQ 61620     -42.138 140.824   8.488  1.00 97.95    -0.062 C 
HETATM   14  C14 VFQ 61620     -41.633 139.801   9.175  1.00 97.95     0.007 C 
HETATM   15  C15 VFQ 61620     -40.565 138.957   8.676  1.00 97.95     0.001 C 
HETATM   16  C16 VFQ 61620     -51.285 144.820   9.632  1.00 97.95     0.020 C 
HETATM   17  C17 VFQ 61620     -49.814 143.139  10.704  1.00 97.95     0.020 C 
HETATM   18  C18 VFQ 61620     -47.662 147.481  11.045  1.00 97.95     0.044 C 
HETATM   19  C19 VFQ 61620     -46.050 144.244   7.478  1.00 97.95     0.048 C 
HETATM   20  C20 VFQ 61620     -41.622 141.211   7.136  1.00 97.95     0.048 C 
HETATM   21  O3  VFQ 61620     -51.472 146.369  13.843  1.00 97.95    -0.395 OA
ATOM     22  H3  VFQ 61620     -51.119 147.033  14.424  1.00  0.00     0.210 HD
HETATM   23  C21 VFQ 61620     -33.825 128.155   7.575  1.00 35.06    -0.018 C 
HETATM   24  C22 VFQ 61620     -32.609 127.537   6.883  1.00 35.06     0.045 C 
HETATM   25  C23 VFQ 61620     -31.779 128.491   6.030  1.00 35.06     0.123 C 
HETATM   26  C24 VFQ 61620     -32.599 129.708   5.648  1.00 35.06     0.066 C 
HETATM   27  C25 VFQ 61620     -32.978 130.359   6.945  1.00 35.06    -0.074 C 
HETATM   28  C26 VFQ 61620     -33.677 129.637   7.822  1.00 35.06    -0.048 C 
HETATM   29  C27 VFQ 61620     -34.456 130.257   8.910  1.00 35.06     0.009 C 
HETATM   30  C28 VFQ 61620     -35.116 131.369   8.593  1.00 35.06     0.007 C 
HETATM   31  C29 VFQ 61620     -36.089 131.964   9.532  1.00 97.95    -0.062 C 
HETATM   32  C30 VFQ 61620     -36.691 133.059   9.082  1.00 97.95     0.007 C 
HETATM   33  C31 VFQ 61620     -37.692 133.819   9.805  1.00 97.95     0.001 C 
HETATM   34  C32 VFQ 61620     -38.110 134.872   9.124  1.00 97.95     0.007 C 
HETATM   35  C33 VFQ 61620     -39.125 135.793   9.627  1.00 97.95    -0.062 C 
HETATM   36  C34 VFQ 61620     -39.442 136.831   8.852  1.00 97.95     0.007 C 
HETATM   37  C35 VFQ 61620     -40.453 137.781   9.274  1.00 97.95     0.001 C 
HETATM   38  C36 VFQ 61620     -34.093 127.442   8.891  1.00 35.06     0.020 C 
HETATM   39  C37 VFQ 61620     -35.041 128.006   6.668  1.00 35.06     0.020 C 
HETATM   40  C38 VFQ 61620     -32.416 131.727   7.245  1.00 35.06     0.044 C 
HETATM   41  C39 VFQ 61620     -36.387 131.378  10.879  1.00 97.95     0.048 C 
HETATM   42  C40 VFQ 61620     -39.772 135.571  10.957  1.00 97.95     0.048 C 
HETATM   43  O23 VFQ 61620     -31.353 127.828   4.835  1.00 35.06    -0.395 OA
ATOM     44  H23 VFQ 61620     -30.837 128.422   4.304  1.00  0.00     0.210 HD
ENDROOT
TORSDOF 12
