REMARK VINA RESULT:    -8.718      1.302     16.832
REMARK INTER + INTRA:         -11.196
REMARK INTER:                 -10.858
REMARK INTRA:                  -0.338
REMARK UNBOUND:                -2.478
REMARK  0 active torsions:
REMARK  status: ('A' for Active; 'I' for Inactive)
REMARK       I    between atoms: C3_3  and  O3_21 
REMARK       I    between atoms: C6_6  and  C7_7 
REMARK       I    between atoms: C8_8  and  C9_9 
REMARK       I    between atoms: C10_10  and  C11_11 
REMARK       I    between atoms: C12_12  and  C13_13 
REMARK       I    between atoms: C14_14  and  C15_15 
REMARK       I    between atoms: C23_25  and  O23_43 
REMARK       I    between atoms: C26_28  and  C27_29 
REMARK       I    between atoms: C28_30  and  C29_31 
REMARK       I    between atoms: C30_32  and  C31_33 
REMARK       I    between atoms: C32_34  and  C33_35 
REMARK       I    between atoms: C34_36  and  C35_37 
ROOT
HETATM    1  C1  VFQ Z1621     -49.633 145.988  11.388  1.00 27.99    -0.018 C 
HETATM    2  C2  VFQ Z1621     -50.378 146.010  12.730  1.00 27.99     0.045 C 
HETATM    3  C3  VFQ Z1621     -49.567 146.509  13.918  1.00 27.99     0.123 C 
HETATM    4  C4  VFQ Z1621     -48.744 147.703  13.475  1.00 27.99     0.066 C 
HETATM    5  C5  VFQ Z1621     -47.748 147.161  12.492  1.00 27.99    -0.074 C 
HETATM    6  C6  VFQ Z1621     -48.190 146.472  11.433  1.00 27.99    -0.048 C 
HETATM    7  C7  VFQ Z1621     -47.273 145.957  10.391  1.00 27.99     0.009 C 
HETATM    8  C8  VFQ Z1621     -46.075 145.503  10.781  1.00 27.99     0.007 C 
HETATM    9  C9  VFQ Z1621     -45.240 144.756   9.810  1.00 27.99    -0.062 C 
HETATM   10  C10 VFQ Z1621     -44.368 143.855  10.312  1.00 27.99     0.007 C 
HETATM   11  C11 VFQ Z1621     -43.597 142.930   9.478  1.00 27.99     0.001 C 
HETATM   12  C12 VFQ Z1621     -42.948 141.910  10.040  1.00 27.99     0.007 C 
HETATM   13  C13 VFQ Z1621     -42.233 140.904   9.218  1.00 27.99    -0.062 C 
HETATM   14  C14 VFQ Z1621     -41.733 139.822   9.852  1.00 27.99     0.007 C 
HETATM   15  C15 VFQ Z1621     -41.022 138.727   9.184  1.00 27.99     0.001 C 
HETATM   16  C16 VFQ Z1621     -50.316 146.996  10.463  1.00 27.99     0.020 C 
HETATM   17  C17 VFQ Z1621     -49.743 144.583  10.800  1.00 27.99     0.020 C 
HETATM   18  C18 VFQ Z1621     -46.518 148.025  12.447  1.00 27.99     0.044 C 
HETATM   19  C19 VFQ Z1621     -45.464 144.951   8.329  1.00 27.99     0.048 C 
HETATM   20  C20 VFQ Z1621     -42.129 141.123   7.730  1.00 27.99     0.048 C 
HETATM   21  O3  VFQ Z1621     -50.439 146.877  14.995  1.00 27.99    -0.395 OA
ATOM     22  H3  VFQ Z1621     -50.955 146.128  15.272  1.00  0.00     0.210 HD
HETATM   23  C21 VFQ Z1621     -34.001 128.104   7.191  1.00 19.54    -0.018 C 
HETATM   24  C22 VFQ Z1621     -33.106 127.374   6.192  1.00 19.54     0.045 C 
HETATM   25  C23 VFQ Z1621     -31.712 127.912   5.936  1.00 19.54     0.123 C 
HETATM   26  C24 VFQ Z1621     -31.770 129.409   5.773  1.00 19.54     0.066 C 
HETATM   27  C25 VFQ Z1621     -32.474 130.057   6.936  1.00 19.54    -0.074 C 
HETATM   28  C26 VFQ Z1621     -33.564 129.521   7.515  1.00 19.54    -0.048 C 
HETATM   29  C27 VFQ Z1621     -34.342 130.289   8.533  1.00 19.54     0.009 C 
HETATM   30  C28 VFQ Z1621     -35.313 131.159   8.225  1.00 19.54     0.007 C 
HETATM   31  C29 VFQ Z1621     -36.078 131.907   9.228  1.00 27.99    -0.062 C 
HETATM   32  C30 VFQ Z1621     -36.990 132.788   8.769  1.00 27.99     0.007 C 
HETATM   33  C31 VFQ Z1621     -37.795 133.652   9.630  1.00 27.99     0.001 C 
HETATM   34  C32 VFQ Z1621     -38.541 134.605   9.072  1.00 27.99     0.007 C 
HETATM   35  C33 VFQ Z1621     -39.300 135.570   9.894  1.00 27.99    -0.062 C 
HETATM   36  C34 VFQ Z1621     -39.850 136.620   9.247  1.00 27.99     0.007 C 
HETATM   37  C35 VFQ Z1621     -40.579 137.704   9.908  1.00 27.99     0.001 C 
HETATM   38  C36 VFQ Z1621     -34.002 127.338   8.506  1.00 19.54     0.020 C 
HETATM   39  C37 VFQ Z1621     -35.406 128.053   6.602  1.00 19.54     0.020 C 
HETATM   40  C38 VFQ Z1621     -31.876 131.339   7.424  1.00 19.54     0.044 C 
HETATM   41  C39 VFQ Z1621     -35.808 131.635  10.684  1.00 27.99     0.048 C 
HETATM   42  C40 VFQ Z1621     -39.368 135.371  11.384  1.00 27.99     0.048 C 
HETATM   43  O23 VFQ Z1621     -31.222 127.347   4.719  1.00 19.54    -0.395 OA
ATOM     44  H23 VFQ Z1621     -30.349 127.684   4.558  1.00  0.00     0.210 HD
ENDROOT
TORSDOF 12
