REMARK VINA RESULT:    -9.925      0.000      0.000
REMARK INTER + INTRA:         -12.123
REMARK INTER:                  -9.925
REMARK INTRA:                  -2.198
REMARK UNBOUND:                -2.198
REMARK  0 active torsions:
REMARK  status: ('A' for Active; 'I' for Inactive)
REMARK       I    between atoms: C3_3  and  O3_21 
REMARK       I    between atoms: C6_6  and  C7_7 
REMARK       I    between atoms: C8_8  and  C9_9 
REMARK       I    between atoms: C10_10  and  C11_11 
REMARK       I    between atoms: C12_12  and  C13_13 
REMARK       I    between atoms: C14_14  and  C15_15 
REMARK       I    between atoms: C23_25  and  O23_43 
REMARK       I    between atoms: C26_28  and  C27_29 
REMARK       I    between atoms: C28_30  and  C29_31 
REMARK       I    between atoms: C30_32  and  C31_33 
REMARK       I    between atoms: C32_34  and  C33_35 
REMARK       I    between atoms: C34_36  and  C35_37 
ROOT
HETATM    1  C1  VFQ 8 619     -34.267 127.025   6.623  1.00 35.06    -0.018 C 
HETATM    2  C2  VFQ 8 619     -34.184 126.995   5.096  1.00 35.06     0.045 C 
HETATM    3  C3  VFQ 8 619     -33.039 127.794   4.482  1.00 35.06     0.123 C 
HETATM    4  C4  VFQ 8 619     -31.949 128.032   5.511  1.00 35.06     0.066 C 
HETATM    5  C5  VFQ 8 619     -32.603 128.814   6.611  1.00 35.06    -0.074 C 
HETATM    6  C6  VFQ 8 619     -33.651 128.263   7.226  1.00 35.06    -0.048 C 
HETATM    7  C7  VFQ 8 619     -34.333 128.918   8.357  1.00 35.06     0.009 C 
HETATM    8  C8  VFQ 8 619     -34.495 130.237   8.257  1.00 35.06     0.007 C 
HETATM    9  C9  VFQ 8 619     -35.341 130.958   9.226  1.00 35.06    -0.062 C 
HETATM   10  C10 VFQ 8 619     -35.835 132.143   8.838  1.00 35.06     0.007 C 
HETATM   11  C11 VFQ 8 619     -36.781 132.927   9.620  1.00 35.06     0.001 C 
HETATM   12  C12 VFQ 8 619     -37.320 134.002   9.063  1.00 35.06     0.007 C 
HETATM   13  C13 VFQ 8 619     -38.342 134.800   9.750  1.00 35.06    -0.062 C 
HETATM   14  C14 VFQ 8 619     -38.982 135.717   9.012  1.00 35.06     0.007 C 
HETATM   15  C15 VFQ 8 619     -40.053 136.576   9.498  1.00 35.06     0.001 C 
HETATM   16  C16 VFQ 8 619     -33.476 125.850   7.187  1.00 35.06     0.020 C 
HETATM   17  C17 VFQ 8 619     -35.718 126.908   7.066  1.00 35.06     0.020 C 
HETATM   18  C18 VFQ 8 619     -31.654 129.781   7.274  1.00 35.06     0.044 C 
HETATM   19  C19 VFQ 8 619     -35.649 130.317  10.548  1.00 35.06     0.048 C 
HETATM   20  C20 VFQ 8 619     -38.617 134.526  11.197  1.00 35.06     0.048 C 
HETATM   21  O3  VFQ 8 619     -32.481 127.073   3.377  1.00 35.06    -0.395 OA
ATOM     22  H3  VFQ 8 619     -31.769 127.570   2.995  1.00  0.00     0.210 HD
HETATM   23  C21 VFQ 8 619     -49.790 144.607  10.041  1.00 73.63    -0.018 C 
HETATM   24  C22 VFQ 8 619     -50.718 145.229  11.080  1.00 75.58     0.045 C 
HETATM   25  C23 VFQ 8 619     -50.216 146.524  11.697  1.00 77.85     0.123 C 
HETATM   26  C24 VFQ 8 619     -48.810 146.324  12.236  1.00 76.46     0.066 C 
HETATM   27  C25 VFQ 8 619     -47.894 145.814  11.151  1.00 74.82    -0.074 C 
HETATM   28  C26 VFQ 8 619     -48.329 144.997  10.184  1.00 72.89    -0.048 C 
HETATM   29  C27 VFQ 8 619     -47.378 144.434   9.194  1.00 69.76     0.009 C 
HETATM   30  C28 VFQ 8 619     -46.613 143.386   9.506  1.00 67.74     0.007 C 
HETATM   31  C29 VFQ 8 619     -45.672 142.778   8.554  1.00 35.06    -0.062 C 
HETATM   32  C30 VFQ 8 619     -44.977 141.731   9.017  1.00 35.06     0.007 C 
HETATM   33  C31 VFQ 8 619     -43.983 140.981   8.265  1.00 35.06     0.001 C 
HETATM   34  C32 VFQ 8 619     -43.357 140.008   8.912  1.00 35.06     0.007 C 
HETATM   35  C33 VFQ 8 619     -42.306 139.190   8.293  1.00 35.06    -0.062 C 
HETATM   36  C34 VFQ 8 619     -41.691 138.294   9.082  1.00 35.06     0.007 C 
HETATM   37  C35 VFQ 8 619     -40.613 137.415   8.641  1.00 35.06     0.001 C 
HETATM   38  C36 VFQ 8 619     -50.250 145.052   8.659  1.00 75.09     0.020 C 
HETATM   39  C37 VFQ 8 619     -49.921 143.091  10.145  1.00 73.62     0.020 C 
HETATM   40  C38 VFQ 8 619     -46.463 146.263  11.195  1.00 74.16     0.044 C 
HETATM   41  C39 VFQ 8 619     -45.552 143.327   7.164  1.00 35.06     0.048 C 
HETATM   42  C40 VFQ 8 619     -41.972 139.425   6.851  1.00 35.06     0.048 C 
HETATM   43  O23 VFQ 8 619     -51.089 146.892  12.772  1.00 79.25    -0.395 OA
ATOM     44  H23 VFQ 8 619     -51.968 147.017  12.436  1.00  0.00     0.210 HD
ENDROOT
TORSDOF 12
