REMARK VINA RESULT:    -7.711      1.223     16.416
REMARK INTER + INTRA:          -9.970
REMARK INTER:                  -9.589
REMARK INTRA:                  -0.382
REMARK UNBOUND:                -2.259
REMARK  0 active torsions:
REMARK  status: ('A' for Active; 'I' for Inactive)
REMARK       I    between atoms: C3_3  and  O3_21 
REMARK       I    between atoms: C6_6  and  C7_7 
REMARK       I    between atoms: C8_8  and  C9_9 
REMARK       I    between atoms: C10_10  and  C11_11 
REMARK       I    between atoms: C12_12  and  C13_13 
REMARK       I    between atoms: C14_14  and  C15_15 
REMARK       I    between atoms: C23_25  and  O23_43 
REMARK       I    between atoms: C26_28  and  C27_29 
REMARK       I    between atoms: C28_30  and  C29_31 
REMARK       I    between atoms: C30_32  and  C31_33 
REMARK       I    between atoms: C32_34  and  C33_35 
REMARK       I    between atoms: C34_36  and  C35_37 
ROOT
HETATM    1  C1  VFQ 2 619     -50.352 144.764  10.650  1.00 46.63    -0.018 C 
HETATM    2  C2  VFQ 2 619     -50.382 144.209  12.072  1.00 46.63     0.045 C 
HETATM    3  C3  VFQ 2 619     -49.411 144.873  13.039  1.00 46.63     0.123 C 
HETATM    4  C4  VFQ 2 619     -49.282 146.348  12.703  1.00 46.63     0.066 C 
HETATM    5  C5  VFQ 2 619     -48.684 146.443  11.326  1.00 46.63    -0.074 C 
HETATM    6  C6  VFQ 2 619     -49.148 145.626  10.375  1.00 46.63    -0.048 C 
HETATM    7  C7  VFQ 2 619     -48.317 145.287   9.223  1.00 46.63     0.009 C 
HETATM    8  C8  VFQ 2 619     -47.303 144.543   9.678  1.00 46.63     0.007 C 
HETATM    9  C9  VFQ 2 619     -46.329 143.887   8.771  1.00 46.63    -0.062 C 
HETATM   10  C10 VFQ 2 619     -45.510 142.960   9.300  1.00 46.63     0.007 C 
HETATM   11  C11 VFQ 2 619     -44.546 142.181   8.520  1.00 46.63     0.001 C 
HETATM   12  C12 VFQ 2 619     -43.832 141.228   9.109  1.00 46.63     0.007 C 
HETATM   13  C13 VFQ 2 619     -42.875 140.398   8.350  1.00 46.63    -0.062 C 
HETATM   14  C14 VFQ 2 619     -42.282 139.400   9.027  1.00 46.63     0.007 C 
HETATM   15  C15 VFQ 2 619     -41.318 138.455   8.470  1.00 46.63     0.001 C 
HETATM   16  C16 VFQ 2 619     -51.577 145.641  10.423  1.00 46.63     0.020 C 
HETATM   17  C17 VFQ 2 619     -50.355 143.617   9.650  1.00 46.63     0.020 C 
HETATM   18  C18 VFQ 2 619     -47.449 147.292  11.170  1.00 46.63     0.044 C 
HETATM   19  C19 VFQ 2 619     -46.307 144.241   7.308  1.00 46.63     0.048 C 
HETATM   20  C20 VFQ 2 619     -42.618 140.690   6.899  1.00 46.63     0.048 C 
HETATM   21  O3  VFQ 2 619     -49.897 144.739  14.377  1.00 46.63    -0.395 OA
ATOM     22  H3  VFQ 2 619     -49.290 145.153  14.981  1.00  0.00     0.210 HD
HETATM   23  C21 VFQ 2 619     -34.037 128.352   7.113  1.00 59.27    -0.018 C 
HETATM   24  C22 VFQ 2 619     -33.087 127.673   6.137  1.00 64.60     0.045 C 
HETATM   25  C23 VFQ 2 619     -31.619 127.953   6.377  1.00 63.28     0.123 C 
HETATM   26  C24 VFQ 2 619     -31.380 129.439   6.402  1.00 61.00     0.066 C 
HETATM   27  C25 VFQ 2 619     -32.250 130.088   7.440  1.00 64.87    -0.074 C 
HETATM   28  C26 VFQ 2 619     -33.479 129.619   7.744  1.00 63.96    -0.048 C 
HETATM   29  C27 VFQ 2 619     -34.325 130.306   8.756  1.00 64.82     0.009 C 
HETATM   30  C28 VFQ 2 619     -35.110 131.346   8.457  1.00 58.91     0.007 C 
HETATM   31  C29 VFQ 2 619     -35.950 132.013   9.451  1.00 46.63    -0.062 C 
HETATM   32  C30 VFQ 2 619     -36.721 132.985   8.953  1.00 46.63     0.007 C 
HETATM   33  C31 VFQ 2 619     -37.665 133.790   9.712  1.00 46.63     0.001 C 
HETATM   34  C32 VFQ 2 619     -38.331 134.706   9.019  1.00 46.63     0.007 C 
HETATM   35  C33 VFQ 2 619     -39.313 135.612   9.630  1.00 46.63    -0.062 C 
HETATM   36  C34 VFQ 2 619     -39.864 136.545   8.831  1.00 46.63     0.007 C 
HETATM   37  C35 VFQ 2 619     -40.839 137.529   9.290  1.00 46.63     0.001 C 
HETATM   38  C36 VFQ 2 619     -34.332 127.390   8.250  1.00 56.55     0.020 C 
HETATM   39  C37 VFQ 2 619     -35.320 128.596   6.324  1.00 59.14     0.020 C 
HETATM   40  C38 VFQ 2 619     -31.637 131.286   8.107  1.00 61.00     0.044 C 
HETATM   41  C39 VFQ 2 619     -35.948 131.567  10.883  1.00 46.63     0.048 C 
HETATM   42  C40 VFQ 2 619     -39.629 135.439  11.087  1.00 46.63     0.048 C 
HETATM   43  O23 VFQ 2 619     -30.856 127.375   5.316  1.00 73.40    -0.395 OA
ATOM     44  H23 VFQ 2 619     -31.007 126.437   5.300  1.00  0.00     0.210 HD
ENDROOT
TORSDOF 12
