REMARK VINA RESULT:    -6.563      1.369      1.850
REMARK INTER + INTRA:          -9.886
REMARK INTER:                  -7.248
REMARK INTRA:                  -2.638
REMARK UNBOUND:                -3.323
REMARK  0 active torsions:
REMARK  status: ('A' for Active; 'I' for Inactive)
REMARK       I    between atoms: C3_3  and  O3_21 
REMARK       I    between atoms: C6_6  and  C7_7 
REMARK       I    between atoms: C8_8  and  C9_9 
REMARK       I    between atoms: C10_10  and  C11_11 
REMARK       I    between atoms: C12_12  and  C13_13 
REMARK       I    between atoms: C14_14  and  C15_15 
REMARK       I    between atoms: C23_25  and  O23_43 
REMARK       I    between atoms: C26_28  and  C27_29 
REMARK       I    between atoms: C28_30  and  C29_31 
REMARK       I    between atoms: C30_32  and  C31_33 
REMARK       I    between atoms: C32_34  and  C33_35 
REMARK       I    between atoms: C34_36  and  C35_37 
ROOT
HETATM    1  C1  VFQ D3621     -49.487 146.452  10.851  1.00 23.41    -0.018 C 
HETATM    2  C2  VFQ D3621     -50.610 146.959  11.773  1.00 23.79     0.045 C 
HETATM    3  C3  VFQ D3621     -50.276 147.656  13.089  1.00 23.28     0.123 C 
HETATM    4  C4  VFQ D3621     -48.845 148.214  13.158  1.00 23.70     0.066 C 
HETATM    5  C5  VFQ D3621     -47.777 147.711  12.230  1.00 23.84    -0.074 C 
HETATM    6  C6  VFQ D3621     -48.025 146.896  11.143  1.00 22.99    -0.048 C 
HETATM    7  C7  VFQ D3621     -46.988 146.393  10.204  1.00 20.55     0.009 C 
HETATM    8  C8  VFQ D3621     -46.187 145.331  10.436  1.00 19.35     0.007 C 
HETATM    9  C9  VFQ D3621     -45.100 144.774   9.628  1.00 18.45    -0.062 C 
HETATM   10  C10 VFQ D3621     -44.548 143.613  10.046  1.00 18.11     0.007 C 
HETATM   11  C11 VFQ D3621     -43.541 142.843   9.373  1.00 18.44     0.001 C 
HETATM   12  C12 VFQ D3621     -43.113 141.647   9.840  1.00 19.34     0.007 C 
HETATM   13  C13 VFQ D3621     -42.162 140.744   9.165  1.00 20.12    -0.062 C 
HETATM   14  C14 VFQ D3621     -41.860 139.564   9.759  1.00 19.73     0.007 C 
HETATM   15  C15 VFQ D3621     -40.993 138.509   9.242  1.00 19.24     0.001 C 
HETATM   16  C16 VFQ D3621     -49.949 146.980   9.488  1.00 23.73     0.020 C 
HETATM   17  C17 VFQ D3621     -49.573 144.921  10.819  1.00 23.42     0.020 C 
HETATM   18  C18 VFQ D3621     -46.463 148.257  12.657  1.00 22.78     0.044 C 
HETATM   19  C19 VFQ D3621     -44.731 145.483   8.361  1.00 16.12     0.048 C 
HETATM   20  C20 VFQ D3621     -41.613 141.195   7.840  1.00 17.75     0.048 C 
HETATM   21  O3  VFQ D3621     -51.225 148.679  13.356  1.00 21.52    -0.395 OA
ATOM     22  H3  VFQ D3621     -51.017 149.114  14.174  1.00  0.00     0.210 HD
HETATM   23  C21 VFQ D3621     -33.895 127.659   7.355  1.00 38.90    -0.018 C 
HETATM   24  C22 VFQ D3621     -32.829 127.047   6.449  1.00 38.90     0.045 C 
HETATM   25  C23 VFQ D3621     -32.239 127.987   5.401  1.00 38.90     0.123 C 
HETATM   26  C24 VFQ D3621     -33.187 129.139   5.133  1.00 38.90     0.066 C 
HETATM   27  C25 VFQ D3621     -33.333 129.861   6.440  1.00 38.90    -0.074 C 
HETATM   28  C26 VFQ D3621     -33.774 129.159   7.488  1.00 38.90    -0.048 C 
HETATM   29  C27 VFQ D3621     -34.350 129.827   8.668  1.00 38.90     0.009 C 
HETATM   30  C28 VFQ D3621     -35.239 130.765   8.347  1.00 38.90     0.007 C 
HETATM   31  C29 VFQ D3621     -36.110 131.450   9.362  1.00 21.21    -0.062 C 
HETATM   32  C30 VFQ D3621     -36.939 132.426   8.921  1.00 20.08     0.007 C 
HETATM   33  C31 VFQ D3621     -37.842 133.211   9.732  1.00 17.89     0.001 C 
HETATM   34  C32 VFQ D3621     -38.488 134.309   9.268  1.00 17.64     0.007 C 
HETATM   35  C33 VFQ D3621     -39.390 135.225  10.008  1.00 17.45    -0.062 C 
HETATM   36  C34 VFQ D3621     -39.832 136.335   9.369  1.00 15.95     0.007 C 
HETATM   37  C35 VFQ D3621     -40.680 137.384   9.914  1.00 18.41     0.001 C 
HETATM   38  C36 VFQ D3621     -33.830 127.025   8.738  1.00 38.90     0.020 C 
HETATM   39  C37 VFQ D3621     -35.270 127.399   6.744  1.00 38.90     0.020 C 
HETATM   40  C38 VFQ D3621     -32.849 131.289   6.539  1.00 38.90     0.044 C 
HETATM   41  C39 VFQ D3621     -35.952 131.077  10.812  1.00 22.05     0.048 C 
HETATM   42  C40 VFQ D3621     -39.691 134.893  11.448  1.00 11.49     0.048 C 
HETATM   43  O23 VFQ D3621     -32.013 127.279   4.179  1.00 38.90    -0.395 OA
ATOM     44  H23 VFQ D3621     -31.646 127.865   3.526  1.00  0.00     0.210 HD
ENDROOT
TORSDOF 12
