REMARK VINA RESULT:   -10.535      0.000      0.000
REMARK INTER + INTRA:         -10.802
REMARK INTER:                 -10.535
REMARK INTRA:                  -0.267
REMARK UNBOUND:                -0.267
REMARK  0 active torsions:
REMARK  status: ('A' for Active; 'I' for Inactive)
REMARK       I    between atoms: C3_3  and  O3_21 
REMARK       I    between atoms: C6_6  and  C7_7 
REMARK       I    between atoms: C8_8  and  C9_9 
REMARK       I    between atoms: C10_10  and  C11_11 
REMARK       I    between atoms: C12_12  and  C13_13 
REMARK       I    between atoms: C14_14  and  C15_15 
REMARK       I    between atoms: C23_25  and  O23_43 
REMARK       I    between atoms: C26_28  and  C27_29 
REMARK       I    between atoms: C28_30  and  C29_31 
REMARK       I    between atoms: C30_32  and  C31_33 
REMARK       I    between atoms: C32_34  and  C33_35 
REMARK       I    between atoms: C34_36  and  C35_37 
ROOT
HETATM    1  C1  VFQ A 621     -50.514 145.619   9.781  1.00 21.58    -0.018 C 
HETATM    2  C2  VFQ A 621     -51.430 146.218  10.869  1.00 21.20     0.045 C 
HETATM    3  C3  VFQ A 621     -50.956 147.412  11.703  1.00 20.61     0.123 C 
HETATM    4  C4  VFQ A 621     -49.647 148.067  11.235  1.00 19.82     0.066 C 
HETATM    5  C5  VFQ A 621     -48.734 147.385  10.264  1.00 19.81    -0.074 C 
HETATM    6  C6  VFQ A 621     -49.086 146.254   9.557  1.00 19.95    -0.048 C 
HETATM    7  C7  VFQ A 621     -48.206 145.570   8.565  1.00 17.10     0.009 C 
HETATM    8  C8  VFQ A 621     -47.211 144.716   8.889  1.00 17.58     0.007 C 
HETATM    9  C9  VFQ A 621     -46.271 143.984   8.032  1.00 19.11    -0.062 C 
HETATM   10  C10 VFQ A 621     -45.454 143.084   8.624  1.00 18.37     0.007 C 
HETATM   11  C11 VFQ A 621     -44.538 142.204   7.953  1.00 18.85     0.001 C 
HETATM   12  C12 VFQ A 621     -43.820 141.259   8.588  1.00 19.83     0.007 C 
HETATM   13  C13 VFQ A 621     -42.946 140.252   7.951  1.00 21.26    -0.062 C 
HETATM   14  C14 VFQ A 621     -42.338 139.345   8.749  1.00 20.79     0.007 C 
HETATM   15  C15 VFQ A 621     -41.490 138.246   8.355  1.00 20.26     0.001 C 
HETATM   16  C16 VFQ A 621     -51.382 145.767   8.510  1.00 19.38     0.020 C 
HETATM   17  C17 VFQ A 621     -50.384 144.110  10.096  1.00 19.65     0.020 C 
HETATM   18  C18 VFQ A 621     -47.472 148.167  10.184  1.00 20.06     0.044 C 
HETATM   19  C19 VFQ A 621     -46.337 144.218   6.549  1.00 17.70     0.048 C 
HETATM   20  C20 VFQ A 621     -42.827 140.277   6.454  1.00 18.78     0.048 C 
HETATM   21  O3  VFQ A 621     -51.984 148.386  11.795  1.00 18.88    -0.395 OA
ATOM     22  H3  VFQ A 621     -52.793 147.982  12.085  1.00  0.00     0.210 HD
HETATM   23  C21 VFQ A 621     -33.971 128.149   7.184  1.00 40.88    -0.018 C 
HETATM   24  C22 VFQ A 621     -32.942 127.234   6.518  1.00 40.88     0.045 C 
HETATM   25  C23 VFQ A 621     -31.606 127.840   6.102  1.00 40.88     0.123 C 
HETATM   26  C24 VFQ A 621     -31.749 129.303   5.726  1.00 40.88     0.066 C 
HETATM   27  C25 VFQ A 621     -32.364 130.018   6.898  1.00 40.88    -0.074 C 
HETATM   28  C26 VFQ A 621     -33.441 129.528   7.522  1.00 40.88    -0.048 C 
HETATM   29  C27 VFQ A 621     -34.118 130.326   8.582  1.00 40.88     0.009 C 
HETATM   30  C28 VFQ A 621     -35.159 131.119   8.326  1.00 40.88     0.007 C 
HETATM   31  C29 VFQ A 621     -35.872 131.934   9.362  1.00 26.46    -0.062 C 
HETATM   32  C30 VFQ A 621     -36.886 132.731   8.953  1.00 24.31     0.007 C 
HETATM   33  C31 VFQ A 621     -37.699 133.599   9.774  1.00 21.85     0.001 C 
HETATM   34  C32 VFQ A 621     -38.541 134.481   9.184  1.00 20.83     0.007 C 
HETATM   35  C33 VFQ A 621     -39.419 135.508   9.772  1.00 21.05    -0.062 C 
HETATM   36  C34 VFQ A 621     -40.078 136.328   8.925  1.00 19.63     0.007 C 
HETATM   37  C35 VFQ A 621     -40.935 137.433   9.273  1.00 20.78     0.001 C 
HETATM   38  C36 VFQ A 621     -34.388 127.511   8.497  1.00 40.88     0.020 C 
HETATM   39  C37 VFQ A 621     -35.193 128.217   6.272  1.00 40.88     0.020 C 
HETATM   40  C38 VFQ A 621     -31.700 131.274   7.363  1.00 40.88     0.044 C 
HETATM   41  C39 VFQ A 621     -35.370 131.873  10.778  1.00 25.84     0.048 C 
HETATM   42  C40 VFQ A 621     -39.464 135.624  11.270  1.00 18.97     0.048 C 
HETATM   43  O23 VFQ A 621     -31.113 127.119   4.967  1.00 40.88    -0.395 OA
ATOM     44  H23 VFQ A 621     -31.023 126.203   5.202  1.00  0.00     0.210 HD
ENDROOT
TORSDOF 12
