REMARK VINA RESULT:   -10.470      1.891     16.776
REMARK INTER + INTRA:         -13.046
REMARK INTER:                  -9.123
REMARK INTRA:                  -3.924
REMARK UNBOUND:                -2.577
REMARK  0 active torsions:
REMARK  status: ('A' for Active; 'I' for Inactive)
REMARK       I    between atoms: C3_3  and  O3_21 
REMARK       I    between atoms: C6_6  and  C7_7 
REMARK       I    between atoms: C8_8  and  C9_9 
REMARK       I    between atoms: C10_10  and  C11_11 
REMARK       I    between atoms: C12_12  and  C13_13 
REMARK       I    between atoms: C14_14  and  C15_15 
REMARK       I    between atoms: C23_25  and  O23_43 
REMARK       I    between atoms: C26_28  and  C27_29 
REMARK       I    between atoms: C28_30  and  C29_31 
REMARK       I    between atoms: C30_32  and  C31_33 
REMARK       I    between atoms: C32_34  and  C33_35 
REMARK       I    between atoms: C34_36  and  C35_37 
ROOT
HETATM    1  C1  VFQ 1 619     -49.177 146.155  10.573  1.00 34.54    -0.018 C 
HETATM    2  C2  VFQ 1 619     -49.582 146.650  11.962  1.00 34.54     0.045 C 
HETATM    3  C3  VFQ 1 619     -48.693 147.676  12.666  1.00 34.54     0.123 C 
HETATM    4  C4  VFQ 1 619     -47.787 148.445  11.717  1.00 34.54     0.066 C 
HETATM    5  C5  VFQ 1 619     -47.068 147.457  10.844  1.00 34.54    -0.074 C 
HETATM    6  C6  VFQ 1 619     -47.749 146.508  10.192  1.00 34.54    -0.048 C 
HETATM    7  C7  VFQ 1 619     -47.095 145.807   9.062  1.00 34.54     0.009 C 
HETATM    8  C8  VFQ 1 619     -46.372 144.713   9.287  1.00 34.54     0.007 C 
HETATM    9  C9  VFQ 1 619     -45.673 143.956   8.237  1.00 34.54    -0.062 C 
HETATM   10  C10 VFQ 1 619     -44.827 143.029   8.683  1.00 34.54     0.007 C 
HETATM   11  C11 VFQ 1 619     -44.005 142.158   7.862  1.00 34.54     0.001 C 
HETATM   12  C12 VFQ 1 619     -43.263 141.323   8.576  1.00 34.54     0.007 C 
HETATM   13  C13 VFQ 1 619     -42.338 140.352   7.987  1.00 34.54    -0.062 C 
HETATM   14  C14 VFQ 1 619     -41.868 139.379   8.775  1.00 34.54     0.007 C 
HETATM   15  C15 VFQ 1 619     -40.935 138.390   8.263  1.00 34.54     0.001 C 
HETATM   16  C16 VFQ 1 619     -50.187 146.711   9.573  1.00 34.54     0.020 C 
HETATM   17  C17 VFQ 1 619     -49.297 144.637  10.546  1.00 34.54     0.020 C 
HETATM   18  C18 VFQ 1 619     -45.839 148.090  10.259  1.00 34.54     0.044 C 
HETATM   19  C19 VFQ 1 619     -45.884 144.207   6.775  1.00 34.54     0.048 C 
HETATM   20  C20 VFQ 1 619     -41.924 140.467   6.551  1.00 34.54     0.048 C 
HETATM   21  O3  VFQ 1 619     -49.530 148.606  13.360  1.00 34.54    -0.395 OA
ATOM     22  H3  VFQ 1 619     -50.096 148.125  13.952  1.00  0.00     0.210 HD
HETATM   23  C21 VFQ 1 619     -35.247 126.661   6.745  1.00 30.42    -0.018 C 
HETATM   24  C22 VFQ 1 619     -34.115 125.872   6.079  1.00 30.42     0.045 C 
HETATM   25  C23 VFQ 1 619     -33.145 126.656   5.205  1.00 30.42     0.123 C 
HETATM   26  C24 VFQ 1 619     -33.725 127.999   4.783  1.00 30.42     0.066 C 
HETATM   27  C25 VFQ 1 619     -34.114 128.716   6.040  1.00 30.42    -0.074 C 
HETATM   28  C26 VFQ 1 619     -35.012 128.155   6.848  1.00 30.42    -0.048 C 
HETATM   29  C27 VFQ 1 619     -35.923 128.947   7.698  1.00 30.42     0.009 C 
HETATM   30  C28 VFQ 1 619     -36.337 130.143   7.272  1.00 30.42     0.007 C 
HETATM   31  C29 VFQ 1 619     -37.429 130.828   8.005  1.00 34.54    -0.062 C 
HETATM   32  C30 VFQ 1 619     -37.584 132.141   7.803  1.00 34.54     0.007 C 
HETATM   33  C31 VFQ 1 619     -38.620 132.917   8.473  1.00 34.54     0.001 C 
HETATM   34  C32 VFQ 1 619     -38.610 134.229   8.269  1.00 34.54     0.007 C 
HETATM   35  C33 VFQ 1 619     -39.602 135.121   8.887  1.00 34.54    -0.062 C 
HETATM   36  C34 VFQ 1 619     -39.670 136.379   8.444  1.00 34.54     0.007 C 
HETATM   37  C35 VFQ 1 619     -40.615 137.334   8.999  1.00 34.54     0.001 C 
HETATM   38  C36 VFQ 1 619     -35.507 126.050   8.113  1.00 30.42     0.020 C 
HETATM   39  C37 VFQ 1 619     -36.517 126.516   5.909  1.00 30.42     0.020 C 
HETATM   40  C38 VFQ 1 619     -33.384 129.977   6.411  1.00 30.42     0.044 C 
HETATM   41  C39 VFQ 1 619     -38.327 130.078   8.945  1.00 34.54     0.048 C 
HETATM   42  C40 VFQ 1 619     -40.505 134.630   9.981  1.00 34.54     0.048 C 
HETATM   43  O23 VFQ 1 619     -32.898 125.850   4.057  1.00 30.42    -0.395 OA
ATOM     44  H23 VFQ 1 619     -32.537 125.013   4.320  1.00  0.00     0.210 HD
ENDROOT
TORSDOF 12
