REMARK VINA RESULT:   -10.869      0.000      0.000
REMARK INTER + INTRA:         -13.312
REMARK INTER:                 -10.869
REMARK INTRA:                  -2.443
REMARK UNBOUND:                -2.443
REMARK  0 active torsions:
REMARK  status: ('A' for Active; 'I' for Inactive)
REMARK       I    between atoms: C3_3  and  O3_21 
REMARK       I    between atoms: C6_6  and  C7_7 
REMARK       I    between atoms: C8_8  and  C9_9 
REMARK       I    between atoms: C10_10  and  C11_11 
REMARK       I    between atoms: C12_12  and  C13_13 
REMARK       I    between atoms: C14_14  and  C15_15 
REMARK       I    between atoms: C23_25  and  O23_43 
REMARK       I    between atoms: C26_28  and  C27_29 
REMARK       I    between atoms: C28_30  and  C29_31 
REMARK       I    between atoms: C30_32  and  C31_33 
REMARK       I    between atoms: C32_34  and  C33_35 
REMARK       I    between atoms: C34_36  and  C35_37 
ROOT
HETATM    1  C1  VFQ y1620     -34.305 127.159   6.547  1.00 32.28    -0.018 C 
HETATM    2  C2  VFQ y1620     -33.794 126.677   5.201  1.00 32.10     0.045 C 
HETATM    3  C3  VFQ y1620     -32.680 127.477   4.564  1.00 30.03     0.123 C 
HETATM    4  C4  VFQ y1620     -31.620 127.868   5.555  1.00 27.01     0.066 C 
HETATM    5  C5  VFQ y1620     -32.212 128.535   6.756  1.00 26.85    -0.074 C 
HETATM    6  C6  VFQ y1620     -33.449 128.247   7.191  1.00 32.38    -0.048 C 
HETATM    7  C7  VFQ y1620     -34.014 128.998   8.340  1.00 31.45     0.009 C 
HETATM    8  C8  VFQ y1620     -34.755 130.087   8.146  1.00 30.07     0.007 C 
HETATM    9  C9  VFQ y1620     -35.342 130.878   9.225  1.00 31.62    -0.062 C 
HETATM   10  C10 VFQ y1620     -35.915 132.022   8.847  1.00 26.80     0.007 C 
HETATM   11  C11 VFQ y1620     -36.567 132.958   9.736  1.00 22.84     0.001 C 
HETATM   12  C12 VFQ y1620     -37.351 133.791   9.085  1.00 24.53     0.007 C 
HETATM   13  C13 VFQ y1620     -38.170 134.807   9.737  1.00 24.57    -0.062 C 
HETATM   14  C14 VFQ y1620     -38.946 135.538   8.943  1.00 24.07     0.007 C 
HETATM   15  C15 VFQ y1620     -39.849 136.548   9.446  1.00 24.13     0.001 C 
HETATM   16  C16 VFQ y1620     -34.403 125.895   7.395  1.00 30.09     0.020 C 
HETATM   17  C17 VFQ y1620     -35.700 127.731   6.349  1.00 35.00     0.020 C 
HETATM   18  C18 VFQ y1620     -31.387 129.663   7.297  1.00 25.72     0.044 C 
HETATM   19  C19 VFQ y1620     -35.267 130.425  10.650  1.00 32.28     0.048 C 
HETATM   20  C20 VFQ y1620     -38.155 134.974  11.220  1.00 25.14     0.048 C 
HETATM   21  O3  VFQ y1620     -32.048 126.659   3.577  1.00 33.60    -0.395 OA
ATOM     22  H3  VFQ y1620     -32.718 126.411   2.951  1.00  0.00     0.210 HD
HETATM   23  C21 VFQ y1620     -49.672 144.340  10.397  1.00 23.07    -0.018 C 
HETATM   24  C22 VFQ y1620     -50.531 145.265  11.280  1.00 21.39     0.045 C 
HETATM   25  C23 VFQ y1620     -49.940 146.611  11.685  1.00 23.10     0.123 C 
HETATM   26  C24 VFQ y1620     -48.412 146.628  11.793  1.00 23.25     0.066 C 
HETATM   27  C25 VFQ y1620     -47.634 145.834  10.793  1.00 22.57    -0.074 C 
HETATM   28  C26 VFQ y1620     -48.194 144.766  10.131  1.00 22.63    -0.048 C 
HETATM   29  C27 VFQ y1620     -47.427 143.984   9.149  1.00 23.01     0.009 C 
HETATM   30  C28 VFQ y1620     -46.507 143.044   9.436  1.00 21.85     0.007 C 
HETATM   31  C29 VFQ y1620     -45.668 142.357   8.496  1.00 31.74    -0.062 C 
HETATM   32  C30 VFQ y1620     -44.991 141.324   8.963  1.00 30.48     0.007 C 
HETATM   33  C31 VFQ y1620     -44.119 140.501   8.158  1.00 30.78     0.001 C 
HETATM   34  C32 VFQ y1620     -43.381 139.670   8.866  1.00 30.06     0.007 C 
HETATM   35  C33 VFQ y1620     -42.450 138.735   8.246  1.00 27.63    -0.062 C 
HETATM   36  C34 VFQ y1620     -41.687 138.015   9.065  1.00 25.49     0.007 C 
HETATM   37  C35 VFQ y1620     -40.740 137.028   8.596  1.00 24.60     0.001 C 
HETATM   38  C36 VFQ y1620     -50.426 144.144   9.062  1.00 21.40     0.020 C 
HETATM   39  C37 VFQ y1620     -49.701 143.006  11.166  1.00 21.74     0.020 C 
HETATM   40  C38 VFQ y1620     -46.268 146.416  10.686  1.00 21.99     0.044 C 
HETATM   41  C39 VFQ y1620     -45.573 142.789   7.071  1.00 33.51     0.048 C 
HETATM   42  C40 VFQ y1620     -42.392 138.608   6.758  1.00 28.91     0.048 C 
HETATM   43  O23 VFQ y1620     -50.517 147.054  12.900  1.00 24.94    -0.395 OA
ATOM     44  H23 VFQ y1620     -50.148 147.893  13.153  1.00  0.00     0.210 HD
ENDROOT
TORSDOF 12
