REMARK VINA RESULT:    -9.222      2.226     16.988
REMARK INTER + INTRA:         -10.770
REMARK INTER:                  -5.310
REMARK INTRA:                  -5.460
REMARK UNBOUND:                -1.547
REMARK  0 active torsions:
REMARK  status: ('A' for Active; 'I' for Inactive)
REMARK       I    between atoms: C3_3  and  O3_21 
REMARK       I    between atoms: C6_6  and  C7_7 
REMARK       I    between atoms: C8_8  and  C9_9 
REMARK       I    between atoms: C10_10  and  C11_11 
REMARK       I    between atoms: C12_12  and  C13_13 
REMARK       I    between atoms: C14_14  and  C15_15 
REMARK       I    between atoms: C23_25  and  O23_43 
REMARK       I    between atoms: C26_28  and  C27_29 
REMARK       I    between atoms: C28_30  and  C29_31 
REMARK       I    between atoms: C30_32  and  C31_33 
REMARK       I    between atoms: C32_34  and  C33_35 
REMARK       I    between atoms: C34_36  and  C35_37 
ROOT
HETATM    1  C1  VFQ 5 624     -49.769 150.020   8.677  1.00 23.68    -0.018 C 
HETATM    2  C2  VFQ 5 624     -50.470 150.718   7.515  1.00 23.68     0.045 C 
HETATM    3  C3  VFQ 5 624     -51.852 150.230   7.099  1.00 23.68     0.123 C 
HETATM    4  C4  VFQ 5 624     -52.600 149.594   8.255  1.00 23.68     0.066 C 
HETATM    5  C5  VFQ 5 624     -51.734 148.517   8.847  1.00 23.68    -0.074 C 
HETATM    6  C6  VFQ 5 624     -50.475 148.780   9.202  1.00 23.68    -0.048 C 
HETATM    7  C7  VFQ 5 624     -49.749 147.889  10.148  1.00 23.68     0.009 C 
HETATM    8  C8  VFQ 5 624     -49.112 146.779   9.764  1.00 23.68     0.007 C 
HETATM    9  C9  VFQ 5 624     -48.384 145.898  10.708  1.00 23.68    -0.062 C 
HETATM   10  C10 VFQ 5 624     -47.682 144.875  10.196  1.00 23.68     0.007 C 
HETATM   11  C11 VFQ 5 624     -46.876 143.900  10.930  1.00 23.68     0.001 C 
HETATM   12  C12 VFQ 5 624     -46.150 143.106  10.139  1.00 23.68     0.007 C 
HETATM   13  C13 VFQ 5 624     -45.204 142.035  10.514  1.00 23.68    -0.062 C 
HETATM   14  C14 VFQ 5 624     -44.726 141.263   9.524  1.00 23.68     0.007 C 
HETATM   15  C15 VFQ 5 624     -43.751 140.198   9.743  1.00 23.68     0.001 C 
HETATM   16  C16 VFQ 5 624     -49.606 151.064   9.767  1.00 23.68     0.020 C 
HETATM   17  C17 VFQ 5 624     -48.389 149.586   8.205  1.00 23.68     0.020 C 
HETATM   18  C18 VFQ 5 624     -52.590 147.577   9.639  1.00 23.68     0.044 C 
HETATM   19  C19 VFQ 5 624     -48.425 146.137  12.185  1.00 23.68     0.048 C 
HETATM   20  C20 VFQ 5 624     -44.770 141.828  11.932  1.00 23.68     0.048 C 
HETATM   21  O3  VFQ 5 624     -52.600 151.350   6.620  1.00 23.68    -0.395 OA
ATOM     22  H3  VFQ 5 624     -53.462 151.046   6.361  1.00  0.00     0.210 HD
HETATM   23  C21 VFQ 5 624     -35.206 130.483   8.133  1.00 27.99    -0.018 C 
HETATM   24  C22 VFQ 5 624     -33.930 129.919   8.773  1.00 27.99     0.045 C 
HETATM   25  C23 VFQ 5 624     -33.767 130.199  10.261  1.00 27.99     0.123 C 
HETATM   26  C24 VFQ 5 624     -34.197 131.627  10.534  1.00 27.99     0.066 C 
HETATM   27  C25 VFQ 5 624     -35.673 131.659  10.266  1.00 27.99    -0.074 C 
HETATM   28  C26 VFQ 5 624     -36.126 131.248   9.075  1.00 27.99    -0.048 C 
HETATM   29  C27 VFQ 5 624     -37.426 131.700   8.528  1.00 27.99     0.009 C 
HETATM   30  C28 VFQ 5 624     -37.794 132.968   8.759  1.00 27.99     0.007 C 
HETATM   31  C29 VFQ 5 624     -38.958 133.549   8.031  1.00 23.68    -0.062 C 
HETATM   32  C30 VFQ 5 624     -39.306 134.779   8.420  1.00 23.68     0.007 C 
HETATM   33  C31 VFQ 5 624     -40.388 135.569   7.849  1.00 23.68     0.001 C 
HETATM   34  C32 VFQ 5 624     -40.968 136.455   8.649  1.00 23.68     0.007 C 
HETATM   35  C33 VFQ 5 624     -42.052 137.348   8.215  1.00 23.68    -0.062 C 
HETATM   36  C34 VFQ 5 624     -42.435 138.313   9.067  1.00 23.68     0.007 C 
HETATM   37  C35 VFQ 5 624     -43.460 139.316   8.786  1.00 23.68     0.001 C 
HETATM   38  C36 VFQ 5 624     -35.935 129.342   7.427  1.00 27.99     0.020 C 
HETATM   39  C37 VFQ 5 624     -34.781 131.543   7.114  1.00 27.99     0.020 C 
HETATM   40  C38 VFQ 5 624     -36.586 132.025  11.403  1.00 27.99     0.044 C 
HETATM   41  C39 VFQ 5 624     -39.678 132.825   6.934  1.00 23.68     0.048 C 
HETATM   42  C40 VFQ 5 624     -42.678 137.168   6.867  1.00 23.68     0.048 C 
HETATM   43  O23 VFQ 5 624     -32.402 130.006  10.656  1.00 27.99    -0.395 OA
ATOM     44  H23 VFQ 5 624     -32.133 129.111  10.485  1.00  0.00     0.210 HD
ENDROOT
TORSDOF 12
