REMARK VINA RESULT:   -11.112      0.000      0.000
REMARK INTER + INTRA:         -13.225
REMARK INTER:                 -11.112
REMARK INTRA:                  -2.113
REMARK UNBOUND:                -2.113
REMARK  0 active torsions:
REMARK  status: ('A' for Active; 'I' for Inactive)
REMARK       I    between atoms: C3_3  and  O3_21 
REMARK       I    between atoms: C6_6  and  C7_7 
REMARK       I    between atoms: C8_8  and  C9_9 
REMARK       I    between atoms: C10_10  and  C11_11 
REMARK       I    between atoms: C12_12  and  C13_13 
REMARK       I    between atoms: C14_14  and  C15_15 
REMARK       I    between atoms: C23_25  and  O23_43 
REMARK       I    between atoms: C26_28  and  C27_29 
REMARK       I    between atoms: C28_30  and  C29_31 
REMARK       I    between atoms: C30_32  and  C31_33 
REMARK       I    between atoms: C32_34  and  C33_35 
REMARK       I    between atoms: C34_36  and  C35_37 
ROOT
HETATM    1  C1  VFQ Z 618     -47.975 145.348  12.379  1.00 27.67    -0.018 C 
HETATM    2  C2  VFQ Z 618     -48.880 145.660  13.569  1.00 27.67     0.045 C 
HETATM    3  C3  VFQ Z 618     -48.278 146.481  14.700  1.00 27.67     0.123 C 
HETATM    4  C4  VFQ Z 618     -47.347 147.544  14.159  1.00 27.67     0.066 C 
HETATM    5  C5  VFQ Z 618     -46.263 146.831  13.407  1.00 27.67    -0.074 C 
HETATM    6  C6  VFQ Z 618     -46.581 145.945  12.461  1.00 27.67    -0.048 C 
HETATM    7  C7  VFQ Z 618     -45.588 145.534  11.437  1.00 27.67     0.009 C 
HETATM    8  C8  VFQ Z 618     -44.649 144.620  11.687  1.00 27.67     0.007 C 
HETATM    9  C9  VFQ Z 618     -43.683 144.206  10.660  1.00 27.67    -0.062 C 
HETATM   10  C10 VFQ Z 618     -43.089 143.023  10.837  1.00 27.67     0.007 C 
HETATM   11  C11 VFQ Z 618     -42.127 142.416   9.926  1.00 27.67     0.001 C 
HETATM   12  C12 VFQ Z 618     -41.820 141.171  10.267  1.00 27.67     0.007 C 
HETATM   13  C13 VFQ Z 618     -40.920 140.259   9.549  1.00 27.67    -0.062 C 
HETATM   14  C14 VFQ Z 618     -40.719 139.053  10.097  1.00 27.67     0.007 C 
HETATM   15  C15 VFQ Z 618     -39.900 138.029   9.468  1.00 27.67     0.001 C 
HETATM   16  C16 VFQ Z 618     -48.699 145.818  11.122  1.00 27.67     0.020 C 
HETATM   17  C17 VFQ Z 618     -47.806 143.837  12.301  1.00 27.67     0.020 C 
HETATM   18  C18 VFQ Z 618     -45.072 147.735  13.298  1.00 27.67     0.044 C 
HETATM   19  C19 VFQ Z 618     -43.387 145.077   9.479  1.00 27.67     0.048 C 
HETATM   20  C20 VFQ Z 618     -40.285 140.650   8.251  1.00 27.67     0.048 C 
HETATM   21  O3  VFQ Z 618     -49.335 147.107  15.429  1.00 27.67    -0.395 OA
ATOM     22  H3  VFQ Z 618     -49.919 146.440  15.768  1.00  0.00     0.210 HD
HETATM   23  C21 VFQ Z 618     -34.163 126.929   6.767  1.00 22.61    -0.018 C 
HETATM   24  C22 VFQ Z 618     -33.489 126.046   5.700  1.00 23.33     0.045 C 
HETATM   25  C23 VFQ Z 618     -32.403 126.616   4.784  1.00 24.77     0.123 C 
HETATM   26  C24 VFQ Z 618     -32.151 128.130   4.895  1.00 22.10     0.066 C 
HETATM   27  C25 VFQ Z 618     -32.706 128.898   6.047  1.00 21.89    -0.074 C 
HETATM   28  C26 VFQ Z 618     -33.634 128.391   6.929  1.00 21.83    -0.048 C 
HETATM   29  C27 VFQ Z 618     -34.199 129.152   8.067  1.00 21.27     0.009 C 
HETATM   30  C28 VFQ Z 618     -35.197 130.060   7.963  1.00 20.16     0.007 C 
HETATM   31  C29 VFQ Z 618     -35.780 130.831   9.033  1.00 27.67    -0.062 C 
HETATM   32  C30 VFQ Z 618     -36.780 131.666   8.736  1.00 27.67     0.007 C 
HETATM   33  C31 VFQ Z 618     -37.470 132.506   9.704  1.00 27.67     0.001 C 
HETATM   34  C32 VFQ Z 618     -37.824 133.708   9.263  1.00 27.67     0.007 C 
HETATM   35  C33 VFQ Z 618     -38.542 134.708  10.066  1.00 27.67    -0.062 C 
HETATM   36  C34 VFQ Z 618     -38.953 135.818   9.442  1.00 27.67     0.007 C 
HETATM   37  C35 VFQ Z 618     -39.718 136.871  10.096  1.00 27.67     0.001 C 
HETATM   38  C36 VFQ Z 618     -34.080 126.166   8.107  1.00 21.21     0.020 C 
HETATM   39  C37 VFQ Z 618     -35.638 126.933   6.343  1.00 21.56     0.020 C 
HETATM   40  C38 VFQ Z 618     -32.072 130.235   6.051  1.00 21.82     0.044 C 
HETATM   41  C39 VFQ Z 618     -35.262 130.683  10.432  1.00 27.67     0.048 C 
HETATM   42  C40 VFQ Z 618     -38.799 134.499  11.525  1.00 27.67     0.048 C 
HETATM   43  O23 VFQ Z 618     -32.659 126.258   3.429  1.00 25.40    -0.395 OA
ATOM     44  H23 VFQ Z 618     -31.985 126.611   2.861  1.00  0.00     0.210 HD
ENDROOT
TORSDOF 12
