REMARK VINA RESULT:    -8.623      0.583      0.857
REMARK INTER + INTRA:         -11.582
REMARK INTER:                  -9.154
REMARK INTRA:                  -2.429
REMARK UNBOUND:                -2.960
REMARK  0 active torsions:
REMARK  status: ('A' for Active; 'I' for Inactive)
REMARK       I    between atoms: C3_3  and  O3_21 
REMARK       I    between atoms: C6_6  and  C7_7 
REMARK       I    between atoms: C8_8  and  C9_9 
REMARK       I    between atoms: C10_10  and  C11_11 
REMARK       I    between atoms: C12_12  and  C13_13 
REMARK       I    between atoms: C14_14  and  C15_15 
REMARK       I    between atoms: C23_25  and  O23_43 
REMARK       I    between atoms: C26_28  and  C27_29 
REMARK       I    between atoms: C28_30  and  C29_31 
REMARK       I    between atoms: C30_32  and  C31_33 
REMARK       I    between atoms: C32_34  and  C33_35 
REMARK       I    between atoms: C34_36  and  C35_37 
ROOT
HETATM    1  C1  VFQ 11620     -34.490 128.281   6.818  1.00 94.67    -0.018 C 
HETATM    2  C2  VFQ 11620     -33.667 127.970   5.575  1.00 94.67     0.045 C 
HETATM    3  C3  VFQ 11620     -32.337 128.681   5.449  1.00 94.67     0.123 C 
HETATM    4  C4  VFQ 11620     -31.633 128.643   6.779  1.00 94.67     0.066 C 
HETATM    5  C5  VFQ 11620     -32.468 129.331   7.812  1.00 94.67    -0.074 C 
HETATM    6  C6  VFQ 11620     -33.791 129.156   7.841  1.00 94.67    -0.048 C 
HETATM    7  C7  VFQ 11620     -34.620 129.804   8.886  1.00 94.67     0.009 C 
HETATM    8  C8  VFQ 11620     -35.115 131.027   8.713  1.00 94.67     0.007 C 
HETATM    9  C9  VFQ 11620     -35.954 131.697   9.705  1.00 94.67    -0.062 C 
HETATM   10  C10 VFQ 11620     -36.425 132.889   9.352  1.00 94.67     0.007 C 
HETATM   11  C11 VFQ 11620     -37.294 133.704  10.179  1.00 94.67     0.001 C 
HETATM   12  C12 VFQ 11620     -37.907 134.650   9.488  1.00 94.67     0.007 C 
HETATM   13  C13 VFQ 11620     -38.861 135.597  10.060  1.00 94.67    -0.062 C 
HETATM   14  C14 VFQ 11620     -39.462 136.418   9.201  1.00 94.67     0.007 C 
HETATM   15  C15 VFQ 11620     -40.463 137.399   9.588  1.00 94.67     0.001 C 
HETATM   16  C16 VFQ 11620     -34.874 126.931   7.416  1.00 94.67     0.020 C 
HETATM   17  C17 VFQ 11620     -35.738 129.027   6.369  1.00 94.67     0.020 C 
HETATM   18  C18 VFQ 11620     -31.730 130.159   8.822  1.00 94.67     0.044 C 
HETATM   19  C19 VFQ 11620     -36.261 131.069  11.030  1.00 94.67     0.048 C 
HETATM   20  C20 VFQ 11620     -39.156 135.615  11.525  1.00 94.67     0.048 C 
HETATM   21  O3  VFQ 11620     -31.532 127.981   4.499  1.00 94.67    -0.395 OA
ATOM     22  H3  VFQ 11620     -31.976 128.005   3.660  1.00  0.00     0.210 HD
HETATM   23  C21 VFQ 11620     -50.154 145.005   8.746  1.00 48.43    -0.018 C 
HETATM   24  C22 VFQ 11620     -51.215 145.837   9.451  1.00 44.61     0.045 C 
HETATM   25  C23 VFQ 11620     -50.781 147.208   9.933  1.00 44.41     0.123 C 
HETATM   26  C24 VFQ 11620     -49.399 147.152  10.537  1.00 41.53     0.066 C 
HETATM   27  C25 VFQ 11620     -48.455 146.672   9.482  1.00 37.72    -0.074 C 
HETATM   28  C26 VFQ 11620     -48.756 145.596   8.754  1.00 43.52    -0.048 C 
HETATM   29  C27 VFQ 11620     -47.749 144.937   7.890  1.00 44.60     0.009 C 
HETATM   30  C28 VFQ 11620     -46.860 144.075   8.369  1.00 43.22     0.007 C 
HETATM   31  C29 VFQ 11620     -45.899 143.398   7.489  1.00 94.67    -0.062 C 
HETATM   32  C30 VFQ 11620     -45.232 142.391   8.050  1.00 94.67     0.007 C 
HETATM   33  C31 VFQ 11620     -44.231 141.568   7.397  1.00 94.67     0.001 C 
HETATM   34  C32 VFQ 11620     -43.604 140.789   8.260  1.00 94.67     0.007 C 
HETATM   35  C33 VFQ 11620     -42.542 139.848   7.915  1.00 94.67    -0.062 C 
HETATM   36  C34 VFQ 11620     -42.130 139.006   8.867  1.00 94.67     0.007 C 
HETATM   37  C35 VFQ 11620     -41.090 138.025   8.601  1.00 94.67     0.001 C 
HETATM   38  C36 VFQ 11620     -50.508 144.881   7.275  1.00 47.48     0.020 C 
HETATM   39  C37 VFQ 11620     -50.207 143.627   9.397  1.00 54.25     0.020 C 
HETATM   40  C38 VFQ 11620     -47.196 147.448   9.284  1.00 37.77     0.044 C 
HETATM   41  C39 VFQ 11620     -45.691 143.806   6.065  1.00 94.67     0.048 C 
HETATM   42  C40 VFQ 11620     -41.936 139.854   6.549  1.00 94.67     0.048 C 
HETATM   43  O23 VFQ 11620     -51.699 147.661  10.928  1.00 48.83    -0.395 OA
ATOM     44  H23 VFQ 11620     -52.568 147.696  10.547  1.00  0.00     0.210 HD
ENDROOT
TORSDOF 12
