REMARK VINA RESULT:    -9.771      0.000      0.000
REMARK INTER + INTRA:         -12.643
REMARK INTER:                  -9.771
REMARK INTRA:                  -2.872
REMARK UNBOUND:                -2.872
REMARK  0 active torsions:
REMARK  status: ('A' for Active; 'I' for Inactive)
REMARK       I    between atoms: C3_3  and  O3_21 
REMARK       I    between atoms: C6_6  and  C7_7 
REMARK       I    between atoms: C8_8  and  C9_9 
REMARK       I    between atoms: C10_10  and  C11_11 
REMARK       I    between atoms: C12_12  and  C13_13 
REMARK       I    between atoms: C14_14  and  C15_15 
REMARK       I    between atoms: C23_25  and  O23_43 
REMARK       I    between atoms: C26_28  and  C27_29 
REMARK       I    between atoms: C28_30  and  C29_31 
REMARK       I    between atoms: C30_32  and  C31_33 
REMARK       I    between atoms: C32_34  and  C33_35 
REMARK       I    between atoms: C34_36  and  C35_37 
ROOT
HETATM    1  C1  VFQ 61621     -34.352 127.514   6.465  1.00 90.34    -0.018 C 
HETATM    2  C2  VFQ 61621     -33.762 126.988   5.160  1.00 90.34     0.045 C 
HETATM    3  C3  VFQ 61621     -32.479 127.629   4.654  1.00 90.34     0.123 C 
HETATM    4  C4  VFQ 61621     -31.596 128.085   5.797  1.00 90.34     0.066 C 
HETATM    5  C5  VFQ 61621     -32.402 129.021   6.650  1.00 90.34    -0.074 C 
HETATM    6  C6  VFQ 61621     -33.603 128.666   7.100  1.00 90.34    -0.048 C 
HETATM    7  C7  VFQ 61621     -34.243 129.364   8.243  1.00 90.34     0.009 C 
HETATM    8  C8  VFQ 61621     -34.870 130.530   8.074  1.00 90.34     0.007 C 
HETATM    9  C9  VFQ 61621     -35.552 131.271   9.143  1.00 90.34    -0.062 C 
HETATM   10  C10 VFQ 61621     -36.379 132.232   8.736  1.00 90.34     0.007 C 
HETATM   11  C11 VFQ 61621     -37.200 133.098   9.566  1.00 90.34     0.001 C 
HETATM   12  C12 VFQ 61621     -37.926 133.977   8.882  1.00 90.34     0.007 C 
HETATM   13  C13 VFQ 61621     -38.846 134.915   9.533  1.00 90.34    -0.062 C 
HETATM   14  C14 VFQ 61621     -39.566 135.738   8.764  1.00 90.34     0.007 C 
HETATM   15  C15 VFQ 61621     -40.529 136.669   9.339  1.00 90.34     0.001 C 
HETATM   16  C16 VFQ 61621     -34.441 126.325   7.413  1.00 90.34     0.020 C 
HETATM   17  C17 VFQ 61621     -35.752 128.023   6.176  1.00 90.34     0.020 C 
HETATM   18  C18 VFQ 61621     -31.460 129.844   7.471  1.00 90.34     0.044 C 
HETATM   19  C19 VFQ 61621     -35.342 130.958  10.592  1.00 90.34     0.048 C 
HETATM   20  C20 VFQ 61621     -38.985 134.931  11.024  1.00 90.34     0.048 C 
HETATM   21  O3  VFQ 61621     -31.766 126.652   3.898  1.00 90.34    -0.395 OA
ATOM     22  H3  VFQ 61621     -32.319 126.366   3.181  1.00  0.00     0.210 HD
HETATM   23  C21 VFQ 61621     -50.382 144.488  10.284  1.00 21.49    -0.018 C 
HETATM   24  C22 VFQ 61621     -51.387 145.423  10.946  1.00 21.49     0.045 C 
HETATM   25  C23 VFQ 61621     -50.842 146.607  11.729  1.00 21.49     0.123 C 
HETATM   26  C24 VFQ 61621     -49.545 146.275  12.432  1.00 21.49     0.066 C 
HETATM   27  C25 VFQ 61621     -48.551 145.726  11.447  1.00 21.49    -0.074 C 
HETATM   28  C26 VFQ 61621     -48.929 144.899  10.463  1.00 21.49    -0.048 C 
HETATM   29  C27 VFQ 61621     -47.914 144.375   9.508  1.00 21.49     0.009 C 
HETATM   30  C28 VFQ 61621     -47.323 143.194   9.696  1.00 21.49     0.007 C 
HETATM   31  C29 VFQ 61621     -46.317 142.638   8.785  1.00 90.34    -0.062 C 
HETATM   32  C30 VFQ 61621     -45.916 141.398   9.052  1.00 90.34     0.007 C 
HETATM   33  C31 VFQ 61621     -44.948 140.641   8.272  1.00 90.34     0.001 C 
HETATM   34  C32 VFQ 61621     -44.144 139.837   8.959  1.00 90.34     0.007 C 
HETATM   35  C33 VFQ 61621     -43.138 138.987   8.315  1.00 90.34    -0.062 C 
HETATM   36  C34 VFQ 61621     -42.283 138.300   9.087  1.00 90.34     0.007 C 
HETATM   37  C35 VFQ 61621     -41.282 137.401   8.524  1.00 90.34     0.001 C 
HETATM   38  C36 VFQ 61621     -50.678 144.481   8.792  1.00 21.49     0.020 C 
HETATM   39  C37 VFQ 61621     -50.650 143.092  10.844  1.00 21.49     0.020 C 
HETATM   40  C38 VFQ 61621     -47.125 146.161  11.623  1.00 21.49     0.044 C 
HETATM   41  C39 VFQ 61621     -45.790 143.409   7.615  1.00 90.34     0.048 C 
HETATM   42  C40 VFQ 61621     -43.108 138.883   6.824  1.00 90.34     0.048 C 
HETATM   43  O23 VFQ 61621     -51.805 146.962  12.727  1.00 21.49    -0.395 OA
ATOM     44  H23 VFQ 61621     -52.620 147.171  12.284  1.00  0.00     0.210 HD
ENDROOT
TORSDOF 12
