REMARK VINA RESULT:    -8.259      1.405     16.738
REMARK INTER + INTRA:         -11.458
REMARK INTER:                  -9.477
REMARK INTRA:                  -1.981
REMARK UNBOUND:                -3.199
REMARK  0 active torsions:
REMARK  status: ('A' for Active; 'I' for Inactive)
REMARK       I    between atoms: C3_3  and  O3_21 
REMARK       I    between atoms: C6_6  and  C7_7 
REMARK       I    between atoms: C8_8  and  C9_9 
REMARK       I    between atoms: C10_10  and  C11_11 
REMARK       I    between atoms: C12_12  and  C13_13 
REMARK       I    between atoms: C14_14  and  C15_15 
REMARK       I    between atoms: C23_25  and  O23_43 
REMARK       I    between atoms: C26_28  and  C27_29 
REMARK       I    between atoms: C28_30  and  C29_31 
REMARK       I    between atoms: C30_32  and  C31_33 
REMARK       I    between atoms: C32_34  and  C33_35 
REMARK       I    between atoms: C34_36  and  C35_37 
ROOT
HETATM    1  C1  VFQ 21621     -48.233 145.465  12.562  1.00 90.34    -0.018 C 
HETATM    2  C2  VFQ 21621     -48.855 145.833  13.906  1.00 90.34     0.045 C 
HETATM    3  C3  VFQ 21621     -48.066 146.751  14.825  1.00 90.34     0.123 C 
HETATM    4  C4  VFQ 21621     -47.232 147.742  14.038  1.00 90.34     0.066 C 
HETATM    5  C5  VFQ 21621     -46.345 146.960  13.116  1.00 90.34    -0.074 C 
HETATM    6  C6  VFQ 21621     -46.854 146.033  12.307  1.00 90.34    -0.048 C 
HETATM    7  C7  VFQ 21621     -46.107 145.537  11.124  1.00 90.34     0.009 C 
HETATM    8  C8  VFQ 21621     -45.149 144.616  11.252  1.00 90.34     0.007 C 
HETATM    9  C9  VFQ 21621     -44.383 144.052  10.133  1.00 90.34    -0.062 C 
HETATM   10  C10 VFQ 21621     -43.706 142.936  10.407  1.00 90.34     0.007 C 
HETATM   11  C11 VFQ 21621     -42.894 142.153   9.491  1.00 90.34     0.001 C 
HETATM   12  C12 VFQ 21621     -42.328 141.086  10.047  1.00 90.34     0.007 C 
HETATM   13  C13 VFQ 21621     -41.498 140.147   9.283  1.00 90.34    -0.062 C 
HETATM   14  C14 VFQ 21621     -41.000 139.080   9.914  1.00 90.34     0.007 C 
HETATM   15  C15 VFQ 21621     -40.201 138.085   9.211  1.00 90.34     0.001 C 
HETATM   16  C16 VFQ 21621     -49.219 145.911  11.490  1.00 90.34     0.020 C 
HETATM   17  C17 VFQ 21621     -48.091 143.956  12.509  1.00 90.34     0.020 C 
HETATM   18  C18 VFQ 21621     -45.207 147.837  12.696  1.00 90.34     0.044 C 
HETATM   19  C19 VFQ 21621     -44.373 144.679   8.773  1.00 90.34     0.048 C 
HETATM   20  C20 VFQ 21621     -41.238 140.375   7.826  1.00 90.34     0.048 C 
HETATM   21  O3  VFQ 21621     -48.995 147.482  15.624  1.00 90.34    -0.395 OA
ATOM     22  H3  VFQ 21621     -48.502 148.056  16.198  1.00  0.00     0.210 HD
HETATM   23  C21 VFQ 21621     -34.375 126.987   6.743  1.00 57.09    -0.018 C 
HETATM   24  C22 VFQ 21621     -33.674 126.059   5.760  1.00 57.09     0.045 C 
HETATM   25  C23 VFQ 21621     -32.507 126.628   4.976  1.00 57.09     0.123 C 
HETATM   26  C24 VFQ 21621     -32.765 128.072   4.610  1.00 57.09     0.066 C 
HETATM   27  C25 VFQ 21621     -32.997 128.852   5.871  1.00 57.09    -0.074 C 
HETATM   28  C26 VFQ 21621     -33.854 128.407   6.797  1.00 57.09    -0.048 C 
HETATM   29  C27 VFQ 21621     -34.308 129.274   7.918  1.00 57.09     0.009 C 
HETATM   30  C28 VFQ 21621     -35.286 130.172   7.765  1.00 57.09     0.007 C 
HETATM   31  C29 VFQ 21621     -35.777 131.032   8.844  1.00 90.34    -0.062 C 
HETATM   32  C30 VFQ 21621     -36.837 131.783   8.552  1.00 90.34     0.007 C 
HETATM   33  C31 VFQ 21621     -37.505 132.689   9.474  1.00 90.34     0.001 C 
HETATM   34  C32 VFQ 21621     -37.982 133.811   8.946  1.00 90.34     0.007 C 
HETATM   35  C33 VFQ 21621     -38.708 134.810   9.738  1.00 90.34    -0.062 C 
HETATM   36  C34 VFQ 21621     -39.046 135.971   9.159  1.00 90.34     0.007 C 
HETATM   37  C35 VFQ 21621     -39.805 136.997   9.865  1.00 90.34     0.001 C 
HETATM   38  C36 VFQ 21621     -34.185 126.404   8.126  1.00 57.09     0.020 C 
HETATM   39  C37 VFQ 21621     -35.855 126.966   6.393  1.00 57.09     0.020 C 
HETATM   40  C38 VFQ 21621     -32.211 130.118   6.043  1.00 57.09     0.044 C 
HETATM   41  C39 VFQ 21621     -35.142 131.048  10.201  1.00 90.34     0.048 C 
HETATM   42  C40 VFQ 21621     -39.075 134.502  11.153  1.00 90.34     0.048 C 
HETATM   43  O23 VFQ 21621     -32.376 125.865   3.776  1.00 57.09    -0.395 OA
ATOM     44  H23 VFQ 21621     -32.213 124.958   4.006  1.00  0.00     0.210 HD
ENDROOT
TORSDOF 12
