REMARK VINA RESULT:    -7.343      0.977     16.748
REMARK INTER + INTRA:         -10.216
REMARK INTER:                  -9.955
REMARK INTRA:                  -0.261
REMARK UNBOUND:                -2.872
REMARK  0 active torsions:
REMARK  status: ('A' for Active; 'I' for Inactive)
REMARK       I    between atoms: C3_3  and  O3_21 
REMARK       I    between atoms: C6_6  and  C7_7 
REMARK       I    between atoms: C8_8  and  C9_9 
REMARK       I    between atoms: C10_10  and  C11_11 
REMARK       I    between atoms: C12_12  and  C13_13 
REMARK       I    between atoms: C14_14  and  C15_15 
REMARK       I    between atoms: C23_25  and  O23_43 
REMARK       I    between atoms: C26_28  and  C27_29 
REMARK       I    between atoms: C28_30  and  C29_31 
REMARK       I    between atoms: C30_32  and  C31_33 
REMARK       I    between atoms: C32_34  and  C33_35 
REMARK       I    between atoms: C34_36  and  C35_37 
ROOT
HETATM    1  C1  VFQ 61621     -50.690 144.707  10.754  1.00 90.34    -0.018 C 
HETATM    2  C2  VFQ 61621     -51.438 145.106  12.022  1.00 90.34     0.045 C 
HETATM    3  C3  VFQ 61621     -50.855 146.231  12.864  1.00 90.34     0.123 C 
HETATM    4  C4  VFQ 61621     -50.143 147.257  12.007  1.00 90.34     0.066 C 
HETATM    5  C5  VFQ 61621     -49.092 146.536  11.213  1.00 90.34    -0.074 C 
HETATM    6  C6  VFQ 61621     -49.403 145.460  10.493  1.00 90.34    -0.048 C 
HETATM    7  C7  VFQ 61621     -48.521 144.972   9.404  1.00 90.34     0.009 C 
HETATM    8  C8  VFQ 61621     -47.440 144.235   9.673  1.00 90.34     0.007 C 
HETATM    9  C9  VFQ 61621     -46.532 143.690   8.655  1.00 90.34    -0.062 C 
HETATM   10  C10 VFQ 61621     -45.708 142.732   9.078  1.00 90.34     0.007 C 
HETATM   11  C11 VFQ 61621     -44.732 141.999   8.290  1.00 90.34     0.001 C 
HETATM   12  C12 VFQ 61621     -44.039 141.100   8.983  1.00 90.34     0.007 C 
HETATM   13  C13 VFQ 61621     -43.032 140.233   8.363  1.00 90.34    -0.062 C 
HETATM   14  C14 VFQ 61621     -42.411 139.331   9.128  1.00 90.34     0.007 C 
HETATM   15  C15 VFQ 61621     -41.427 138.410   8.573  1.00 90.34     0.001 C 
HETATM   16  C16 VFQ 61621     -51.670 144.875   9.600  1.00 90.34     0.020 C 
HETATM   17  C17 VFQ 61621     -50.311 143.243  10.873  1.00 90.34     0.020 C 
HETATM   18  C18 VFQ 61621     -48.082 147.536  10.747  1.00 90.34     0.044 C 
HETATM   19  C19 VFQ 61621     -46.542 144.167   7.236  1.00 90.34     0.048 C 
HETATM   20  C20 VFQ 61621     -42.726 140.349   6.901  1.00 90.34     0.048 C 
HETATM   21  O3  VFQ 61621     -51.930 146.879  13.541  1.00 90.34    -0.395 OA
ATOM     22  H3  VFQ 61621     -52.377 146.236  14.079  1.00  0.00     0.210 HD
HETATM   23  C21 VFQ 61621     -34.016 128.278   7.333  1.00 21.49    -0.018 C 
HETATM   24  C22 VFQ 61621     -33.013 127.330   6.686  1.00 21.49     0.045 C 
HETATM   25  C23 VFQ 61621     -31.674 127.906   6.252  1.00 21.49     0.123 C 
HETATM   26  C24 VFQ 61621     -31.803 129.325   5.747  1.00 21.49     0.066 C 
HETATM   27  C25 VFQ 61621     -32.493 130.177   6.776  1.00 21.49    -0.074 C 
HETATM   28  C26 VFQ 61621     -33.515 129.703   7.502  1.00 21.49    -0.048 C 
HETATM   29  C27 VFQ 61621     -34.173 130.579   8.510  1.00 21.49     0.009 C 
HETATM   30  C28 VFQ 61621     -35.265 131.284   8.214  1.00 21.49     0.007 C 
HETATM   31  C29 VFQ 61621     -35.946 132.162   9.173  1.00 90.34    -0.062 C 
HETATM   32  C30 VFQ 61621     -37.090 132.698   8.756  1.00 90.34     0.007 C 
HETATM   33  C31 VFQ 61621     -37.944 133.575   9.542  1.00 90.34     0.001 C 
HETATM   34  C32 VFQ 61621     -38.559 134.545   8.875  1.00 90.34     0.007 C 
HETATM   35  C33 VFQ 61621     -39.475 135.491   9.520  1.00 90.34    -0.062 C 
HETATM   36  C34 VFQ 61621     -39.957 136.516   8.802  1.00 90.34     0.007 C 
HETATM   37  C35 VFQ 61621     -40.905 137.474   9.359  1.00 90.34     0.001 C 
HETATM   38  C36 VFQ 61621     -34.333 127.734   8.717  1.00 21.49     0.020 C 
HETATM   39  C37 VFQ 61621     -35.284 128.219   6.482  1.00 21.49     0.020 C 
HETATM   40  C38 VFQ 61621     -31.969 131.574   6.947  1.00 21.49     0.044 C 
HETATM   41  C39 VFQ 61621     -35.401 132.419  10.543  1.00 90.34     0.048 C 
HETATM   42  C40 VFQ 61621     -39.872 135.275  10.945  1.00 90.34     0.048 C 
HETATM   43  O23 VFQ 61621     -31.171 127.101   5.180  1.00 21.49    -0.395 OA
ATOM     44  H23 VFQ 61621     -31.090 126.209   5.497  1.00  0.00     0.210 HD
ENDROOT
TORSDOF 12
