REMARK VINA RESULT:    -8.335      2.177     16.991
REMARK INTER + INTRA:          -8.304
REMARK INTER:                  -7.873
REMARK INTRA:                  -0.432
REMARK UNBOUND:                 0.030
REMARK  0 active torsions:
REMARK  status: ('A' for Active; 'I' for Inactive)
REMARK       I    between atoms: C3_3  and  O3_21 
REMARK       I    between atoms: C6_6  and  C7_7 
REMARK       I    between atoms: C8_8  and  C9_9 
REMARK       I    between atoms: C10_10  and  C11_11 
REMARK       I    between atoms: C12_12  and  C13_13 
REMARK       I    between atoms: C14_14  and  C15_15 
REMARK       I    between atoms: C23_25  and  O23_43 
REMARK       I    between atoms: C26_28  and  C27_29 
REMARK       I    between atoms: C28_30  and  C29_31 
REMARK       I    between atoms: C30_32  and  C31_33 
REMARK       I    between atoms: C32_34  and  C33_35 
REMARK       I    between atoms: C34_36  and  C35_37 
ROOT
HETATM    1  C1  VFQ 6 321     -50.304 146.253   8.270  1.00 93.31    -0.018 C 
HETATM    2  C2  VFQ 6 321     -51.291 147.128   9.042  1.00 93.93     0.045 C 
HETATM    3  C3  VFQ 6 321     -50.734 147.827  10.275  1.00 93.98     0.123 C 
HETATM    4  C4  VFQ 6 321     -49.426 148.515   9.928  1.00 93.16     0.066 C 
HETATM    5  C5  VFQ 6 321     -48.449 147.497   9.404  1.00 92.19    -0.074 C 
HETATM    6  C6  VFQ 6 321     -48.844 146.503   8.600  1.00 91.50    -0.048 C 
HETATM    7  C7  VFQ 6 321     -47.827 145.614   7.989  1.00 98.60     0.009 C 
HETATM    8  C8  VFQ 6 321     -47.312 144.573   8.647  1.00 95.09     0.007 C 
HETATM    9  C9  VFQ 6 321     -46.298 143.701   8.017  1.00 91.76    -0.062 C 
HETATM   10  C10 VFQ 6 321     -45.664 142.787   8.765  1.00 98.95     0.007 C 
HETATM   11  C11 VFQ 6 321     -44.654 141.896   8.197  1.00 96.41     0.001 C 
HETATM   12  C12 VFQ 6 321     -44.055 141.015   8.994  1.00 94.60     0.007 C 
HETATM   13  C13 VFQ 6 321     -43.031 140.090   8.474  1.00 93.62    -0.062 C 
HETATM   14  C14 VFQ 6 321     -42.470 139.186   9.292  1.00 93.18     0.007 C 
HETATM   15  C15 VFQ 6 321     -41.459 138.263   8.781  1.00 93.10     0.001 C 
HETATM   16  C16 VFQ 6 321     -50.522 146.481   6.779  1.00 93.81     0.020 C 
HETATM   17  C17 VFQ 6 321     -50.601 144.793   8.597  1.00 92.50     0.020 C 
HETATM   18  C18 VFQ 6 321     -46.991 147.805   9.585  1.00 91.81     0.044 C 
HETATM   19  C19 VFQ 6 321     -45.982 143.836   6.557  1.00 91.57     0.048 C 
HETATM   20  C20 VFQ 6 321     -42.624 140.160   7.032  1.00 93.41     0.048 C 
HETATM   21  O3  VFQ 6 321     -51.674 148.807  10.731  1.00 94.06    -0.395 OA
ATOM     22  H3  VFQ 6 321     -51.326 149.243  11.501  1.00  0.00     0.210 HD
HETATM   23  C21 VFQ 6 321     -34.080 128.358   6.653  1.00 66.61    -0.018 C 
HETATM   24  C22 VFQ 6 321     -33.026 127.482   5.986  1.00 66.61     0.045 C 
HETATM   25  C23 VFQ 6 321     -31.562 127.848   6.175  1.00 66.61     0.123 C 
HETATM   26  C24 VFQ 6 321     -31.374 129.344   6.303  1.00 66.61     0.066 C 
HETATM   27  C25 VFQ 6 321     -32.244 129.857   7.414  1.00 66.61    -0.074 C 
HETATM   28  C26 VFQ 6 321     -33.517 129.463   7.528  1.00 66.61    -0.048 C 
HETATM   29  C27 VFQ 6 321     -34.413 130.091   8.532  1.00 66.61     0.009 C 
HETATM   30  C28 VFQ 6 321     -35.100 131.203   8.258  1.00 66.61     0.007 C 
HETATM   31  C29 VFQ 6 321     -36.007 131.843   9.230  1.00 92.38    -0.062 C 
HETATM   32  C30 VFQ 6 321     -36.665 132.939   8.823  1.00 92.82     0.007 C 
HETATM   33  C31 VFQ 6 321     -37.601 133.688   9.658  1.00 93.26     0.001 C 
HETATM   34  C32 VFQ 6 321     -38.230 134.703   9.068  1.00 94.43     0.007 C 
HETATM   35  C33 VFQ 6 321     -39.215 135.565   9.751  1.00 94.12    -0.062 C 
HETATM   36  C34 VFQ 6 321     -39.865 136.482   9.017  1.00 93.68     0.007 C 
HETATM   37  C35 VFQ 6 321     -40.863 137.383   9.585  1.00 93.36     0.001 C 
HETATM   38  C36 VFQ 6 321     -34.934 127.457   7.531  1.00 66.61     0.020 C 
HETATM   39  C37 VFQ 6 321     -34.963 128.933   5.552  1.00 66.61     0.020 C 
HETATM   40  C38 VFQ 6 321     -31.603 130.810   8.380  1.00 66.61     0.044 C 
HETATM   41  C39 VFQ 6 321     -36.186 131.294  10.615  1.00 91.58     0.048 C 
HETATM   42  C40 VFQ 6 321     -39.479 135.416  11.221  1.00 93.59     0.048 C 
HETATM   43  O23 VFQ 6 321     -30.831 127.393   5.032  1.00 66.61    -0.395 OA
ATOM     44  H23 VFQ 6 321     -29.917 127.621   5.150  1.00  0.00     0.210 HD
ENDROOT
TORSDOF 12
