REMARK VINA RESULT:   -10.153      1.642      2.535
REMARK INTER + INTRA:         -12.185
REMARK INTER:                  -9.800
REMARK INTRA:                  -2.385
REMARK UNBOUND:                -2.032
REMARK  0 active torsions:
REMARK  status: ('A' for Active; 'I' for Inactive)
REMARK       I    between atoms: C3_3  and  O3_21 
REMARK       I    between atoms: C6_6  and  C7_7 
REMARK       I    between atoms: C8_8  and  C9_9 
REMARK       I    between atoms: C10_10  and  C11_11 
REMARK       I    between atoms: C12_12  and  C13_13 
REMARK       I    between atoms: C14_14  and  C15_15 
REMARK       I    between atoms: C23_25  and  O23_43 
REMARK       I    between atoms: C26_28  and  C27_29 
REMARK       I    between atoms: C28_30  and  C29_31 
REMARK       I    between atoms: C30_32  and  C31_33 
REMARK       I    between atoms: C32_34  and  C33_35 
REMARK       I    between atoms: C34_36  and  C35_37 
ROOT
HETATM    1  C1  VFQ 8 618     -47.890 147.003  10.014  1.00 13.13    -0.018 C 
HETATM    2  C2  VFQ 8 618     -49.285 147.572  10.228  1.00 13.13     0.045 C 
HETATM    3  C3  VFQ 8 618     -49.840 147.400  11.623  1.00 13.13     0.123 C 
HETATM    4  C4  VFQ 8 618     -48.848 147.924  12.629  1.00 13.13     0.066 C 
HETATM    5  C5  VFQ 8 618     -47.510 147.258  12.468  1.00 13.13    -0.074 C 
HETATM    6  C6  VFQ 8 618     -47.029 146.903  11.264  1.00 13.13    -0.048 C 
HETATM    7  C7  VFQ 8 618     -45.619 146.454  11.083  1.00 13.13     0.009 C 
HETATM    8  C8  VFQ 8 618     -45.174 145.214  11.329  1.00 13.13     0.007 C 
HETATM    9  C9  VFQ 8 618     -43.769 144.820  11.113  1.00 13.13    -0.062 C 
HETATM   10  C10 VFQ 8 618     -43.515 143.517  10.973  1.00 13.13     0.007 C 
HETATM   11  C11 VFQ 8 618     -42.197 142.945  10.726  1.00 13.13     0.001 C 
HETATM   12  C12 VFQ 8 618     -42.245 141.679  10.342  1.00 13.13     0.007 C 
HETATM   13  C13 VFQ 8 618     -41.122 140.800   9.984  1.00 13.13    -0.062 C 
HETATM   14  C14 VFQ 8 618     -41.366 139.486   9.877  1.00 13.13     0.007 C 
HETATM   15  C15 VFQ 8 618     -40.328 138.547   9.488  1.00 13.13     0.001 C 
HETATM   16  C16 VFQ 8 618     -47.244 147.904   8.976  1.00 13.13     0.020 C 
HETATM   17  C17 VFQ 8 618     -48.030 145.592   9.466  1.00 13.13     0.020 C 
HETATM   18  C18 VFQ 8 618     -46.652 147.350  13.691  1.00 13.13     0.044 C 
HETATM   19  C19 VFQ 8 618     -42.671 145.836  11.053  1.00 13.13     0.048 C 
HETATM   20  C20 VFQ 8 618     -39.760 141.348   9.709  1.00 13.13     0.048 C 
HETATM   21  O3  VFQ 8 618     -51.038 148.169  11.729  1.00 13.13    -0.395 OA
ATOM     22  H3  VFQ 8 618     -51.663 147.839  11.095  1.00  0.00     0.210 HD
HETATM   23  C21 VFQ 8 618     -34.566 127.627   5.957  1.00 57.46    -0.018 C 
HETATM   24  C22 VFQ 8 618     -33.307 126.801   5.731  1.00 54.62     0.045 C 
HETATM   25  C23 VFQ 8 618     -31.951 127.500   5.842  1.00 54.91     0.123 C 
HETATM   26  C24 VFQ 8 618     -31.967 128.890   6.460  1.00 56.99     0.066 C 
HETATM   27  C25 VFQ 8 618     -33.140 129.072   7.382  1.00 60.65    -0.074 C 
HETATM   28  C26 VFQ 8 618     -34.364 128.677   7.025  1.00 60.28    -0.048 C 
HETATM   29  C27 VFQ 8 618     -35.574 129.219   7.682  1.00 57.11     0.009 C 
HETATM   30  C28 VFQ 8 618     -36.086 130.395   7.345  1.00 53.31     0.007 C 
HETATM   31  C29 VFQ 8 618     -37.313 130.910   7.979  1.00 13.13    -0.062 C 
HETATM   32  C30 VFQ 8 618     -37.575 132.201   7.770  1.00 13.13     0.007 C 
HETATM   33  C31 VFQ 8 618     -38.737 132.906   8.284  1.00 13.13     0.001 C 
HETATM   34  C32 VFQ 8 618     -38.587 134.203   8.511  1.00 13.13     0.007 C 
HETATM   35  C33 VFQ 8 618     -39.695 135.028   9.005  1.00 13.13    -0.062 C 
HETATM   36  C34 VFQ 8 618     -39.579 136.354   8.904  1.00 13.13     0.007 C 
HETATM   37  C35 VFQ 8 618     -40.627 137.265   9.330  1.00 13.13     0.001 C 
HETATM   38  C36 VFQ 8 618     -35.658 126.686   6.432  1.00 59.48     0.020 C 
HETATM   39  C37 VFQ 8 618     -35.042 128.244   4.643  1.00 57.14     0.020 C 
HETATM   40  C38 VFQ 8 618     -32.889 129.699   8.717  1.00 65.36     0.044 C 
HETATM   41  C39 VFQ 8 618     -38.215 130.029   8.785  1.00 13.13     0.048 C 
HETATM   42  C40 VFQ 8 618     -40.912 134.399   9.596  1.00 13.13     0.048 C 
HETATM   43  O23 VFQ 8 618     -31.417 127.599   4.521  1.00 51.54    -0.395 OA
ATOM     44  H23 VFQ 8 618     -30.575 128.033   4.590  1.00  0.00     0.210 HD
ENDROOT
TORSDOF 12
