REMARK VINA RESULT:   -11.266      0.000      0.000
REMARK INTER + INTRA:         -11.678
REMARK INTER:                 -11.266
REMARK INTRA:                  -0.412
REMARK UNBOUND:                -0.412
REMARK  0 active torsions:
REMARK  status: ('A' for Active; 'I' for Inactive)
REMARK       I    between atoms: C3_3  and  O3_21 
REMARK       I    between atoms: C6_6  and  C7_7 
REMARK       I    between atoms: C8_8  and  C9_9 
REMARK       I    between atoms: C10_10  and  C11_11 
REMARK       I    between atoms: C12_12  and  C13_13 
REMARK       I    between atoms: C14_14  and  C15_15 
REMARK       I    between atoms: C23_25  and  O23_43 
REMARK       I    between atoms: C26_28  and  C27_29 
REMARK       I    between atoms: C28_30  and  C29_31 
REMARK       I    between atoms: C30_32  and  C31_33 
REMARK       I    between atoms: C32_34  and  C33_35 
REMARK       I    between atoms: C34_36  and  C35_37 
ROOT
HETATM    1  C1  VFQ n1621     -50.493 144.727  10.104  1.00 48.43    -0.018 C 
HETATM    2  C2  VFQ n1621     -51.469 145.106  11.210  1.00 44.61     0.045 C 
HETATM    3  C3  VFQ n1621     -50.945 146.057  12.269  1.00 44.41     0.123 C 
HETATM    4  C4  VFQ n1621     -50.115 147.151  11.644  1.00 41.53     0.066 C 
HETATM    5  C5  VFQ n1621     -48.963 146.509  10.937  1.00 37.72    -0.074 C 
HETATM    6  C6  VFQ n1621     -49.172 145.475  10.123  1.00 43.52    -0.048 C 
HETATM    7  C7  VFQ n1621     -48.137 145.020   9.166  1.00 44.60     0.009 C 
HETATM    8  C8  VFQ n1621     -47.135 144.230   9.530  1.00 43.22     0.007 C 
HETATM    9  C9  VFQ n1621     -46.152 143.759   8.555  1.00 45.04    -0.062 C 
HETATM   10  C10 VFQ n1621     -45.349 142.797   8.988  1.00 43.71     0.007 C 
HETATM   11  C11 VFQ n1621     -44.340 142.135   8.196  1.00 42.87     0.001 C 
HETATM   12  C12 VFQ n1621     -43.783 141.134   8.848  1.00 44.70     0.007 C 
HETATM   13  C13 VFQ n1621     -42.785 140.248   8.255  1.00 42.63    -0.062 C 
HETATM   14  C14 VFQ n1621     -42.353 139.240   9.014  1.00 42.62     0.007 C 
HETATM   15  C15 VFQ n1621     -41.397 138.279   8.506  1.00 44.33     0.001 C 
HETATM   16  C16 VFQ n1621     -51.253 144.921   8.797  1.00 47.48     0.020 C 
HETATM   17  C17 VFQ n1621     -50.109 143.266  10.253  1.00 54.25     0.020 C 
HETATM   18  C18 VFQ n1621     -47.812 147.443  10.771  1.00 37.77     0.044 C 
HETATM   19  C19 VFQ n1621     -46.090 144.314   7.168  1.00 46.17     0.048 C 
HETATM   20  C20 VFQ n1621     -42.329 140.448   6.843  1.00 40.87     0.048 C 
HETATM   21  O3  VFQ n1621     -52.053 146.651  12.945  1.00 48.83    -0.395 OA
ATOM     22  H3  VFQ n1621     -51.725 147.247  13.608  1.00  0.00     0.210 HD
HETATM   23  C21 VFQ n1621     -33.885 128.213   7.434  1.00 71.39    -0.018 C 
HETATM   24  C22 VFQ n1621     -32.845 127.343   6.741  1.00 71.39     0.045 C 
HETATM   25  C23 VFQ n1621     -31.669 128.034   6.063  1.00 71.39     0.123 C 
HETATM   26  C24 VFQ n1621     -32.045 129.415   5.572  1.00 71.39     0.066 C 
HETATM   27  C25 VFQ n1621     -32.559 130.175   6.757  1.00 71.39    -0.074 C 
HETATM   28  C26 VFQ n1621     -33.507 129.674   7.546  1.00 71.39    -0.048 C 
HETATM   29  C27 VFQ n1621     -34.221 130.504   8.553  1.00 71.39     0.009 C 
HETATM   30  C28 VFQ n1621     -35.261 131.271   8.215  1.00 71.39     0.007 C 
HETATM   31  C29 VFQ n1621     -36.010 132.076   9.158  1.00 54.19    -0.062 C 
HETATM   32  C30 VFQ n1621     -37.147 132.610   8.711  1.00 54.84     0.007 C 
HETATM   33  C31 VFQ n1621     -38.027 133.436   9.512  1.00 51.40     0.001 C 
HETATM   34  C32 VFQ n1621     -38.617 134.415   8.848  1.00 48.08     0.007 C 
HETATM   35  C33 VFQ n1621     -39.537 135.348   9.497  1.00 45.58    -0.062 C 
HETATM   36  C34 VFQ n1621     -40.047 136.341   8.767  1.00 47.58     0.007 C 
HETATM   37  C35 VFQ n1621     -40.981 137.312   9.307  1.00 48.15     0.001 C 
HETATM   38  C36 VFQ n1621     -34.067 127.691   8.843  1.00 71.39     0.020 C 
HETATM   39  C37 VFQ n1621     -35.211 128.046   6.700  1.00 71.39     0.020 C 
HETATM   40  C38 VFQ n1621     -31.927 131.500   7.011  1.00 71.39     0.044 C 
HETATM   41  C39 VFQ n1621     -35.513 132.236  10.559  1.00 53.01     0.048 C 
HETATM   42  C40 VFQ n1621     -39.872 135.170  10.937  1.00 46.34     0.048 C 
HETATM   43  O23 VFQ n1621     -31.266 127.262   4.927  1.00 71.39    -0.395 OA
ATOM     44  H23 VFQ n1621     -30.532 127.693   4.504  1.00  0.00     0.210 HD
ENDROOT
TORSDOF 12
