REMARK VINA RESULT:    -7.947      0.744     16.831
REMARK INTER + INTRA:         -10.907
REMARK INTER:                  -7.989
REMARK INTRA:                  -2.918
REMARK UNBOUND:                -2.960
REMARK  0 active torsions:
REMARK  status: ('A' for Active; 'I' for Inactive)
REMARK       I    between atoms: C3_3  and  O3_21 
REMARK       I    between atoms: C6_6  and  C7_7 
REMARK       I    between atoms: C8_8  and  C9_9 
REMARK       I    between atoms: C10_10  and  C11_11 
REMARK       I    between atoms: C12_12  and  C13_13 
REMARK       I    between atoms: C14_14  and  C15_15 
REMARK       I    between atoms: C23_25  and  O23_43 
REMARK       I    between atoms: C26_28  and  C27_29 
REMARK       I    between atoms: C28_30  and  C29_31 
REMARK       I    between atoms: C30_32  and  C31_33 
REMARK       I    between atoms: C32_34  and  C33_35 
REMARK       I    between atoms: C34_36  and  C35_37 
ROOT
HETATM    1  C1  VFQ Y1621     -34.652 127.013   5.896  1.00 26.19    -0.018 C 
HETATM    2  C2  VFQ Y1621     -34.165 126.301   4.640  1.00 26.65     0.045 C 
HETATM    3  C3  VFQ Y1621     -32.937 126.868   3.954  1.00 28.07     0.123 C 
HETATM    4  C4  VFQ Y1621     -31.911 127.338   4.953  1.00 30.07     0.066 C 
HETATM    5  C5  VFQ Y1621     -32.542 128.342   5.861  1.00 28.83    -0.074 C 
HETATM    6  C6  VFQ Y1621     -33.715 128.079   6.444  1.00 27.49    -0.048 C 
HETATM    7  C7  VFQ Y1621     -34.163 128.806   7.659  1.00 29.45     0.009 C 
HETATM    8  C8  VFQ Y1621     -34.592 130.069   7.623  1.00 27.83     0.007 C 
HETATM    9  C9  VFQ Y1621     -35.074 130.776   8.814  1.00 26.06    -0.062 C 
HETATM   10  C10 VFQ Y1621     -35.763 131.889   8.580  1.00 25.01     0.007 C 
HETATM   11  C11 VFQ Y1621     -36.375 132.710   9.602  1.00 25.09     0.001 C 
HETATM   12  C12 VFQ Y1621     -37.041 133.749   9.138  1.00 26.01     0.007 C 
HETATM   13  C13 VFQ Y1621     -37.795 134.663   9.998  1.00 26.36    -0.062 C 
HETATM   14  C14 VFQ Y1621     -38.507 135.624   9.403  1.00 27.67     0.007 C 
HETATM   15  C15 VFQ Y1621     -39.315 136.550  10.180  1.00 28.38     0.001 C 
HETATM   16  C16 VFQ Y1621     -34.864 125.908   6.916  1.00 26.46     0.020 C 
HETATM   17  C17 VFQ Y1621     -35.980 127.692   5.596  1.00 26.61     0.020 C 
HETATM   18  C18 VFQ Y1621     -31.415 129.029   6.561  1.00 29.43     0.044 C 
HETATM   19  C19 VFQ Y1621     -34.819 130.264  10.196  1.00 26.07     0.048 C 
HETATM   20  C20 VFQ Y1621     -37.806 134.477  11.483  1.00 25.83     0.048 C 
HETATM   21  O3  VFQ Y1621     -32.355 125.851   3.142  1.00 27.44    -0.395 OA
ATOM     22  H3  VFQ Y1621     -31.586 126.206   2.712  1.00  0.00     0.210 HD
HETATM   23  C21 VFQ Y1621     -47.534 146.034  13.000  1.00 19.07    -0.018 C 
HETATM   24  C22 VFQ Y1621     -48.233 146.733  14.182  1.00 18.69     0.045 C 
HETATM   25  C23 VFQ Y1621     -47.383 147.655  15.052  1.00 19.88     0.123 C 
HETATM   26  C24 VFQ Y1621     -45.938 147.166  15.247  1.00 19.59     0.066 C 
HETATM   27  C25 VFQ Y1621     -45.283 146.446  14.109  1.00 18.61    -0.074 C 
HETATM   28  C26 VFQ Y1621     -45.987 145.908  13.051  1.00 18.29    -0.048 C 
HETATM   29  C27 VFQ Y1621     -45.301 145.205  11.946  1.00 19.20     0.009 C 
HETATM   30  C28 VFQ Y1621     -44.799 143.945  11.939  1.00 18.47     0.007 C 
HETATM   31  C29 VFQ Y1621     -43.992 143.351  10.910  1.00 29.73    -0.062 C 
HETATM   32  C30 VFQ Y1621     -43.796 142.038  10.980  1.00 28.64     0.007 C 
HETATM   33  C31 VFQ Y1621     -43.008 141.286  10.028  1.00 27.79     0.001 C 
HETATM   34  C32 VFQ Y1621     -42.366 140.250  10.540  1.00 27.11     0.007 C 
HETATM   35  C33 VFQ Y1621     -41.526 139.370   9.730  1.00 25.78    -0.062 C 
HETATM   36  C34 VFQ Y1621     -40.861 138.373  10.318  1.00 26.10     0.007 C 
HETATM   37  C35 VFQ Y1621     -40.032 137.463   9.545  1.00 27.22     0.001 C 
HETATM   38  C36 VFQ Y1621     -47.963 146.748  11.703  1.00 17.04     0.020 C 
HETATM   39  C37 VFQ Y1621     -48.181 144.638  13.031  1.00 20.18     0.020 C 
HETATM   40  C38 VFQ Y1621     -43.821 146.457  14.364  1.00 19.93     0.044 C 
HETATM   41  C39 VFQ Y1621     -43.427 144.202   9.823  1.00 32.37     0.048 C 
HETATM   42  C40 VFQ Y1621     -41.442 139.602   8.265  1.00 25.14     0.048 C 
HETATM   43  O23 VFQ Y1621     -48.008 147.870  16.308  1.00 19.51    -0.395 OA
ATOM     44  H23 VFQ Y1621     -47.479 148.444  16.849  1.00  0.00     0.210 HD
ENDROOT
TORSDOF 12
