REMARK VINA RESULT:   -11.352      0.000      0.000
REMARK INTER + INTRA:         -11.992
REMARK INTER:                 -11.352
REMARK INTRA:                  -0.640
REMARK UNBOUND:                -0.640
REMARK  0 active torsions:
REMARK  status: ('A' for Active; 'I' for Inactive)
REMARK       I    between atoms: C3_3  and  O3_21 
REMARK       I    between atoms: C6_6  and  C7_7 
REMARK       I    between atoms: C8_8  and  C9_9 
REMARK       I    between atoms: C10_10  and  C11_11 
REMARK       I    between atoms: C12_12  and  C13_13 
REMARK       I    between atoms: C14_14  and  C15_15 
REMARK       I    between atoms: C23_25  and  O23_43 
REMARK       I    between atoms: C26_28  and  C27_29 
REMARK       I    between atoms: C28_30  and  C29_31 
REMARK       I    between atoms: C30_32  and  C31_33 
REMARK       I    between atoms: C32_34  and  C33_35 
REMARK       I    between atoms: C34_36  and  C35_37 
ROOT
HETATM    1  C1  VFQ 7 622     -49.452 145.851  11.477  1.00 13.75    -0.018 C 
HETATM    2  C2  VFQ 7 622     -50.539 146.406  12.385  1.00 13.75     0.045 C 
HETATM    3  C3  VFQ 7 622     -50.007 146.997  13.671  1.00 13.75     0.123 C 
HETATM    4  C4  VFQ 7 622     -49.013 148.073  13.324  1.00 13.75     0.066 C 
HETATM    5  C5  VFQ 7 622     -47.886 147.477  12.535  1.00 13.75    -0.074 C 
HETATM    6  C6  VFQ 7 622     -48.085 146.500  11.634  1.00 13.75    -0.048 C 
HETATM    7  C7  VFQ 7 622     -47.019 146.029  10.705  1.00 13.75     0.009 C 
HETATM    8  C8  VFQ 7 622     -46.030 145.187  11.032  1.00 13.75     0.007 C 
HETATM    9  C9  VFQ 7 622     -45.028 144.738  10.045  1.00 13.75    -0.062 C 
HETATM   10  C10 VFQ 7 622     -44.305 143.653  10.353  1.00 13.75     0.007 C 
HETATM   11  C11 VFQ 7 622     -43.294 143.038   9.500  1.00 13.75     0.001 C 
HETATM   12  C12 VFQ 7 622     -42.951 141.807   9.862  1.00 13.75     0.007 C 
HETATM   13  C13 VFQ 7 622     -41.983 140.931   9.182  1.00 13.75    -0.062 C 
HETATM   14  C14 VFQ 7 622     -41.610 139.811   9.821  1.00 13.75     0.007 C 
HETATM   15  C15 VFQ 7 622     -40.693 138.838   9.248  1.00 13.75     0.001 C 
HETATM   16  C16 VFQ 7 622     -49.969 145.999  10.054  1.00 13.75     0.020 C 
HETATM   17  C17 VFQ 7 622     -49.281 144.376  11.802  1.00 13.75     0.020 C 
HETATM   18  C18 VFQ 7 622     -46.621 148.265  12.626  1.00 13.75     0.044 C 
HETATM   19  C19 VFQ 7 622     -44.841 145.465   8.748  1.00 13.75     0.048 C 
HETATM   20  C20 VFQ 7 622     -41.464 141.253   7.813  1.00 13.75     0.048 C 
HETATM   21  O3  VFQ 7 622     -51.079 147.573  14.418  1.00 13.75    -0.395 OA
ATOM     22  H3  VFQ 7 622     -51.706 146.894  14.637  1.00  0.00     0.210 HD
HETATM   23  C21 VFQ 7 622     -33.938 128.027   7.164  1.00 19.07    -0.018 C 
HETATM   24  C22 VFQ 7 622     -33.077 127.388   6.056  1.00 18.69     0.045 C 
HETATM   25  C23 VFQ 7 622     -31.745 128.057   5.733  1.00 19.88     0.123 C 
HETATM   26  C24 VFQ 7 622     -31.779 129.592   5.834  1.00 19.59     0.066 C 
HETATM   27  C25 VFQ 7 622     -32.656 130.204   6.881  1.00 18.61    -0.074 C 
HETATM   28  C26 VFQ 7 622     -33.664 129.515   7.520  1.00 18.29    -0.048 C 
HETATM   29  C27 VFQ 7 622     -34.507 130.158   8.551  1.00 19.20     0.009 C 
HETATM   30  C28 VFQ 7 622     -35.540 131.020   8.370  1.00 18.47     0.007 C 
HETATM   31  C29 VFQ 7 622     -36.242 131.767   9.395  1.00 13.75    -0.062 C 
HETATM   32  C30 VFQ 7 622     -37.166 132.642   8.980  1.00 13.75     0.007 C 
HETATM   33  C31 VFQ 7 622     -37.986 133.465   9.857  1.00 13.75     0.001 C 
HETATM   34  C32 VFQ 7 622     -38.460 134.576   9.311  1.00 13.75     0.007 C 
HETATM   35  C33 VFQ 7 622     -39.323 135.543  10.006  1.00 13.75    -0.062 C 
HETATM   36  C34 VFQ 7 622     -39.648 136.662   9.344  1.00 13.75     0.007 C 
HETATM   37  C35 VFQ 7 622     -40.522 137.688   9.895  1.00 13.75     0.001 C 
HETATM   38  C36 VFQ 7 622     -33.818 127.151   8.426  1.00 17.04     0.020 C 
HETATM   39  C37 VFQ 7 622     -35.357 127.870   6.589  1.00 20.18     0.020 C 
HETATM   40  C38 VFQ 7 622     -32.210 131.609   7.061  1.00 19.93     0.044 C 
HETATM   41  C39 VFQ 7 622     -35.950 131.550  10.845  1.00 13.75     0.048 C 
HETATM   42  C40 VFQ 7 622     -39.829 135.275  11.391  1.00 13.75     0.048 C 
HETATM   43  O23 VFQ 7 622     -31.282 127.653   4.452  1.00 19.51    -0.395 OA
ATOM     44  H23 VFQ 7 622     -30.453 128.069   4.251  1.00  0.00     0.210 HD
ENDROOT
TORSDOF 12
