REMARK VINA RESULT:    -9.957      1.872     16.724
REMARK INTER + INTRA:         -11.926
REMARK INTER:                 -11.539
REMARK INTRA:                  -0.386
REMARK UNBOUND:                -1.968
REMARK  0 active torsions:
REMARK  status: ('A' for Active; 'I' for Inactive)
REMARK       I    between atoms: C3_3  and  O3_21 
REMARK       I    between atoms: C6_6  and  C7_7 
REMARK       I    between atoms: C8_8  and  C9_9 
REMARK       I    between atoms: C10_10  and  C11_11 
REMARK       I    between atoms: C12_12  and  C13_13 
REMARK       I    between atoms: C14_14  and  C15_15 
REMARK       I    between atoms: C23_25  and  O23_43 
REMARK       I    between atoms: C26_28  and  C27_29 
REMARK       I    between atoms: C28_30  and  C29_31 
REMARK       I    between atoms: C30_32  and  C31_33 
REMARK       I    between atoms: C32_34  and  C33_35 
REMARK       I    between atoms: C34_36  and  C35_37 
ROOT
HETATM    1  C1  VFQ 8 617     -34.140 128.131   6.893  1.00 16.39    -0.018 C 
HETATM    2  C2  VFQ 8 617     -33.399 127.590   5.678  1.00 16.39     0.045 C 
HETATM    3  C3  VFQ 8 617     -32.086 128.247   5.280  1.00 16.39     0.123 C 
HETATM    4  C4  VFQ 8 617     -31.344 128.816   6.468  1.00 16.39     0.066 C 
HETATM    5  C5  VFQ 8 617     -32.261 129.740   7.207  1.00 16.39    -0.074 C 
HETATM    6  C6  VFQ 8 617     -33.497 129.353   7.525  1.00 16.39    -0.048 C 
HETATM    7  C7  VFQ 8 617     -34.249 130.107   8.554  1.00 16.39     0.009 C 
HETATM    8  C8  VFQ 8 617     -35.020 131.157   8.266  1.00 16.39     0.007 C 
HETATM    9  C9  VFQ 8 617     -35.741 131.871   9.329  1.00 16.39    -0.062 C 
HETATM   10  C10 VFQ 8 617     -36.478 132.944   8.982  1.00 16.39     0.007 C 
HETATM   11  C11 VFQ 8 617     -37.273 133.799   9.860  1.00 16.39     0.001 C 
HETATM   12  C12 VFQ 8 617     -37.962 134.761   9.255  1.00 16.39     0.007 C 
HETATM   13  C13 VFQ 8 617     -38.872 135.718   9.911  1.00 16.39    -0.062 C 
HETATM   14  C14 VFQ 8 617     -39.577 136.524   9.113  1.00 16.39     0.007 C 
HETATM   15  C15 VFQ 8 617     -40.555 137.465   9.631  1.00 16.39     0.001 C 
HETATM   16  C16 VFQ 8 617     -34.271 126.981   7.883  1.00 16.39     0.020 C 
HETATM   17  C17 VFQ 8 617     -35.533 128.549   6.447  1.00 16.39     0.020 C 
HETATM   18  C18 VFQ 8 617     -31.488 130.706   8.055  1.00 16.39     0.044 C 
HETATM   19  C19 VFQ 8 617     -35.605 131.376  10.732  1.00 16.39     0.048 C 
HETATM   20  C20 VFQ 8 617     -39.050 135.774  11.394  1.00 16.39     0.048 C 
HETATM   21  O3  VFQ 8 617     -31.258 127.269   4.647  1.00 16.39    -0.395 OA
ATOM     22  H3  VFQ 8 617     -30.438 127.680   4.398  1.00  0.00     0.210 HD
HETATM   23  C21 VFQ 8 617     -50.536 145.374   8.968  1.00 47.88    -0.018 C 
HETATM   24  C22 VFQ 8 617     -51.515 145.577  10.108  1.00 47.88     0.045 C 
HETATM   25  C23 VFQ 8 617     -51.243 146.894  10.805  1.00 47.88     0.123 C 
HETATM   26  C24 VFQ 8 617     -49.881 146.826  11.469  1.00 47.88     0.066 C 
HETATM   27  C25 VFQ 8 617     -48.832 146.447  10.460  1.00 47.88    -0.074 C 
HETATM   28  C26 VFQ 8 617     -49.114 145.671   9.404  1.00 47.88    -0.048 C 
HETATM   29  C27 VFQ 8 617     -48.012 145.095   8.608  1.00 47.88     0.009 C 
HETATM   30  C28 VFQ 8 617     -47.343 144.028   9.032  1.00 47.88     0.007 C 
HETATM   31  C29 VFQ 8 617     -46.248 143.453   8.210  1.00 16.39    -0.062 C 
HETATM   32  C30 VFQ 8 617     -45.737 142.327   8.694  1.00 16.39     0.007 C 
HETATM   33  C31 VFQ 8 617     -44.680 141.560   8.063  1.00 16.39     0.001 C 
HETATM   34  C32 VFQ 8 617     -44.041 140.701   8.843  1.00 16.39     0.007 C 
HETATM   35  C33 VFQ 8 617     -42.971 139.841   8.332  1.00 16.39    -0.062 C 
HETATM   36  C34 VFQ 8 617     -42.313 139.061   9.194  1.00 16.39     0.007 C 
HETATM   37  C35 VFQ 8 617     -41.272 138.150   8.749  1.00 16.39     0.001 C 
HETATM   38  C36 VFQ 8 617     -50.893 146.310   7.821  1.00 47.88     0.020 C 
HETATM   39  C37 VFQ 8 617     -50.667 143.938   8.479  1.00 47.88     0.020 C 
HETATM   40  C38 VFQ 8 617     -47.449 146.982  10.686  1.00 47.88     0.044 C 
HETATM   41  C39 VFQ 8 617     -45.752 144.056   6.930  1.00 16.39     0.048 C 
HETATM   42  C40 VFQ 8 617     -42.649 139.860   6.871  1.00 16.39     0.048 C 
HETATM   43  O23 VFQ 8 617     -52.254 147.141  11.782  1.00 47.88    -0.395 OA
ATOM     44  H23 VFQ 8 617     -52.084 147.968  12.219  1.00  0.00     0.210 HD
ENDROOT
TORSDOF 12
