REMARK VINA RESULT:   -10.305      0.000      0.000
REMARK INTER + INTRA:         -12.728
REMARK INTER:                 -10.305
REMARK INTRA:                  -2.423
REMARK UNBOUND:                -2.423
REMARK  0 active torsions:
REMARK  status: ('A' for Active; 'I' for Inactive)
REMARK       I    between atoms: C3_3  and  O3_21 
REMARK       I    between atoms: C6_6  and  C7_7 
REMARK       I    between atoms: C8_8  and  C9_9 
REMARK       I    between atoms: C10_10  and  C11_11 
REMARK       I    between atoms: C12_12  and  C13_13 
REMARK       I    between atoms: C14_14  and  C15_15 
REMARK       I    between atoms: C23_25  and  O23_43 
REMARK       I    between atoms: C26_28  and  C27_29 
REMARK       I    between atoms: C28_30  and  C29_31 
REMARK       I    between atoms: C30_32  and  C31_33 
REMARK       I    between atoms: C32_34  and  C33_35 
REMARK       I    between atoms: C34_36  and  C35_37 
ROOT
HETATM    1  C1  VFQ V1621     -34.203 127.035   6.739  1.00 16.22    -0.018 C 
HETATM    2  C2  VFQ V1621     -34.018 126.775   5.260  1.00 16.22     0.045 C 
HETATM    3  C3  VFQ V1621     -33.100 127.738   4.566  1.00 16.22     0.123 C 
HETATM    4  C4  VFQ V1621     -31.900 127.915   5.457  1.00 16.22     0.066 C 
HETATM    5  C5  VFQ V1621     -32.400 128.671   6.644  1.00 16.22    -0.074 C 
HETATM    6  C6  VFQ V1621     -33.464 128.213   7.299  1.00 16.22    -0.048 C 
HETATM    7  C7  VFQ V1621     -34.115 128.929   8.406  1.00 16.22     0.009 C 
HETATM    8  C8  VFQ V1621     -34.280 130.235   8.226  1.00 16.22     0.007 C 
HETATM    9  C9  VFQ V1621     -35.143 130.989   9.152  1.00 16.22    -0.062 C 
HETATM   10  C10 VFQ V1621     -35.742 132.087   8.671  1.00 16.22     0.007 C 
HETATM   11  C11 VFQ V1621     -36.738 132.854   9.409  1.00 16.22     0.001 C 
HETATM   12  C12 VFQ V1621     -37.412 133.816   8.789  1.00 16.22     0.007 C 
HETATM   13  C13 VFQ V1621     -38.475 134.575   9.470  1.00 16.22    -0.062 C 
HETATM   14  C14 VFQ V1621     -39.189 135.449   8.744  1.00 16.22     0.007 C 
HETATM   15  C15 VFQ V1621     -40.282 136.259   9.277  1.00 16.22     0.001 C 
HETATM   16  C16 VFQ V1621     -33.644 125.850   7.506  1.00 16.22     0.020 C 
HETATM   17  C17 VFQ V1621     -35.683 127.191   6.952  1.00 16.22     0.020 C 
HETATM   18  C18 VFQ V1621     -31.422 129.626   7.243  1.00 16.22     0.044 C 
HETATM   19  C19 VFQ V1621     -35.401 130.464  10.534  1.00 16.22     0.048 C 
HETATM   20  C20 VFQ V1621     -38.719 134.316  10.925  1.00 16.22     0.048 C 
HETATM   21  O3  VFQ V1621     -32.754 127.140   3.322  1.00 16.22    -0.395 OA
ATOM     22  H3  VFQ V1621     -32.174 127.750   2.882  1.00  0.00     0.210 HD
HETATM   23  C21 VFQ V1621     -49.768 144.747  10.448  1.00 71.46    -0.018 C 
HETATM   24  C22 VFQ V1621     -50.612 145.501  11.461  1.00 75.98     0.045 C 
HETATM   25  C23 VFQ V1621     -49.965 146.657  12.192  1.00 84.37     0.123 C 
HETATM   26  C24 VFQ V1621     -48.594 146.285  12.679  1.00 79.68     0.066 C 
HETATM   27  C25 VFQ V1621     -47.765 145.801  11.531  1.00 81.86    -0.074 C 
HETATM   28  C26 VFQ V1621     -48.270 144.994  10.583  1.00 72.92    -0.048 C 
HETATM   29  C27 VFQ V1621     -47.359 144.348   9.607  1.00 76.42     0.009 C 
HETATM   30  C28 VFQ V1621     -46.726 143.214   9.900  1.00 69.46     0.007 C 
HETATM   31  C29 VFQ V1621     -45.822 142.558   8.954  1.00 16.22    -0.062 C 
HETATM   32  C30 VFQ V1621     -45.273 141.396   9.341  1.00 16.22     0.007 C 
HETATM   33  C31 VFQ V1621     -44.330 140.628   8.543  1.00 16.22     0.001 C 
HETATM   34  C32 VFQ V1621     -43.719 139.587   9.091  1.00 16.22     0.007 C 
HETATM   35  C33 VFQ V1621     -42.699 138.825   8.354  1.00 16.22    -0.062 C 
HETATM   36  C34 VFQ V1621     -42.007 137.899   9.036  1.00 16.22     0.007 C 
HETATM   37  C35 VFQ V1621     -40.928 137.090   8.481  1.00 16.22     0.001 C 
HETATM   38  C36 VFQ V1621     -50.196 145.167   9.053  1.00 75.59     0.020 C 
HETATM   39  C37 VFQ V1621     -50.151 143.284  10.608  1.00 74.59     0.020 C 
HETATM   40  C38 VFQ V1621     -46.352 146.299  11.501  1.00 90.73     0.044 C 
HETATM   41  C39 VFQ V1621     -45.611 143.192   7.617  1.00 16.22     0.048 C 
HETATM   42  C40 VFQ V1621     -42.461 139.154   6.913  1.00 16.22     0.048 C 
HETATM   43  O23 VFQ V1621     -50.765 146.973  13.331  1.00 94.57    -0.395 OA
ATOM     44  H23 VFQ V1621     -50.358 147.699  13.791  1.00  0.00     0.210 HD
ENDROOT
TORSDOF 12
