REMARK VINA RESULT:   -11.045      0.000      0.000
REMARK INTER + INTRA:         -13.684
REMARK INTER:                 -11.045
REMARK INTRA:                  -2.639
REMARK UNBOUND:                -2.639
REMARK  0 active torsions:
REMARK  status: ('A' for Active; 'I' for Inactive)
REMARK       I    between atoms: C3_3  and  O3_21 
REMARK       I    between atoms: C6_6  and  C7_7 
REMARK       I    between atoms: C8_8  and  C9_9 
REMARK       I    between atoms: C10_10  and  C11_11 
REMARK       I    between atoms: C12_12  and  C13_13 
REMARK       I    between atoms: C14_14  and  C15_15 
REMARK       I    between atoms: C23_25  and  O23_43 
REMARK       I    between atoms: C26_28  and  C27_29 
REMARK       I    between atoms: C28_30  and  C29_31 
REMARK       I    between atoms: C30_32  and  C31_33 
REMARK       I    between atoms: C32_34  and  C33_35 
REMARK       I    between atoms: C34_36  and  C35_37 
ROOT
HETATM    1  C1  VFQ X1620     -33.755 129.220   7.145  1.00 33.88    -0.022 C 
HETATM    2  C2  VFQ X1620     -32.978 129.946   6.056  1.00 33.88     0.045 C 
HETATM    3  C3  VFQ X1620     -32.143 131.109   6.549  1.00 33.88     0.119 C 
HETATM    4  C4  VFQ X1620     -31.224 130.574   7.625  1.00 33.88     0.040 C 
HETATM    5  C5  VFQ X1620     -32.049 130.026   8.762  1.00 33.88     0.013 C 
HETATM    6  C6  VFQ X1620     -33.317 129.662   8.540  1.00 33.88    -0.068 C 
HETATM    7  C7  VFQ X1620     -34.367 129.982   9.516  1.00 33.88     0.004 C 
HETATM    8  C8  VFQ X1620     -34.926 131.142   9.149  1.00 33.88     0.007 C 
HETATM    9  C9  VFQ X1620     -35.989 131.824   9.932  1.00 33.88    -0.062 C 
HETATM   10  C10 VFQ X1620     -36.448 132.995   9.429  1.00 33.88     0.007 C 
HETATM   11  C11 VFQ X1620     -37.511 133.782  10.041  1.00 33.88     0.001 C 
HETATM   12  C12 VFQ X1620     -37.945 134.890   9.462  1.00 33.88     0.007 C 
HETATM   13  C13 VFQ X1620     -39.070 135.652  10.033  1.00 33.88    -0.062 C 
HETATM   14  C14 VFQ X1620     -39.530 136.666   9.281  1.00 33.88     0.007 C 
HETATM   15  C15 VFQ X1620     -40.677 137.510   9.617  1.00 33.88     0.001 C 
HETATM   16  C16 VFQ X1620     -33.598 127.736   6.822  1.00 33.88     0.019 C 
HETATM   17  C17 VFQ X1620     -35.221 129.612   6.968  1.00 33.88     0.019 C 
HETATM   18  C18 VFQ X1620     -31.648 131.003   9.838  1.00 33.88     0.015 C 
HETATM   19  C19 VFQ X1620     -36.522 131.208  11.208  1.00 33.88     0.048 C 
HETATM   20  C20 VFQ X1620     -39.686 135.215  11.336  1.00 33.88     0.048 C 
HETATM   21  O3  VFQ X1620     -31.381 131.580   5.433  1.00 33.88    -0.396 OA
ATOM     22  H3  VFQ X1620     -30.858 132.310   5.742  1.00  0.00     0.210 HD
HETATM   23  C21 VFQ X1620     -50.599 145.085   8.760  1.00 43.24    -0.018 C 
HETATM   24  C22 VFQ X1620     -51.800 145.870   9.290  1.00 43.24     0.045 C 
HETATM   25  C23 VFQ X1620     -51.539 147.096  10.161  1.00 43.24     0.123 C 
HETATM   26  C24 VFQ X1620     -50.230 147.000  10.920  1.00 43.24     0.066 C 
HETATM   27  C25 VFQ X1620     -49.124 146.715   9.946  1.00 43.24    -0.074 C 
HETATM   28  C26 VFQ X1620     -49.254 145.745   9.032  1.00 43.24    -0.048 C 
HETATM   29  C27 VFQ X1620     -48.056 145.321   8.265  1.00 43.24     0.009 C 
HETATM   30  C28 VFQ X1620     -47.277 144.331   8.702  1.00 43.24     0.007 C 
HETATM   31  C29 VFQ X1620     -46.060 143.871   8.001  1.00 33.88    -0.062 C 
HETATM   32  C30 VFQ X1620     -45.462 142.787   8.542  1.00 33.88     0.007 C 
HETATM   33  C31 VFQ X1620     -44.269 142.117   8.016  1.00 33.88     0.001 C 
HETATM   34  C32 VFQ X1620     -43.801 141.052   8.674  1.00 33.88     0.007 C 
HETATM   35  C33 VFQ X1620     -42.608 140.299   8.226  1.00 33.88    -0.062 C 
HETATM   36  C34 VFQ X1620     -42.185 139.295   9.021  1.00 33.88     0.007 C 
HETATM   37  C35 VFQ X1620     -41.029 138.444   8.737  1.00 33.88     0.001 C 
HETATM   38  C36 VFQ X1620     -50.738 144.941   7.250  1.00 43.24     0.020 C 
HETATM   39  C37 VFQ X1620     -50.677 143.690   9.372  1.00 43.24     0.020 C 
HETATM   40  C38 VFQ X1620     -47.890 147.570  10.027  1.00 43.24     0.044 C 
HETATM   41  C39 VFQ X1620     -45.590 144.552   6.737  1.00 33.88     0.048 C 
HETATM   42  C40 VFQ X1620     -41.967 140.656   6.910  1.00 33.88     0.048 C 
HETATM   43  O23 VFQ X1620     -52.600 147.227  11.112  1.00 43.24    -0.395 OA
ATOM     44  H23 VFQ X1620     -52.437 147.990  11.654  1.00  0.00     0.210 HD
ENDROOT
TORSDOF 12
