REMARK VINA RESULT:    -9.495      0.585     16.839
REMARK INTER + INTRA:          -9.962
REMARK INTER:                  -9.677
REMARK INTRA:                  -0.284
REMARK UNBOUND:                -0.467
REMARK  0 active torsions:
REMARK  status: ('A' for Active; 'I' for Inactive)
REMARK       I    between atoms: C3_3  and  O3_21 
REMARK       I    between atoms: C6_6  and  C7_7 
REMARK       I    between atoms: C8_8  and  C9_9 
REMARK       I    between atoms: C10_10  and  C11_11 
REMARK       I    between atoms: C12_12  and  C13_13 
REMARK       I    between atoms: C14_14  and  C15_15 
REMARK       I    between atoms: C23_25  and  O23_43 
REMARK       I    between atoms: C26_28  and  C27_29 
REMARK       I    between atoms: C28_30  and  C29_31 
REMARK       I    between atoms: C30_32  and  C31_33 
REMARK       I    between atoms: C32_34  and  C33_35 
REMARK       I    between atoms: C34_36  and  C35_37 
ROOT
HETATM    1  C1  VFQ 51621     -50.796 145.076  10.186  1.00 87.69    -0.018 C 
HETATM    2  C2  VFQ 51621     -51.595 145.384  11.438  1.00 87.69     0.045 C 
HETATM    3  C3  VFQ 51621     -51.527 146.816  11.958  1.00 87.69     0.123 C 
HETATM    4  C4  VFQ 51621     -50.232 147.556  11.653  1.00 87.69     0.066 C 
HETATM    5  C5  VFQ 51621     -49.149 146.668  11.098  1.00 87.69    -0.074 C 
HETATM    6  C6  VFQ 51621     -49.424 145.690  10.238  1.00 87.69    -0.048 C 
HETATM    7  C7  VFQ 51621     -48.401 145.206   9.282  1.00 87.69     0.009 C 
HETATM    8  C8  VFQ 51621     -47.481 144.324   9.656  1.00 87.69     0.007 C 
HETATM    9  C9  VFQ 51621     -46.462 143.804   8.732  1.00 87.69    -0.062 C 
HETATM   10  C10 VFQ 51621     -45.815 142.708   9.115  1.00 87.69     0.007 C 
HETATM   11  C11 VFQ 51621     -44.787 142.010   8.358  1.00 87.69     0.001 C 
HETATM   12  C12 VFQ 51621     -44.108 141.093   9.038  1.00 87.69     0.007 C 
HETATM   13  C13 VFQ 51621     -43.066 140.255   8.427  1.00 87.69    -0.062 C 
HETATM   14  C14 VFQ 51621     -42.525 139.288   9.171  1.00 87.69     0.007 C 
HETATM   15  C15 VFQ 51621     -41.528 138.381   8.628  1.00 87.69     0.001 C 
HETATM   16  C16 VFQ 51621     -51.555 145.513   8.937  1.00 87.69     0.020 C 
HETATM   17  C17 VFQ 51621     -50.618 143.574  10.129  1.00 87.69     0.020 C 
HETATM   18  C18 VFQ 51621     -48.045 147.643  10.837  1.00 87.69     0.044 C 
HETATM   19  C19 VFQ 51621     -46.169 144.478   7.431  1.00 87.69     0.048 C 
HETATM   20  C20 VFQ 51621     -42.648 140.458   7.004  1.00 87.69     0.048 C 
HETATM   21  O3  VFQ 51621     -52.600 147.534  11.353  1.00 87.69    -0.395 OA
ATOM     22  H3  VFQ 51621     -52.558 148.427  11.677  1.00  0.00     0.210 HD
HETATM   23  C21 VFQ 51621     -34.024 128.335   7.451  1.00 94.67    -0.018 C 
HETATM   24  C22 VFQ 51621     -33.067 127.380   6.749  1.00 94.67     0.045 C 
HETATM   25  C23 VFQ 51621     -31.704 127.931   6.391  1.00 94.67     0.123 C 
HETATM   26  C24 VFQ 51621     -31.870 129.308   5.804  1.00 94.67     0.066 C 
HETATM   27  C25 VFQ 51621     -32.522 130.208   6.806  1.00 94.67    -0.074 C 
HETATM   28  C26 VFQ 51621     -33.528 129.765   7.562  1.00 94.67    -0.048 C 
HETATM   29  C27 VFQ 51621     -34.186 130.655   8.548  1.00 94.67     0.009 C 
HETATM   30  C28 VFQ 51621     -35.218 131.423   8.202  1.00 94.67     0.007 C 
HETATM   31  C29 VFQ 51621     -35.904 132.295   9.147  1.00 87.69    -0.062 C 
HETATM   32  C30 VFQ 51621     -37.062 132.812   8.748  1.00 87.69     0.007 C 
HETATM   33  C31 VFQ 51621     -37.893 133.679   9.561  1.00 87.69     0.001 C 
HETATM   34  C32 VFQ 51621     -38.519 134.644   8.908  1.00 87.69     0.007 C 
HETATM   35  C33 VFQ 51621     -39.424 135.583   9.573  1.00 87.69    -0.062 C 
HETATM   36  C34 VFQ 51621     -40.068 136.489   8.832  1.00 87.69     0.007 C 
HETATM   37  C35 VFQ 51621     -41.023 137.429   9.400  1.00 87.69     0.001 C 
HETATM   38  C36 VFQ 51621     -34.232 127.821   8.867  1.00 94.67     0.020 C 
HETATM   39  C37 VFQ 51621     -35.334 128.265   6.671  1.00 94.67     0.020 C 
HETATM   40  C38 VFQ 51621     -31.976 131.602   6.905  1.00 94.67     0.044 C 
HETATM   41  C39 VFQ 51621     -35.337 132.576  10.499  1.00 87.69     0.048 C 
HETATM   42  C40 VFQ 51621     -39.617 135.490  11.047  1.00 87.69     0.048 C 
HETATM   43  O23 VFQ 51621     -31.119 127.091   5.395  1.00 94.67    -0.395 OA
ATOM     44  H23 VFQ 51621     -31.014 126.223   5.766  1.00  0.00     0.210 HD
ENDROOT
TORSDOF 12
