REMARK VINA RESULT:    -9.821      0.000      0.000
REMARK INTER + INTRA:         -13.040
REMARK INTER:                  -9.821
REMARK INTRA:                  -3.219
REMARK UNBOUND:                -3.219
REMARK  0 active torsions:
REMARK  status: ('A' for Active; 'I' for Inactive)
REMARK       I    between atoms: C3_3  and  O3_21 
REMARK       I    between atoms: C6_6  and  C7_7 
REMARK       I    between atoms: C8_8  and  C9_9 
REMARK       I    between atoms: C10_10  and  C11_11 
REMARK       I    between atoms: C12_12  and  C13_13 
REMARK       I    between atoms: C14_14  and  C15_15 
REMARK       I    between atoms: C23_25  and  O23_43 
REMARK       I    between atoms: C26_28  and  C27_29 
REMARK       I    between atoms: C28_30  and  C29_31 
REMARK       I    between atoms: C30_32  and  C31_33 
REMARK       I    between atoms: C32_34  and  C33_35 
REMARK       I    between atoms: C34_36  and  C35_37 
ROOT
HETATM    1  C1  VFQ N1621     -34.321 127.007   6.326  1.00 51.88    -0.018 C 
HETATM    2  C2  VFQ N1621     -33.912 126.441   4.973  1.00 51.88     0.045 C 
HETATM    3  C3  VFQ N1621     -32.753 127.117   4.274  1.00 51.88     0.123 C 
HETATM    4  C4  VFQ N1621     -31.682 127.464   5.279  1.00 51.88     0.066 C 
HETATM    5  C5  VFQ N1621     -32.258 128.384   6.313  1.00 51.88    -0.074 C 
HETATM    6  C6  VFQ N1621     -33.453 128.136   6.851  1.00 51.88    -0.048 C 
HETATM    7  C7  VFQ N1621     -33.997 128.934   7.982  1.00 51.88     0.009 C 
HETATM    8  C8  VFQ N1621     -34.626 130.096   7.797  1.00 51.88     0.007 C 
HETATM    9  C9  VFQ N1621     -35.220 130.894   8.879  1.00 51.88    -0.062 C 
HETATM   10  C10 VFQ N1621     -36.133 131.780   8.483  1.00 51.88     0.007 C 
HETATM   11  C11 VFQ N1621     -36.908 132.668   9.333  1.00 51.88     0.001 C 
HETATM   12  C12 VFQ N1621     -37.772 133.433   8.678  1.00 51.88     0.007 C 
HETATM   13  C13 VFQ N1621     -38.689 134.357   9.357  1.00 51.88    -0.062 C 
HETATM   14  C14 VFQ N1621     -39.509 135.108   8.611  1.00 51.88     0.007 C 
HETATM   15  C15 VFQ N1621     -40.470 136.018   9.221  1.00 51.88     0.001 C 
HETATM   16  C16 VFQ N1621     -34.379 125.850   7.310  1.00 51.88     0.020 C 
HETATM   17  C17 VFQ N1621     -35.723 127.550   6.177  1.00 51.88     0.020 C 
HETATM   18  C18 VFQ N1621     -31.300 129.383   6.885  1.00 51.88     0.044 C 
HETATM   19  C19 VFQ N1621     -34.836 130.716  10.314  1.00 51.88     0.048 C 
HETATM   20  C20 VFQ N1621     -38.721 134.411  10.853  1.00 51.88     0.048 C 
HETATM   21  O3  VFQ N1621     -32.193 126.203   3.326  1.00 51.88    -0.395 OA
ATOM     22  H3  VFQ N1621     -31.465 126.628   2.887  1.00  0.00     0.210 HD
HETATM   23  C21 VFQ N1621     -50.120 144.339  10.254  1.00 94.67    -0.018 C 
HETATM   24  C22 VFQ N1621     -51.060 145.305  10.963  1.00 94.67     0.045 C 
HETATM   25  C23 VFQ N1621     -50.422 146.500  11.636  1.00 94.67     0.123 C 
HETATM   26  C24 VFQ N1621     -49.198 146.045  12.385  1.00 94.67     0.066 C 
HETATM   27  C25 VFQ N1621     -48.222 145.432  11.430  1.00 94.67    -0.074 C 
HETATM   28  C26 VFQ N1621     -48.644 144.632  10.449  1.00 94.67    -0.048 C 
HETATM   29  C27 VFQ N1621     -47.682 144.011   9.507  1.00 94.67     0.009 C 
HETATM   30  C28 VFQ N1621     -47.114 142.837   9.776  1.00 94.67     0.007 C 
HETATM   31  C29 VFQ N1621     -46.175 142.178   8.867  1.00 51.88    -0.062 C 
HETATM   32  C30 VFQ N1621     -45.750 140.955   9.206  1.00 51.88     0.007 C 
HETATM   33  C31 VFQ N1621     -44.817 140.154   8.423  1.00 51.88     0.001 C 
HETATM   34  C32 VFQ N1621     -43.982 139.364   9.095  1.00 51.88     0.007 C 
HETATM   35  C33 VFQ N1621     -43.003 138.508   8.410  1.00 51.88    -0.062 C 
HETATM   36  C34 VFQ N1621     -42.177 137.717   9.112  1.00 51.88     0.007 C 
HETATM   37  C35 VFQ N1621     -41.202 136.838   8.470  1.00 51.88     0.001 C 
HETATM   38  C36 VFQ N1621     -50.402 144.434   8.763  1.00 94.67     0.020 C 
HETATM   39  C37 VFQ N1621     -50.480 142.949  10.769  1.00 94.67     0.020 C 
HETATM   40  C38 VFQ N1621     -46.777 145.776  11.641  1.00 94.67     0.044 C 
HETATM   41  C39 VFQ N1621     -45.720 142.862   7.616  1.00 51.88     0.048 C 
HETATM   42  C40 VFQ N1621     -42.955 138.540   6.923  1.00 51.88     0.048 C 
HETATM   43  O23 VFQ N1621     -51.345 147.040  12.581  1.00 94.67    -0.395 OA
ATOM     44  H23 VFQ N1621     -50.945 147.790  13.004  1.00  0.00     0.210 HD
ENDROOT
TORSDOF 12
