REMARK VINA RESULT:   -10.565      0.000      0.000
REMARK INTER + INTRA:         -11.043
REMARK INTER:                 -10.565
REMARK INTRA:                  -0.478
REMARK UNBOUND:                -0.478
REMARK  0 active torsions:
REMARK  status: ('A' for Active; 'I' for Inactive)
REMARK       I    between atoms: C3_3  and  O3_21 
REMARK       I    between atoms: C6_6  and  C7_7 
REMARK       I    between atoms: C8_8  and  C9_9 
REMARK       I    between atoms: C10_10  and  C11_11 
REMARK       I    between atoms: C12_12  and  C13_13 
REMARK       I    between atoms: C14_14  and  C15_15 
REMARK       I    between atoms: C23_25  and  O23_43 
REMARK       I    between atoms: C26_28  and  C27_29 
REMARK       I    between atoms: C28_30  and  C29_31 
REMARK       I    between atoms: C30_32  and  C31_33 
REMARK       I    between atoms: C32_34  and  C33_35 
REMARK       I    between atoms: C34_36  and  C35_37 
ROOT
HETATM    1  C1  VFQ E4620     -50.441 145.334  11.358  1.00 19.12    -0.018 C 
HETATM    2  C2  VFQ E4620     -51.351 145.996  12.413  1.00 18.29     0.045 C 
HETATM    3  C3  VFQ E4620     -50.685 146.894  13.456  1.00 18.54     0.123 C 
HETATM    4  C4  VFQ E4620     -49.552 147.746  12.884  1.00 18.55     0.066 C 
HETATM    5  C5  VFQ E4620     -48.661 147.128  11.857  1.00 18.97    -0.074 C 
HETATM    6  C6  VFQ E4620     -49.048 146.010  11.132  1.00 18.68    -0.048 C 
HETATM    7  C7  VFQ E4620     -48.187 145.405  10.105  1.00 18.46     0.009 C 
HETATM    8  C8  VFQ E4620     -47.118 144.621  10.281  1.00 18.89     0.007 C 
HETATM    9  C9  VFQ E4620     -46.189 144.131   9.260  1.00 19.10    -0.062 C 
HETATM   10  C10 VFQ E4620     -45.235 143.258   9.651  1.00 18.99     0.007 C 
HETATM   11  C11 VFQ E4620     -44.240 142.637   8.831  1.00 18.78     0.001 C 
HETATM   12  C12 VFQ E4620     -43.504 141.654   9.353  1.00 19.28     0.007 C 
HETATM   13  C13 VFQ E4620     -42.485 140.837   8.694  1.00 21.25    -0.062 C 
HETATM   14  C14 VFQ E4620     -41.953 139.820   9.409  1.00 20.64     0.007 C 
HETATM   15  C15 VFQ E4620     -41.013 138.836   8.961  1.00 21.49     0.001 C 
HETATM   16  C16 VFQ E4620     -51.277 145.373  10.069  1.00 19.29     0.020 C 
HETATM   17  C17 VFQ E4620     -50.257 143.855  11.745  1.00 16.00     0.020 C 
HETATM   18  C18 VFQ E4620     -47.416 147.951  11.808  1.00 17.87     0.044 C 
HETATM   19  C19 VFQ E4620     -46.395 144.588   7.840  1.00 17.60     0.048 C 
HETATM   20  C20 VFQ E4620     -42.158 141.137   7.258  1.00 16.75     0.048 C 
HETATM   21  O3  VFQ E4620     -51.652 147.726  14.084  1.00 19.42    -0.395 OA
ATOM     22  H3  VFQ E4620     -51.238 148.284  14.732  1.00  0.00     0.210 HD
HETATM   23  C21 VFQ E4620     -34.102 128.265   7.040  1.00 13.13    -0.018 C 
HETATM   24  C22 VFQ E4620     -33.260 127.563   5.985  1.00 13.13     0.045 C 
HETATM   25  C23 VFQ E4620     -31.789 127.908   6.004  1.00 13.13     0.123 C 
HETATM   26  C24 VFQ E4620     -31.622 129.406   5.967  1.00 13.13     0.066 C 
HETATM   27  C25 VFQ E4620     -32.372 130.062   7.093  1.00 13.13    -0.074 C 
HETATM   28  C26 VFQ E4620     -33.548 129.591   7.539  1.00 13.13    -0.048 C 
HETATM   29  C27 VFQ E4620     -34.336 130.305   8.583  1.00 13.13     0.009 C 
HETATM   30  C28 VFQ E4620     -35.146 131.348   8.350  1.00 13.13     0.007 C 
HETATM   31  C29 VFQ E4620     -35.946 132.038   9.418  1.00 25.99    -0.062 C 
HETATM   32  C30 VFQ E4620     -36.718 133.077   9.038  1.00 24.86     0.007 C 
HETATM   33  C31 VFQ E4620     -37.586 133.858   9.879  1.00 24.61     0.001 C 
HETATM   34  C32 VFQ E4620     -38.267 134.912   9.382  1.00 23.19     0.007 C 
HETATM   35  C33 VFQ E4620     -39.171 135.843  10.069  1.00 22.76    -0.062 C 
HETATM   36  C34 VFQ E4620     -39.702 136.849   9.341  1.00 21.16     0.007 C 
HETATM   37  C35 VFQ E4620     -40.599 137.874   9.786  1.00 21.72     0.001 C 
HETATM   38  C36 VFQ E4620     -34.206 127.352   8.250  1.00 13.13     0.020 C 
HETATM   39  C37 VFQ E4620     -35.471 128.448   6.405  1.00 13.13     0.020 C 
HETATM   40  C38 VFQ E4620     -31.700 131.263   7.684  1.00 13.13     0.044 C 
HETATM   41  C39 VFQ E4620     -35.843 131.559  10.839  1.00 26.11     0.048 C 
HETATM   42  C40 VFQ E4620     -39.421 135.629  11.539  1.00 21.07     0.048 C 
HETATM   43  O23 VFQ E4620     -31.181 127.359   4.837  1.00 13.13    -0.395 OA
ATOM     44  H23 VFQ E4620     -30.256 127.576   4.850  1.00  0.00     0.210 HD
ENDROOT
TORSDOF 12
