REMARK VINA RESULT:    -9.335      0.000      0.000
REMARK INTER + INTRA:         -11.984
REMARK INTER:                  -9.335
REMARK INTRA:                  -2.649
REMARK UNBOUND:                -2.649
REMARK  0 active torsions:
REMARK  status: ('A' for Active; 'I' for Inactive)
REMARK       I    between atoms: C3_3  and  O3_21 
REMARK       I    between atoms: C6_6  and  C7_7 
REMARK       I    between atoms: C8_8  and  C9_9 
REMARK       I    between atoms: C10_10  and  C11_11 
REMARK       I    between atoms: C12_12  and  C13_13 
REMARK       I    between atoms: C14_14  and  C15_15 
REMARK       I    between atoms: C23_25  and  O23_43 
REMARK       I    between atoms: C26_28  and  C27_29 
REMARK       I    between atoms: C28_30  and  C29_31 
REMARK       I    between atoms: C30_32  and  C31_33 
REMARK       I    between atoms: C32_34  and  C33_35 
REMARK       I    between atoms: C34_36  and  C35_37 
ROOT
HETATM    1  C1  VFQ 1 316     -34.417 126.945   6.384  1.00 73.24    -0.018 C 
HETATM    2  C2  VFQ 1 316     -33.987 126.347   5.042  1.00 72.84     0.045 C 
HETATM    3  C3  VFQ 1 316     -32.911 127.100   4.270  1.00 72.53     0.123 C 
HETATM    4  C4  VFQ 1 316     -31.828 127.580   5.217  1.00 72.61     0.066 C 
HETATM    5  C5  VFQ 1 316     -32.443 128.468   6.266  1.00 72.68    -0.074 C 
HETATM    6  C6  VFQ 1 316     -33.593 128.133   6.852  1.00 72.79    -0.048 C 
HETATM    7  C7  VFQ 1 316     -34.096 128.940   7.990  1.00 71.90     0.009 C 
HETATM    8  C8  VFQ 1 316     -34.792 130.059   7.772  1.00 71.51     0.007 C 
HETATM    9  C9  VFQ 1 316     -35.322 130.901   8.865  1.00 70.48    -0.062 C 
HETATM   10  C10 VFQ 1 316     -36.060 131.972   8.535  1.00 69.46     0.007 C 
HETATM   11  C11 VFQ 1 316     -36.660 132.897   9.494  1.00 69.85     0.001 C 
HETATM   12  C12 VFQ 1 316     -37.388 133.889   8.982  1.00 72.15     0.007 C 
HETATM   13  C13 VFQ 1 316     -38.088 134.914   9.786  1.00 73.74    -0.062 C 
HETATM   14  C14 VFQ 1 316     -38.984 135.696   9.157  1.00 74.04     0.007 C 
HETATM   15  C15 VFQ 1 316     -39.763 136.730   9.836  1.00 74.62     0.001 C 
HETATM   16  C16 VFQ 1 316     -34.327 125.850   7.439  1.00 72.68     0.020 C 
HETATM   17  C17 VFQ 1 316     -35.864 127.407   6.259  1.00 73.05     0.020 C 
HETATM   18  C18 VFQ 1 316     -31.564 129.531   6.859  1.00 72.13     0.044 C 
HETATM   19  C19 VFQ 1 316     -35.035 130.570  10.299  1.00 70.45     0.048 C 
HETATM   20  C20 VFQ 1 316     -37.803 135.078  11.252  1.00 72.89     0.048 C 
HETATM   21  O3  VFQ 1 316     -32.329 126.228   3.291  1.00 71.04    -0.395 OA
ATOM     22  H3  VFQ 1 316     -33.008 125.928   2.698  1.00  0.00     0.210 HD
HETATM   23  C21 VFQ 1 316     -49.407 144.849  12.057  1.00 73.56    -0.018 C 
HETATM   24  C22 VFQ 1 316     -50.154 145.919  12.857  1.00 73.56     0.045 C 
HETATM   25  C23 VFQ 1 316     -49.432 147.229  13.167  1.00 73.56     0.123 C 
HETATM   26  C24 VFQ 1 316     -47.933 147.020  13.306  1.00 73.56     0.066 C 
HETATM   27  C25 VFQ 1 316     -47.445 146.385  12.032  1.00 73.56    -0.074 C 
HETATM   28  C26 VFQ 1 316     -48.027 145.272  11.573  1.00 73.56    -0.048 C 
HETATM   29  C27 VFQ 1 316     -47.343 144.444  10.549  1.00 73.56     0.009 C 
HETATM   30  C28 VFQ 1 316     -46.434 143.515  10.860  1.00 73.56     0.007 C 
HETATM   31  C29 VFQ 1 316     -45.769 142.703   9.819  1.00 94.72    -0.062 C 
HETATM   32  C30 VFQ 1 316     -44.882 141.783  10.222  1.00 91.32     0.007 C 
HETATM   33  C31 VFQ 1 316     -44.161 140.893   9.315  1.00 87.88     0.001 C 
HETATM   34  C32 VFQ 1 316     -43.233 140.116   9.866  1.00 84.19     0.007 C 
HETATM   35  C33 VFQ 1 316     -42.424 139.135   9.121  1.00 80.79    -0.062 C 
HETATM   36  C34 VFQ 1 316     -41.483 138.442   9.786  1.00 78.84     0.007 C 
HETATM   37  C35 VFQ 1 316     -40.661 137.426   9.134  1.00 76.79     0.001 C 
HETATM   38  C36 VFQ 1 316     -50.228 144.519  10.818  1.00 73.56     0.020 C 
HETATM   39  C37 VFQ 1 316     -49.317 143.601  12.932  1.00 73.56     0.020 C 
HETATM   40  C38 VFQ 1 316     -46.328 147.054  11.283  1.00 73.56     0.044 C 
HETATM   41  C39 VFQ 1 316     -46.084 142.893   8.366  1.00 95.37     0.048 C 
HETATM   42  C40 VFQ 1 316     -42.672 138.905   7.660  1.00 90.13     0.048 C 
HETATM   43  O23 VFQ 1 316     -49.950 147.767  14.390  1.00 73.56    -0.395 OA
ATOM     44  H23 VFQ 1 316     -49.501 148.583  14.582  1.00  0.00     0.210 HD
ENDROOT
TORSDOF 12
