REMARK VINA RESULT:    -7.177      1.393     16.915
REMARK INTER + INTRA:         -10.197
REMARK INTER:                  -9.776
REMARK INTRA:                  -0.421
REMARK UNBOUND:                -3.020
REMARK  0 active torsions:
REMARK  status: ('A' for Active; 'I' for Inactive)
REMARK       I    between atoms: C3_3  and  O3_21 
REMARK       I    between atoms: C6_6  and  C7_7 
REMARK       I    between atoms: C8_8  and  C9_9 
REMARK       I    between atoms: C10_10  and  C11_11 
REMARK       I    between atoms: C12_12  and  C13_13 
REMARK       I    between atoms: C14_14  and  C15_15 
REMARK       I    between atoms: C23_25  and  O23_43 
REMARK       I    between atoms: C26_28  and  C27_29 
REMARK       I    between atoms: C28_30  and  C29_31 
REMARK       I    between atoms: C30_32  and  C31_33 
REMARK       I    between atoms: C32_34  and  C33_35 
REMARK       I    between atoms: C34_36  and  C35_37 
ROOT
HETATM    1  C1  VFQ E4620     -50.660 145.055  10.748  1.00 19.12    -0.018 C 
HETATM    2  C2  VFQ E4620     -51.582 145.749  11.772  1.00 18.29     0.045 C 
HETATM    3  C3  VFQ E4620     -50.932 146.707  12.771  1.00 18.54     0.123 C 
HETATM    4  C4  VFQ E4620     -49.814 147.551  12.159  1.00 18.55     0.066 C 
HETATM    5  C5  VFQ E4620     -48.912 146.901  11.162  1.00 18.97    -0.074 C 
HETATM    6  C6  VFQ E4620     -49.279 145.744  10.491  1.00 18.68    -0.048 C 
HETATM    7  C7  VFQ E4620     -48.407 145.107   9.492  1.00 18.46     0.009 C 
HETATM    8  C8  VFQ E4620     -47.325 144.351   9.704  1.00 18.89     0.007 C 
HETATM    9  C9  VFQ E4620     -46.387 143.830   8.707  1.00 19.10    -0.062 C 
HETATM   10  C10 VFQ E4620     -45.418 142.994   9.138  1.00 18.99     0.007 C 
HETATM   11  C11 VFQ E4620     -44.412 142.353   8.347  1.00 18.78     0.001 C 
HETATM   12  C12 VFQ E4620     -43.658 141.408   8.914  1.00 19.28     0.007 C 
HETATM   13  C13 VFQ E4620     -42.625 140.579   8.294  1.00 21.25    -0.062 C 
HETATM   14  C14 VFQ E4620     -42.075 139.607   9.055  1.00 20.64     0.007 C 
HETATM   15  C15 VFQ E4620     -41.117 138.620   8.653  1.00 21.49     0.001 C 
HETATM   16  C16 VFQ E4620     -51.496 145.018   9.460  1.00 19.29     0.020 C 
HETATM   17  C17 VFQ E4620     -50.450 143.599  11.205  1.00 16.00     0.020 C 
HETATM   18  C18 VFQ E4620     -47.682 147.743  11.073  1.00 17.87     0.044 C 
HETATM   19  C19 VFQ E4620     -46.600 144.216   7.267  1.00 17.60     0.048 C 
HETATM   20  C20 VFQ E4620     -42.303 140.817   6.845  1.00 16.75     0.048 C 
HETATM   21  O3  VFQ E4620     -51.914 147.550  13.360  1.00 19.42    -0.395 OA
ATOM     22  H3  VFQ E4620     -51.510 148.145  13.981  1.00  0.00     0.210 HD
HETATM   23  C21 VFQ E4620     -34.048 128.199   7.089  1.00 93.31    -0.018 C 
HETATM   24  C22 VFQ E4620     -33.096 127.461   6.148  1.00 93.93     0.045 C 
HETATM   25  C23 VFQ E4620     -31.640 127.904   6.196  1.00 93.98     0.123 C 
HETATM   26  C24 VFQ E4620     -31.562 129.418   6.104  1.00 93.16     0.066 C 
HETATM   27  C25 VFQ E4620     -32.344 130.028   7.237  1.00 92.19    -0.074 C 
HETATM   28  C26 VFQ E4620     -33.506 129.504   7.642  1.00 91.50    -0.048 C 
HETATM   29  C27 VFQ E4620     -34.298 130.207   8.680  1.00 98.60     0.009 C 
HETATM   30  C28 VFQ E4620     -35.118 131.217   8.380  1.00 95.09     0.007 C 
HETATM   31  C29 VFQ E4620     -35.931 131.942   9.426  1.00 25.99    -0.062 C 
HETATM   32  C30 VFQ E4620     -36.722 132.948   8.998  1.00 24.86     0.007 C 
HETATM   33  C31 VFQ E4620     -37.603 133.752   9.802  1.00 24.61     0.001 C 
HETATM   34  C32 VFQ E4620     -38.302 134.769   9.256  1.00 23.19     0.007 C 
HETATM   35  C33 VFQ E4620     -39.223 135.715   9.899  1.00 22.76    -0.062 C 
HETATM   36  C34 VFQ E4620     -39.772 136.676   9.125  1.00 21.16     0.007 C 
HETATM   37  C35 VFQ E4620     -40.687 137.705   9.522  1.00 21.72     0.001 C 
HETATM   38  C36 VFQ E4620     -34.347 127.291   8.277  1.00 93.81     0.020 C 
HETATM   39  C37 VFQ E4620     -35.345 128.479   6.339  1.00 92.50     0.020 C 
HETATM   40  C38 VFQ E4620     -31.770 131.239   7.915  1.00 91.81     0.044 C 
HETATM   41  C39 VFQ E4620     -35.820 131.531  10.868  1.00 26.11     0.048 C 
HETATM   42  C40 VFQ E4620     -39.470 135.566  11.378  1.00 21.07     0.048 C 
HETATM   43  O23 VFQ E4620     -30.932 127.331   5.090  1.00 94.06    -0.395 OA
ATOM     44  H23 VFQ E4620     -30.023 127.607   5.120  1.00  0.00     0.210 HD
ENDROOT
TORSDOF 12
