REMARK VINA RESULT:   -10.577      0.000      0.000
REMARK INTER + INTRA:         -13.562
REMARK INTER:                 -10.577
REMARK INTRA:                  -2.985
REMARK UNBOUND:                -2.985
REMARK  0 active torsions:
REMARK  status: ('A' for Active; 'I' for Inactive)
REMARK       I    between atoms: C3_3  and  O3_21 
REMARK       I    between atoms: C6_6  and  C7_7 
REMARK       I    between atoms: C8_8  and  C9_9 
REMARK       I    between atoms: C10_10  and  C11_11 
REMARK       I    between atoms: C12_12  and  C13_13 
REMARK       I    between atoms: C14_14  and  C15_15 
REMARK       I    between atoms: C23_25  and  O23_43 
REMARK       I    between atoms: C26_28  and  C27_29 
REMARK       I    between atoms: C28_30  and  C29_31 
REMARK       I    between atoms: C30_32  and  C31_33 
REMARK       I    between atoms: C32_34  and  C33_35 
REMARK       I    between atoms: C34_36  and  C35_37 
ROOT
HETATM    1  C1  VFQ Y1620     -33.700 129.231   7.057  1.00 32.37    -0.022 C 
HETATM    2  C2  VFQ Y1620     -32.918 129.973   5.983  1.00 32.37     0.045 C 
HETATM    3  C3  VFQ Y1620     -32.083 131.125   6.496  1.00 32.37     0.119 C 
HETATM    4  C4  VFQ Y1620     -31.169 130.572   7.567  1.00 32.37     0.040 C 
HETATM    5  C5  VFQ Y1620     -31.998 130.009   8.693  1.00 32.37     0.013 C 
HETATM    6  C6  VFQ Y1620     -33.266 129.650   8.461  1.00 32.37    -0.068 C 
HETATM    7  C7  VFQ Y1620     -34.319 129.957   9.438  1.00 32.37     0.004 C 
HETATM    8  C8  VFQ Y1620     -34.874 131.124   9.087  1.00 32.37     0.007 C 
HETATM    9  C9  VFQ Y1620     -35.938 131.795   9.877  1.00 32.37    -0.062 C 
HETATM   10  C10 VFQ Y1620     -36.391 132.975   9.392  1.00 32.37     0.007 C 
HETATM   11  C11 VFQ Y1620     -37.457 133.754  10.013  1.00 32.37     0.001 C 
HETATM   12  C12 VFQ Y1620     -37.886 134.873   9.449  1.00 32.37     0.007 C 
HETATM   13  C13 VFQ Y1620     -39.011 135.629  10.030  1.00 32.37    -0.062 C 
HETATM   14  C14 VFQ Y1620     -39.465 136.654   9.292  1.00 32.37     0.007 C 
HETATM   15  C15 VFQ Y1620     -40.612 137.496   9.636  1.00 32.37     0.001 C 
HETATM   16  C16 VFQ Y1620     -33.545 127.750   6.713  1.00 32.37     0.019 C 
HETATM   17  C17 VFQ Y1620     -35.164 129.628   6.880  1.00 32.37     0.019 C 
HETATM   18  C18 VFQ Y1620     -31.598 130.966   9.785  1.00 32.37     0.015 C 
HETATM   19  C19 VFQ Y1620     -36.477 131.160  11.142  1.00 32.37     0.048 C 
HETATM   20  C20 VFQ Y1620     -39.633 135.171  11.322  1.00 32.37     0.048 C 
HETATM   21  O3  VFQ Y1620     -31.314 131.613   5.392  1.00 32.37    -0.396 OA
ATOM     22  H3  VFQ Y1620     -30.789 132.337   5.714  1.00  0.00     0.210 HD
HETATM   23  C21 VFQ Y1620     -50.508 145.146   8.784  1.00 27.76    -0.018 C 
HETATM   24  C22 VFQ Y1620     -51.714 145.974   9.216  1.00 27.76     0.045 C 
HETATM   25  C23 VFQ Y1620     -51.498 147.229  10.053  1.00 27.76     0.123 C 
HETATM   26  C24 VFQ Y1620     -50.223 147.170  10.863  1.00 27.76     0.066 C 
HETATM   27  C25 VFQ Y1620     -49.080 146.813   9.955  1.00 27.76    -0.074 C 
HETATM   28  C26 VFQ Y1620     -49.178 145.806   9.082  1.00 27.76    -0.048 C 
HETATM   29  C27 VFQ Y1620     -47.960 145.342   8.375  1.00 27.76     0.009 C 
HETATM   30  C28 VFQ Y1620     -47.199 144.336   8.822  1.00 27.76     0.007 C 
HETATM   31  C29 VFQ Y1620     -45.975 143.894   8.103  1.00 32.37    -0.062 C 
HETATM   32  C30 VFQ Y1620     -45.382 142.800   8.630  1.00 32.37     0.007 C 
HETATM   33  C31 VFQ Y1620     -44.189 142.137   8.096  1.00 32.37     0.001 C 
HETATM   34  C32 VFQ Y1620     -43.726 141.061   8.740  1.00 32.37     0.007 C 
HETATM   35  C33 VFQ Y1620     -42.532 140.312   8.284  1.00 32.37    -0.062 C 
HETATM   36  C34 VFQ Y1620     -42.115 139.294   9.065  1.00 32.37     0.007 C 
HETATM   37  C35 VFQ Y1620     -40.960 138.446   8.771  1.00 32.37     0.001 C 
HETATM   38  C36 VFQ Y1620     -50.579 144.942   7.278  1.00 27.76     0.020 C 
HETATM   39  C37 VFQ Y1620     -50.629 143.783   9.461  1.00 27.76     0.020 C 
HETATM   40  C38 VFQ Y1620     -47.828 147.635  10.065  1.00 27.76     0.044 C 
HETATM   41  C39 VFQ Y1620     -45.499 144.594   6.854  1.00 32.37     0.048 C 
HETATM   42  C40 VFQ Y1620     -41.886 140.688   6.977  1.00 32.37     0.048 C 
HETATM   43  O23 VFQ Y1620     -52.600 147.398  10.950  1.00 27.76    -0.395 OA
ATOM     44  H23 VFQ Y1620     -52.465 148.181  11.470  1.00  0.00     0.210 HD
ENDROOT
TORSDOF 12
