REMARK VINA RESULT:   -11.635      0.000      0.000
REMARK INTER + INTRA:         -11.978
REMARK INTER:                 -11.635
REMARK INTRA:                  -0.343
REMARK UNBOUND:                -0.343
REMARK  0 active torsions:
REMARK  status: ('A' for Active; 'I' for Inactive)
REMARK       I    between atoms: C3_3  and  O3_21 
REMARK       I    between atoms: C6_6  and  C7_7 
REMARK       I    between atoms: C8_8  and  C9_9 
REMARK       I    between atoms: C10_10  and  C11_11 
REMARK       I    between atoms: C12_12  and  C13_13 
REMARK       I    between atoms: C14_14  and  C15_15 
REMARK       I    between atoms: C23_25  and  O23_43 
REMARK       I    between atoms: C26_28  and  C27_29 
REMARK       I    between atoms: C28_30  and  C29_31 
REMARK       I    between atoms: C30_32  and  C31_33 
REMARK       I    between atoms: C32_34  and  C33_35 
REMARK       I    between atoms: C34_36  and  C35_37 
ROOT
HETATM    1  C1  VFQ g1620     -34.148 128.156   6.980  1.00 66.61    -0.018 C 
HETATM    2  C2  VFQ g1620     -33.410 127.722   5.719  1.00 66.61     0.045 C 
HETATM    3  C3  VFQ g1620     -32.104 128.421   5.374  1.00 66.61     0.123 C 
HETATM    4  C4  VFQ g1620     -31.353 128.842   6.619  1.00 66.61     0.066 C 
HETATM    5  C5  VFQ g1620     -32.251 129.690   7.473  1.00 66.61    -0.074 C 
HETATM    6  C6  VFQ g1620     -33.518 129.331   7.705  1.00 66.61    -0.048 C 
HETATM    7  C7  VFQ g1620     -34.340 130.069   8.698  1.00 66.61     0.009 C 
HETATM    8  C8  VFQ g1620     -35.031 131.159   8.361  1.00 66.61     0.007 C 
HETATM    9  C9  VFQ g1620     -35.861 131.899   9.321  1.00 66.61    -0.062 C 
HETATM   10  C10 VFQ g1620     -36.440 133.023   8.892  1.00 66.61     0.007 C 
HETATM   11  C11 VFQ g1620     -37.298 133.845   9.729  1.00 66.61     0.001 C 
HETATM   12  C12 VFQ g1620     -37.961 134.801   9.093  1.00 66.61     0.007 C 
HETATM   13  C13 VFQ g1620     -38.889 135.721   9.762  1.00 66.61    -0.062 C 
HETATM   14  C14 VFQ g1620     -39.591 136.557   8.991  1.00 66.61     0.007 C 
HETATM   15  C15 VFQ g1620     -40.557 137.494   9.541  1.00 66.61     0.001 C 
HETATM   16  C16 VFQ g1620     -34.245 126.940   7.895  1.00 66.61     0.020 C 
HETATM   17  C17 VFQ g1620     -35.554 128.561   6.569  1.00 66.61     0.020 C 
HETATM   18  C18 VFQ g1620     -31.538 130.721   8.298  1.00 66.61     0.044 C 
HETATM   19  C19 VFQ g1620     -36.054 131.396  10.720  1.00 66.61     0.048 C 
HETATM   20  C20 VFQ g1620     -39.046 135.714  11.253  1.00 66.61     0.048 C 
HETATM   21  O3  VFQ g1620     -31.285 127.510   4.635  1.00 66.61    -0.395 OA
ATOM     22  H3  VFQ g1620     -31.757 127.246   3.854  1.00  0.00     0.210 HD
HETATM   23  C21 VFQ g1620     -50.397 144.879   9.894  1.00 48.79    -0.018 C 
HETATM   24  C22 VFQ g1620     -51.605 145.765  10.169  1.00 49.38     0.045 C 
HETATM   25  C23 VFQ g1620     -51.358 147.059  10.942  1.00 51.85     0.123 C 
HETATM   26  C24 VFQ g1620     -50.128 147.817  10.474  1.00 54.16     0.066 C 
HETATM   27  C25 VFQ g1620     -49.030 146.974   9.886  1.00 52.93    -0.074 C 
HETATM   28  C26 VFQ g1620     -49.181 145.697   9.494  1.00 53.44    -0.048 C 
HETATM   29  C27 VFQ g1620     -48.153 145.060   8.626  1.00 56.18     0.009 C 
HETATM   30  C28 VFQ g1620     -47.201 144.265   9.118  1.00 54.04     0.007 C 
HETATM   31  C29 VFQ g1620     -46.195 143.613   8.282  1.00 66.61    -0.062 C 
HETATM   32  C30 VFQ g1620     -45.556 142.567   8.813  1.00 66.61     0.007 C 
HETATM   33  C31 VFQ g1620     -44.541 141.783   8.122  1.00 66.61     0.001 C 
HETATM   34  C32 VFQ g1620     -43.935 140.859   8.853  1.00 66.61     0.007 C 
HETATM   35  C33 VFQ g1620     -42.906 139.962   8.314  1.00 66.61    -0.062 C 
HETATM   36  C34 VFQ g1620     -42.320 139.104   9.155  1.00 66.61     0.007 C 
HETATM   37  C35 VFQ g1620     -41.310 138.169   8.681  1.00 66.61     0.001 C 
HETATM   38  C36 VFQ g1620     -50.765 143.919   8.766  1.00 50.92     0.020 C 
HETATM   39  C37 VFQ g1620     -50.092 144.039  11.124  1.00 48.05     0.020 C 
HETATM   40  C38 VFQ g1620     -47.735 147.704   9.739  1.00 55.82     0.044 C 
HETATM   41  C39 VFQ g1620     -45.908 144.098   6.892  1.00 66.61     0.048 C 
HETATM   42  C40 VFQ g1620     -42.549 140.011   6.859  1.00 66.61     0.048 C 
HETATM   43  O23 VFQ g1620     -51.293 146.833  12.356  1.00 50.70    -0.395 OA
ATOM     44  H23 VFQ g1620     -51.140 147.638  12.837  1.00  0.00     0.210 HD
ENDROOT
TORSDOF 12
