REMARK VINA RESULT:   -10.272      0.000      0.000
REMARK INTER + INTRA:         -13.155
REMARK INTER:                 -10.272
REMARK INTRA:                  -2.883
REMARK UNBOUND:                -2.883
REMARK  0 active torsions:
REMARK  status: ('A' for Active; 'I' for Inactive)
REMARK       I    between atoms: C3_3  and  O3_21 
REMARK       I    between atoms: C6_6  and  C7_7 
REMARK       I    between atoms: C8_8  and  C9_9 
REMARK       I    between atoms: C10_10  and  C11_11 
REMARK       I    between atoms: C12_12  and  C13_13 
REMARK       I    between atoms: C14_14  and  C15_15 
REMARK       I    between atoms: C23_25  and  O23_43 
REMARK       I    between atoms: C26_28  and  C27_29 
REMARK       I    between atoms: C28_30  and  C29_31 
REMARK       I    between atoms: C30_32  and  C31_33 
REMARK       I    between atoms: C32_34  and  C33_35 
REMARK       I    between atoms: C34_36  and  C35_37 
ROOT
HETATM    1  C1  VFQ N1621     -47.383 145.153  12.439  1.00 48.43    -0.018 C 
HETATM    2  C2  VFQ N1621     -48.064 145.627  13.715  1.00 44.61     0.045 C 
HETATM    3  C3  VFQ N1621     -47.214 146.449  14.663  1.00 44.41     0.123 C 
HETATM    4  C4  VFQ N1621     -46.361 147.435  13.903  1.00 41.53     0.066 C 
HETATM    5  C5  VFQ N1621     -45.474 146.660  12.982  1.00 37.72    -0.074 C 
HETATM    6  C6  VFQ N1621     -45.984 145.701  12.211  1.00 43.52    -0.048 C 
HETATM    7  C7  VFQ N1621     -45.228 145.137  11.069  1.00 44.60     0.009 C 
HETATM    8  C8  VFQ N1621     -44.305 144.196  11.227  1.00 43.22     0.007 C 
HETATM    9  C9  VFQ N1621     -43.606 143.626  10.076  1.00 45.04    -0.062 C 
HETATM   10  C10 VFQ N1621     -42.888 142.541  10.336  1.00 43.71     0.007 C 
HETATM   11  C11 VFQ N1621     -42.157 141.771   9.359  1.00 42.87     0.001 C 
HETATM   12  C12 VFQ N1621     -41.645 140.675   9.882  1.00 44.70     0.007 C 
HETATM   13  C13 VFQ N1621     -40.920 139.677   9.100  1.00 42.63    -0.062 C 
HETATM   14  C14 VFQ N1621     -40.509 138.588   9.752  1.00 42.62     0.007 C 
HETATM   15  C15 VFQ N1621     -39.821 137.519   9.061  1.00 44.33     0.001 C 
HETATM   16  C16 VFQ N1621     -48.336 145.506  11.303  1.00 47.48     0.020 C 
HETATM   17  C17 VFQ N1621     -47.201 143.648  12.495  1.00 54.25     0.020 C 
HETATM   18  C18 VFQ N1621     -44.247 147.423  12.607  1.00 37.77     0.044 C 
HETATM   19  C19 VFQ N1621     -43.723 144.219   8.709  1.00 46.17     0.048 C 
HETATM   20  C20 VFQ N1621     -40.713 139.863   7.629  1.00 40.87     0.048 C 
HETATM   21  O3  VFQ N1621     -48.072 147.171  15.548  1.00 48.83    -0.395 OA
ATOM     22  H3  VFQ N1621     -47.539 147.686  16.142  1.00  0.00     0.210 HD
HETATM   23  C21 VFQ N1621     -33.858 126.452   6.638  1.00 98.00    -0.018 C 
HETATM   24  C22 VFQ N1621     -34.261 125.862   5.290  1.00 98.00     0.045 C 
HETATM   25  C23 VFQ N1621     -33.530 126.470   4.096  1.00 98.00     0.123 C 
HETATM   26  C24 VFQ N1621     -33.623 127.986   4.114  1.00 98.00     0.066 C 
HETATM   27  C25 VFQ N1621     -33.126 128.459   5.451  1.00 98.00    -0.074 C 
HETATM   28  C26 VFQ N1621     -33.658 127.942   6.547  1.00 98.00    -0.048 C 
HETATM   29  C27 VFQ N1621     -34.024 128.810   7.675  1.00 98.00     0.009 C 
HETATM   30  C28 VFQ N1621     -34.982 129.711   7.502  1.00 98.00     0.007 C 
HETATM   31  C29 VFQ N1621     -35.400 130.578   8.604  1.00 54.19    -0.062 C 
HETATM   32  C30 VFQ N1621     -36.508 131.289   8.389  1.00 54.84     0.007 C 
HETATM   33  C31 VFQ N1621     -37.087 132.203   9.352  1.00 51.40     0.001 C 
HETATM   34  C32 VFQ N1621     -37.638 133.282   8.824  1.00 48.08     0.007 C 
HETATM   35  C33 VFQ N1621     -38.269 134.313   9.646  1.00 45.58    -0.062 C 
HETATM   36  C34 VFQ N1621     -38.752 135.397   9.038  1.00 47.58     0.007 C 
HETATM   37  C35 VFQ N1621     -39.412 136.472   9.757  1.00 48.15     0.001 C 
HETATM   38  C36 VFQ N1621     -32.542 125.850   7.105  1.00 98.00     0.020 C 
HETATM   39  C37 VFQ N1621     -34.931 126.118   7.666  1.00 98.00     0.020 C 
HETATM   40  C38 VFQ N1621     -32.009 129.461   5.536  1.00 98.00     0.044 C 
HETATM   41  C39 VFQ N1621     -34.630 130.610   9.885  1.00 53.01     0.048 C 
HETATM   42  C40 VFQ N1621     -38.351 134.130  11.122  1.00 46.34     0.048 C 
HETATM   43  O23 VFQ N1621     -34.092 125.973   2.877  1.00 98.00    -0.395 OA
ATOM     44  H23 VFQ N1621     -34.034 125.025   2.866  1.00  0.00     0.210 HD
ENDROOT
TORSDOF 12
