REMARK VINA RESULT:    -9.230      1.823     16.814
REMARK INTER + INTRA:         -12.454
REMARK INTER:                 -10.762
REMARK INTRA:                  -1.692
REMARK UNBOUND:                -3.224
REMARK  0 active torsions:
REMARK  status: ('A' for Active; 'I' for Inactive)
REMARK       I    between atoms: C3_3  and  O3_21 
REMARK       I    between atoms: C6_6  and  C7_7 
REMARK       I    between atoms: C8_8  and  C9_9 
REMARK       I    between atoms: C10_10  and  C11_11 
REMARK       I    between atoms: C12_12  and  C13_13 
REMARK       I    between atoms: C14_14  and  C15_15 
REMARK       I    between atoms: C23_25  and  O23_43 
REMARK       I    between atoms: C26_28  and  C27_29 
REMARK       I    between atoms: C28_30  and  C29_31 
REMARK       I    between atoms: C30_32  and  C31_33 
REMARK       I    between atoms: C32_34  and  C33_35 
REMARK       I    between atoms: C34_36  and  C35_37 
ROOT
HETATM    1  C1  VFQ N1621     -47.742 145.889  13.034  1.00 51.88    -0.018 C 
HETATM    2  C2  VFQ N1621     -48.419 146.115  14.379  1.00 51.88     0.045 C 
HETATM    3  C3  VFQ N1621     -47.610 146.835  15.436  1.00 51.88     0.123 C 
HETATM    4  C4  VFQ N1621     -46.835 147.966  14.804  1.00 51.88     0.066 C 
HETATM    5  C5  VFQ N1621     -45.919 147.409  13.756  1.00 51.88    -0.074 C 
HETATM    6  C6  VFQ N1621     -46.358 146.495  12.889  1.00 51.88    -0.048 C 
HETATM    7  C7  VFQ N1621     -45.534 146.024  11.744  1.00 51.88     0.009 C 
HETATM    8  C8  VFQ N1621     -44.617 145.063  11.872  1.00 51.88     0.007 C 
HETATM    9  C9  VFQ N1621     -43.815 144.535  10.761  1.00 51.88    -0.062 C 
HETATM   10  C10 VFQ N1621     -43.268 143.340  10.984  1.00 51.88     0.007 C 
HETATM   11  C11 VFQ N1621     -42.465 142.564  10.054  1.00 51.88     0.001 C 
HETATM   12  C12 VFQ N1621     -42.069 141.389  10.525  1.00 51.88     0.007 C 
HETATM   13  C13 VFQ N1621     -41.297 140.431   9.725  1.00 51.88    -0.062 C 
HETATM   14  C14 VFQ N1621     -40.919 139.279  10.294  1.00 51.88     0.007 C 
HETATM   15  C15 VFQ N1621     -40.184 138.268   9.545  1.00 51.88     0.001 C 
HETATM   16  C16 VFQ N1621     -48.685 146.396  11.954  1.00 51.88     0.020 C 
HETATM   17  C17 VFQ N1621     -47.601 144.396  12.851  1.00 51.88     0.020 C 
HETATM   18  C18 VFQ N1621     -44.628 148.146  13.576  1.00 51.88     0.044 C 
HETATM   19  C19 VFQ N1621     -43.634 145.278   9.474  1.00 51.88     0.048 C 
HETATM   20  C20 VFQ N1621     -40.989 140.734   8.291  1.00 51.88     0.048 C 
HETATM   21  O3  VFQ N1621     -48.508 147.396  16.398  1.00 51.88    -0.395 OA
ATOM     22  H3  VFQ N1621     -48.000 147.849  17.061  1.00  0.00     0.210 HD
HETATM   23  C21 VFQ N1621     -34.324 127.092   6.788  1.00 23.41    -0.018 C 
HETATM   24  C22 VFQ N1621     -33.787 126.226   5.634  1.00 23.79     0.045 C 
HETATM   25  C23 VFQ N1621     -32.523 126.634   4.883  1.00 23.28     0.123 C 
HETATM   26  C24 VFQ N1621     -32.158 128.121   5.029  1.00 23.70     0.066 C 
HETATM   27  C25 VFQ N1621     -32.715 128.943   6.157  1.00 23.84    -0.074 C 
HETATM   28  C26 VFQ N1621     -33.723 128.512   6.997  1.00 22.99    -0.048 C 
HETATM   29  C27 VFQ N1621     -34.297 129.308   8.113  1.00 20.55     0.009 C 
HETATM   30  C28 VFQ N1621     -35.237 130.268   7.972  1.00 19.35     0.007 C 
HETATM   31  C29 VFQ N1621     -35.804 131.119   8.981  1.00 51.88    -0.062 C 
HETATM   32  C30 VFQ N1621     -36.802 131.943   8.644  1.00 51.88     0.007 C 
HETATM   33  C31 VFQ N1621     -37.471 132.857   9.561  1.00 51.88     0.001 C 
HETATM   34  C32 VFQ N1621     -37.896 134.016   9.062  1.00 51.88     0.007 C 
HETATM   35  C33 VFQ N1621     -38.588 135.011   9.894  1.00 51.88    -0.062 C 
HETATM   36  C34 VFQ N1621     -39.011 136.169   9.364  1.00 51.88     0.007 C 
HETATM   37  C35 VFQ N1621     -39.718 137.177  10.150  1.00 51.88     0.001 C 
HETATM   38  C36 VFQ N1621     -34.191 126.272   8.079  1.00 23.73     0.020 C 
HETATM   39  C37 VFQ N1621     -35.813 127.182   6.436  1.00 23.42     0.020 C 
HETATM   40  C38 VFQ N1621     -32.002 130.245   6.209  1.00 22.78     0.044 C 
HETATM   41  C39 VFQ N1621     -35.260 131.054  10.375  1.00 51.88     0.048 C 
HETATM   42  C40 VFQ N1621     -38.808 134.700  11.332  1.00 51.88     0.048 C 
HETATM   43  O23 VFQ N1621     -32.633 126.280   3.511  1.00 21.52    -0.395 OA
ATOM     44  H23 VFQ N1621     -31.846 126.534   3.043  1.00  0.00     0.210 HD
ENDROOT
TORSDOF 12
