REMARK VINA RESULT:   -10.378      0.000      0.000
REMARK INTER + INTRA:         -10.635
REMARK INTER:                 -10.378
REMARK INTRA:                  -0.257
REMARK UNBOUND:                -0.257
REMARK  0 active torsions:
REMARK  status: ('A' for Active; 'I' for Inactive)
REMARK       I    between atoms: C3_3  and  O3_21 
REMARK       I    between atoms: C6_6  and  C7_7 
REMARK       I    between atoms: C8_8  and  C9_9 
REMARK       I    between atoms: C10_10  and  C11_11 
REMARK       I    between atoms: C12_12  and  C13_13 
REMARK       I    between atoms: C14_14  and  C15_15 
REMARK       I    between atoms: C23_25  and  O23_43 
REMARK       I    between atoms: C26_28  and  C27_29 
REMARK       I    between atoms: C28_30  and  C29_31 
REMARK       I    between atoms: C30_32  and  C31_33 
REMARK       I    between atoms: C32_34  and  C33_35 
REMARK       I    between atoms: C34_36  and  C35_37 
ROOT
HETATM    1  C1  VFQ n1620     -50.145 144.616  12.263  1.00 57.79    -0.018 C 
HETATM    2  C2  VFQ n1620     -51.017 145.315  13.292  1.00 59.26     0.045 C 
HETATM    3  C3  VFQ n1620     -50.225 146.010  14.377  1.00 62.25     0.123 C 
HETATM    4  C4  VFQ n1620     -49.343 147.058  13.747  1.00 57.83     0.066 C 
HETATM    5  C5  VFQ n1620     -48.498 146.475  12.648  1.00 54.66    -0.074 C 
HETATM    6  C6  VFQ n1620     -48.854 145.369  11.958  1.00 55.29    -0.048 C 
HETATM    7  C7  VFQ n1620     -48.009 144.887  10.833  1.00 55.61     0.009 C 
HETATM    8  C8  VFQ n1620     -46.956 144.088  11.010  1.00 56.19     0.007 C 
HETATM    9  C9  VFQ n1620     -46.126 143.607   9.908  1.00 61.49    -0.062 C 
HETATM   10  C10 VFQ n1620     -45.165 142.757  10.254  1.00 57.47     0.007 C 
HETATM   11  C11 VFQ n1620     -44.234 142.145   9.331  1.00 53.29     0.001 C 
HETATM   12  C12 VFQ n1620     -43.451 141.248   9.901  1.00 52.45     0.007 C 
HETATM   13  C13 VFQ n1620     -42.464 140.488   9.139  1.00 52.04    -0.062 C 
HETATM   14  C14 VFQ n1620     -41.916 139.443   9.758  1.00 54.29     0.007 C 
HETATM   15  C15 VFQ n1620     -40.952 138.570   9.120  1.00 53.12     0.001 C 
HETATM   16  C16 VFQ n1620     -51.039 144.404  11.047  1.00 58.39     0.020 C 
HETATM   17  C17 VFQ n1620     -49.754 143.250  12.804  1.00 64.45     0.020 C 
HETATM   18  C18 VFQ n1620     -47.250 147.266  12.381  1.00 58.11     0.044 C 
HETATM   19  C19 VFQ n1620     -46.344 144.069   8.497  1.00 70.55     0.048 C 
HETATM   20  C20 VFQ n1620     -42.120 140.866   7.735  1.00 53.04     0.048 C 
HETATM   21  O3  VFQ n1620     -51.115 146.661  15.284  1.00 65.91    -0.395 OA
ATOM     22  H3  VFQ n1620     -50.618 147.098  15.966  1.00  0.00     0.210 HD
HETATM   23  C21 VFQ n1620     -34.099 128.128   7.076  1.00 17.81    -0.018 C 
HETATM   24  C22 VFQ n1620     -33.304 127.460   5.933  1.00 18.03     0.045 C 
HETATM   25  C23 VFQ n1620     -31.820 127.803   5.857  1.00 19.41     0.123 C 
HETATM   26  C24 VFQ n1620     -31.559 129.302   5.995  1.00 18.47     0.066 C 
HETATM   27  C25 VFQ n1620     -32.352 130.006   7.047  1.00 18.29    -0.074 C 
HETATM   28  C26 VFQ n1620     -33.532 129.494   7.574  1.00 18.07    -0.048 C 
HETATM   29  C27 VFQ n1620     -34.291 130.219   8.620  1.00 17.25     0.009 C 
HETATM   30  C28 VFQ n1620     -35.124 131.259   8.434  1.00 17.01     0.007 C 
HETATM   31  C29 VFQ n1620     -35.771 132.044   9.455  1.00 71.47    -0.062 C 
HETATM   32  C30 VFQ n1620     -36.707 132.898   9.049  1.00 69.97     0.007 C 
HETATM   33  C31 VFQ n1620     -37.491 133.752   9.920  1.00 65.68     0.001 C 
HETATM   34  C32 VFQ n1620     -38.236 134.629   9.275  1.00 62.75     0.007 C 
HETATM   35  C33 VFQ n1620     -39.131 135.564   9.962  1.00 61.08    -0.062 C 
HETATM   36  C34 VFQ n1620     -39.679 136.536   9.230  1.00 59.90     0.007 C 
HETATM   37  C35 VFQ n1620     -40.610 137.489   9.801  1.00 55.64     0.001 C 
HETATM   38  C36 VFQ n1620     -34.238 127.151   8.251  1.00 16.04     0.020 C 
HETATM   39  C37 VFQ n1620     -35.492 128.303   6.469  1.00 17.79     0.020 C 
HETATM   40  C38 VFQ n1620     -31.628 131.269   7.360  1.00 17.18     0.044 C 
HETATM   41  C39 VFQ n1620     -35.401 131.881  10.896  1.00 74.91     0.048 C 
HETATM   42  C40 VFQ n1620     -39.428 135.401  11.420  1.00 55.73     0.048 C 
HETATM   43  O23 VFQ n1620     -31.250 127.310   4.651  1.00 19.31    -0.395 OA
ATOM     44  H23 VFQ n1620     -31.412 126.377   4.565  1.00  0.00     0.210 HD
ENDROOT
TORSDOF 12
