REMARK VINA RESULT:    -7.351      1.663      2.376
REMARK INTER + INTRA:          -9.319
REMARK INTER:                  -4.238
REMARK INTRA:                  -5.080
REMARK UNBOUND:                -1.968
REMARK  0 active torsions:
REMARK  status: ('A' for Active; 'I' for Inactive)
REMARK       I    between atoms: C3_3  and  O3_21 
REMARK       I    between atoms: C6_6  and  C7_7 
REMARK       I    between atoms: C8_8  and  C9_9 
REMARK       I    between atoms: C10_10  and  C11_11 
REMARK       I    between atoms: C12_12  and  C13_13 
REMARK       I    between atoms: C14_14  and  C15_15 
REMARK       I    between atoms: C23_25  and  O23_43 
REMARK       I    between atoms: C26_28  and  C27_29 
REMARK       I    between atoms: C28_30  and  C29_31 
REMARK       I    between atoms: C30_32  and  C31_33 
REMARK       I    between atoms: C32_34  and  C33_35 
REMARK       I    between atoms: C34_36  and  C35_37 
ROOT
HETATM    1  C1  VFQ 8 617     -48.743 147.316   9.372  1.00 16.39    -0.018 C 
HETATM    2  C2  VFQ 8 617     -50.253 147.405   9.542  1.00 16.39     0.045 C 
HETATM    3  C3  VFQ 8 617     -50.831 147.285  10.945  1.00 16.39     0.123 C 
HETATM    4  C4  VFQ 8 617     -49.886 147.808  12.002  1.00 16.39     0.066 C 
HETATM    5  C5  VFQ 8 617     -48.568 147.115  11.850  1.00 16.39    -0.074 C 
HETATM    6  C6  VFQ 8 617     -47.984 147.026  10.655  1.00 16.39    -0.048 C 
HETATM    7  C7  VFQ 8 617     -46.546 146.680  10.574  1.00 16.39     0.009 C 
HETATM    8  C8  VFQ 8 617     -46.106 145.423  10.502  1.00 16.39     0.007 C 
HETATM    9  C9  VFQ 8 617     -44.666 145.137  10.429  1.00 16.39    -0.062 C 
HETATM   10  C10 VFQ 8 617     -44.280 143.847  10.390  1.00 16.39     0.007 C 
HETATM   11  C11 VFQ 8 617     -42.916 143.329  10.315  1.00 16.39     0.001 C 
HETATM   12  C12 VFQ 8 617     -42.807 142.008  10.226  1.00 16.39     0.007 C 
HETATM   13  C13 VFQ 8 617     -41.550 141.249  10.090  1.00 16.39    -0.062 C 
HETATM   14  C14 VFQ 8 617     -41.658 139.935   9.878  1.00 16.39     0.007 C 
HETATM   15  C15 VFQ 8 617     -40.498 139.087   9.663  1.00 16.39     0.001 C 
HETATM   16  C16 VFQ 8 617     -48.291 148.618   8.725  1.00 16.39     0.020 C 
HETATM   17  C17 VFQ 8 617     -48.444 146.171   8.417  1.00 16.39     0.020 C 
HETATM   18  C18 VFQ 8 617     -47.771 147.182  13.120  1.00 16.39     0.044 C 
HETATM   19  C19 VFQ 8 617     -43.716 146.290  10.414  1.00 16.39     0.048 C 
HETATM   20  C20 VFQ 8 617     -40.205 141.902  10.137  1.00 16.39     0.048 C 
HETATM   21  O3  VFQ 8 617     -52.046 148.036  11.004  1.00 16.39    -0.395 OA
ATOM     22  H3  VFQ 8 617     -52.407 147.961  11.880  1.00  0.00     0.210 HD
HETATM   23  C21 VFQ 8 617     -34.346 128.585   5.860  1.00 47.88    -0.018 C 
HETATM   24  C22 VFQ 8 617     -32.938 128.603   5.296  1.00 47.88     0.045 C 
HETATM   25  C23 VFQ 8 617     -31.950 128.115   6.335  1.00 47.88     0.123 C 
HETATM   26  C24 VFQ 8 617     -31.920 129.104   7.485  1.00 47.88     0.066 C 
HETATM   27  C25 VFQ 8 617     -33.310 129.315   8.022  1.00 47.88    -0.074 C 
HETATM   28  C26 VFQ 8 617     -34.393 129.213   7.239  1.00 47.88    -0.048 C 
HETATM   29  C27 VFQ 8 617     -35.696 129.702   7.732  1.00 47.88     0.009 C 
HETATM   30  C28 VFQ 8 617     -35.991 130.998   7.726  1.00 47.88     0.007 C 
HETATM   31  C29 VFQ 8 617     -37.313 131.469   8.210  1.00 16.39    -0.062 C 
HETATM   32  C30 VFQ 8 617     -37.519 132.771   8.049  1.00 16.39     0.007 C 
HETATM   33  C31 VFQ 8 617     -38.738 133.467   8.415  1.00 16.39     0.001 C 
HETATM   34  C32 VFQ 8 617     -38.641 134.782   8.540  1.00 16.39     0.007 C 
HETATM   35  C33 VFQ 8 617     -39.798 135.613   8.878  1.00 16.39    -0.062 C 
HETATM   36  C34 VFQ 8 617     -39.608 136.922   9.072  1.00 16.39     0.007 C 
HETATM   37  C35 VFQ 8 617     -40.719 137.813   9.364  1.00 16.39     0.001 C 
HETATM   38  C36 VFQ 8 617     -34.830 127.146   5.969  1.00 47.88     0.020 C 
HETATM   39  C37 VFQ 8 617     -35.255 129.330   4.891  1.00 47.88     0.020 C 
HETATM   40  C38 VFQ 8 617     -33.431 129.641   9.482  1.00 47.88     0.044 C 
HETATM   41  C39 VFQ 8 617     -38.354 130.576   8.817  1.00 16.39     0.048 C 
HETATM   42  C40 VFQ 8 617     -41.149 134.981   8.994  1.00 16.39     0.048 C 
HETATM   43  O23 VFQ 8 617     -30.652 128.002   5.752  1.00 47.88    -0.395 OA
ATOM     44  H23 VFQ 8 617     -30.032 127.696   6.404  1.00  0.00     0.210 HD
ENDROOT
TORSDOF 12
