REMARK VINA RESULT:   -11.712      0.000      0.000
REMARK INTER + INTRA:         -14.069
REMARK INTER:                 -11.712
REMARK INTRA:                  -2.357
REMARK UNBOUND:                -2.357
REMARK  0 active torsions:
REMARK  status: ('A' for Active; 'I' for Inactive)
REMARK       I    between atoms: C3_3  and  O3_21 
REMARK       I    between atoms: C6_6  and  C7_7 
REMARK       I    between atoms: C8_8  and  C9_9 
REMARK       I    between atoms: C10_10  and  C11_11 
REMARK       I    between atoms: C12_12  and  C13_13 
REMARK       I    between atoms: C14_14  and  C15_15 
REMARK       I    between atoms: C23_25  and  O23_43 
REMARK       I    between atoms: C26_28  and  C27_29 
REMARK       I    between atoms: C28_30  and  C29_31 
REMARK       I    between atoms: C30_32  and  C31_33 
REMARK       I    between atoms: C32_34  and  C33_35 
REMARK       I    between atoms: C34_36  and  C35_37 
ROOT
HETATM    1  C1  VFQ y1621     -47.574 145.673  12.801  1.00 26.19    -0.018 C 
HETATM    2  C2  VFQ y1621     -48.340 146.236  13.992  1.00 26.65     0.045 C 
HETATM    3  C3  VFQ y1621     -47.535 146.959  15.056  1.00 28.07     0.123 C 
HETATM    4  C4  VFQ y1621     -46.438 147.795  14.449  1.00 30.07     0.066 C 
HETATM    5  C5  VFQ y1621     -45.569 146.920  13.605  1.00 28.83    -0.074 C 
HETATM    6  C6  VFQ y1621     -46.115 146.094  12.707  1.00 27.49    -0.048 C 
HETATM    7  C7  VFQ y1621     -45.330 145.549  11.571  1.00 29.45     0.009 C 
HETATM    8  C8  VFQ y1621     -44.412 144.594  11.726  1.00 27.83     0.007 C 
HETATM    9  C9  VFQ y1621     -43.664 144.024  10.599  1.00 26.06    -0.062 C 
HETATM   10  C10 VFQ y1621     -43.035 142.880  10.849  1.00 25.01     0.007 C 
HETATM   11  C11 VFQ y1621     -42.288 142.120   9.871  1.00 25.09     0.001 C 
HETATM   12  C12 VFQ y1621     -41.776 140.994  10.331  1.00 26.01     0.007 C 
HETATM   13  C13 VFQ y1621     -41.049 140.044   9.490  1.00 26.36    -0.062 C 
HETATM   14  C14 VFQ y1621     -40.660 138.895  10.049  1.00 27.67     0.007 C 
HETATM   15  C15 VFQ y1621     -39.968 137.879   9.274  1.00 28.38     0.001 C 
HETATM   16  C16 VFQ y1621     -48.347 146.138  11.580  1.00 26.46     0.020 C 
HETATM   17  C17 VFQ y1621     -47.600 144.153  12.873  1.00 26.61     0.020 C 
HETATM   18  C18 VFQ y1621     -44.324 147.702  13.347  1.00 29.43     0.044 C 
HETATM   19  C19 VFQ y1621     -43.632 144.683   9.256  1.00 26.07     0.048 C 
HETATM   20  C20 VFQ y1621     -40.811 140.336   8.041  1.00 25.83     0.048 C 
HETATM   21  O3  VFQ y1621     -48.409 147.810  15.793  1.00 27.44    -0.395 OA
ATOM     22  H3  VFQ y1621     -47.905 148.263  16.459  1.00  0.00     0.210 HD
HETATM   23  C21 VFQ y1621     -34.393 126.699   6.515  1.00 78.53    -0.018 C 
HETATM   24  C22 VFQ y1621     -33.739 125.850   5.418  1.00 78.53     0.045 C 
HETATM   25  C23 VFQ y1621     -32.696 126.515   4.518  1.00 78.53     0.123 C 
HETATM   26  C24 VFQ y1621     -32.963 128.002   4.349  1.00 78.53     0.066 C 
HETATM   27  C25 VFQ y1621     -32.995 128.589   5.729  1.00 78.53    -0.074 C 
HETATM   28  C26 VFQ y1621     -33.887 128.127   6.600  1.00 78.53    -0.048 C 
HETATM   29  C27 VFQ y1621     -34.375 128.992   7.697  1.00 78.53     0.009 C 
HETATM   30  C28 VFQ y1621     -35.264 129.967   7.500  1.00 78.53     0.007 C 
HETATM   31  C29 VFQ y1621     -35.723 130.792   8.629  1.00 29.73    -0.062 C 
HETATM   32  C30 VFQ y1621     -36.770 131.569   8.376  1.00 28.64     0.007 C 
HETATM   33  C31 VFQ y1621     -37.367 132.463   9.344  1.00 27.79     0.001 C 
HETATM   34  C32 VFQ y1621     -37.873 133.572   8.832  1.00 27.11     0.007 C 
HETATM   35  C33 VFQ y1621     -38.522 134.591   9.654  1.00 25.78    -0.062 C 
HETATM   36  C34 VFQ y1621     -38.963 135.713   9.083  1.00 26.10     0.007 C 
HETATM   37  C35 VFQ y1621     -39.633 136.742   9.862  1.00 27.22     0.001 C 
HETATM   38  C36 VFQ y1621     -34.114 126.051   7.866  1.00 78.53     0.020 C 
HETATM   39  C37 VFQ y1621     -35.898 126.692   6.264  1.00 78.53     0.020 C 
HETATM   40  C38 VFQ y1621     -32.001 129.652   6.102  1.00 78.53     0.044 C 
HETATM   41  C39 VFQ y1621     -35.048 130.743   9.959  1.00 32.37     0.048 C 
HETATM   42  C40 VFQ y1621     -38.685 134.345  11.111  1.00 25.14     0.048 C 
HETATM   43  O23 VFQ y1621     -32.717 125.888   3.231  1.00 78.53    -0.395 OA
ATOM     44  H23 VFQ y1621     -32.069 126.301   2.672  1.00  0.00     0.210 HD
ENDROOT
TORSDOF 12
