REMARK VINA RESULT:    -7.449      2.089     16.702
REMARK INTER + INTRA:          -9.526
REMARK INTER:                  -9.175
REMARK INTRA:                  -0.351
REMARK UNBOUND:                -2.077
REMARK  0 active torsions:
REMARK  status: ('A' for Active; 'I' for Inactive)
REMARK       I    between atoms: C3_3  and  O3_21 
REMARK       I    between atoms: C6_6  and  C7_7 
REMARK       I    between atoms: C8_8  and  C9_9 
REMARK       I    between atoms: C10_10  and  C11_11 
REMARK       I    between atoms: C12_12  and  C13_13 
REMARK       I    between atoms: C14_14  and  C15_15 
REMARK       I    between atoms: C23_25  and  O23_43 
REMARK       I    between atoms: C26_28  and  C27_29 
REMARK       I    between atoms: C28_30  and  C29_31 
REMARK       I    between atoms: C30_32  and  C31_33 
REMARK       I    between atoms: C32_34  and  C33_35 
REMARK       I    between atoms: C34_36  and  C35_37 
ROOT
HETATM    1  C1  VFQ 8 618     -34.352 128.362   6.531  1.00 13.13    -0.018 C 
HETATM    2  C2  VFQ 8 618     -33.451 127.587   5.580  1.00 13.13     0.045 C 
HETATM    3  C3  VFQ 8 618     -32.159 128.280   5.214  1.00 13.13     0.123 C 
HETATM    4  C4  VFQ 8 618     -31.439 128.701   6.469  1.00 13.13     0.066 C 
HETATM    5  C5  VFQ 8 618     -32.316 129.563   7.333  1.00 13.13    -0.074 C 
HETATM    6  C6  VFQ 8 618     -33.642 129.365   7.428  1.00 13.13    -0.048 C 
HETATM    7  C7  VFQ 8 618     -34.471 130.066   8.449  1.00 13.13     0.009 C 
HETATM    8  C8  VFQ 8 618     -34.936 131.317   8.329  1.00 13.13     0.007 C 
HETATM    9  C9  VFQ 8 618     -35.768 131.956   9.365  1.00 13.13    -0.062 C 
HETATM   10  C10 VFQ 8 618     -36.519 132.995   8.992  1.00 13.13     0.007 C 
HETATM   11  C11 VFQ 8 618     -37.421 133.731   9.868  1.00 13.13     0.001 C 
HETATM   12  C12 VFQ 8 618     -38.256 134.519   9.208  1.00 13.13     0.007 C 
HETATM   13  C13 VFQ 8 618     -39.313 135.379   9.760  1.00 13.13    -0.062 C 
HETATM   14  C14 VFQ 8 618     -39.868 136.288   8.945  1.00 13.13     0.007 C 
HETATM   15  C15 VFQ 8 618     -40.947 137.154   9.391  1.00 13.13     0.001 C 
HETATM   16  C16 VFQ 8 618     -35.071 127.306   7.353  1.00 13.13     0.020 C 
HETATM   17  C17 VFQ 8 618     -35.353 129.150   5.702  1.00 13.13     0.020 C 
HETATM   18  C18 VFQ 8 618     -31.547 130.398   8.310  1.00 13.13     0.044 C 
HETATM   19  C19 VFQ 8 618     -35.775 131.461  10.779  1.00 13.13     0.048 C 
HETATM   20  C20 VFQ 8 618     -39.788 135.226  11.168  1.00 13.13     0.048 C 
HETATM   21  O3  VFQ 8 618     -31.334 127.351   4.511  1.00 13.13    -0.395 OA
ATOM     22  H3  VFQ 8 618     -31.788 127.086   3.721  1.00  0.00     0.210 HD
HETATM   23  C21 VFQ 8 618     -50.460 145.809   9.166  1.00 47.88    -0.018 C 
HETATM   24  C22 VFQ 8 618     -51.670 145.785  10.080  1.00 47.88     0.045 C 
HETATM   25  C23 VFQ 8 618     -51.409 146.623  11.315  1.00 47.88     0.123 C 
HETATM   26  C24 VFQ 8 618     -50.300 145.975  12.123  1.00 47.88     0.066 C 
HETATM   27  C25 VFQ 8 618     -49.084 145.774  11.259  1.00 47.88    -0.074 C 
HETATM   28  C26 VFQ 8 618     -49.181 145.560   9.940  1.00 47.88    -0.048 C 
HETATM   29  C27 VFQ 8 618     -48.000 145.087   9.190  1.00 47.88     0.009 C 
HETATM   30  C28 VFQ 8 618     -47.629 143.811   9.224  1.00 47.88     0.007 C 
HETATM   31  C29 VFQ 8 618     -46.449 143.360   8.451  1.00 13.13    -0.062 C 
HETATM   32  C30 VFQ 8 618     -45.994 142.146   8.762  1.00 13.13     0.007 C 
HETATM   33  C31 VFQ 8 618     -44.866 141.493   8.121  1.00 13.13     0.001 C 
HETATM   34  C32 VFQ 8 618     -44.185 140.630   8.862  1.00 13.13     0.007 C 
HETATM   35  C33 VFQ 8 618     -43.042 139.889   8.320  1.00 13.13    -0.062 C 
HETATM   36  C34 VFQ 8 618     -42.613 138.821   8.996  1.00 13.13     0.007 C 
HETATM   37  C35 VFQ 8 618     -41.511 137.994   8.535  1.00 13.13     0.001 C 
HETATM   38  C36 VFQ 8 618     -50.359 147.171   8.494  1.00 47.88     0.020 C 
HETATM   39  C37 VFQ 8 618     -50.659 144.751   8.088  1.00 47.88     0.020 C 
HETATM   40  C38 VFQ 8 618     -47.750 145.828  11.945  1.00 47.88     0.044 C 
HETATM   41  C39 VFQ 8 618     -45.827 144.199   7.379  1.00 13.13     0.048 C 
HETATM   42  C40 VFQ 8 618     -42.386 140.316   7.049  1.00 13.13     0.048 C 
HETATM   43  O23 VFQ 8 618     -52.599 146.709  12.099  1.00 47.88    -0.395 OA
ATOM     44  H23 VFQ 8 618     -52.436 147.234  12.874  1.00  0.00     0.210 HD
ENDROOT
TORSDOF 12
