REMARK VINA RESULT:    -7.492      1.499     16.858
REMARK INTER + INTRA:         -10.764
REMARK INTER:                 -10.406
REMARK INTRA:                  -0.358
REMARK UNBOUND:                -3.272
REMARK  0 active torsions:
REMARK  status: ('A' for Active; 'I' for Inactive)
REMARK       I    between atoms: C3_3  and  O3_21 
REMARK       I    between atoms: C6_6  and  C7_7 
REMARK       I    between atoms: C8_8  and  C9_9 
REMARK       I    between atoms: C10_10  and  C11_11 
REMARK       I    between atoms: C12_12  and  C13_13 
REMARK       I    between atoms: C14_14  and  C15_15 
REMARK       I    between atoms: C23_25  and  O23_43 
REMARK       I    between atoms: C26_28  and  C27_29 
REMARK       I    between atoms: C28_30  and  C29_31 
REMARK       I    between atoms: C30_32  and  C31_33 
REMARK       I    between atoms: C32_34  and  C33_35 
REMARK       I    between atoms: C34_36  and  C35_37 
ROOT
HETATM    1  C1  VFQ N1621     -49.308 145.753  12.107  1.00 51.88    -0.018 C 
HETATM    2  C2  VFQ N1621     -50.170 145.880  13.355  1.00 51.88     0.045 C 
HETATM    3  C3  VFQ N1621     -49.561 146.606  14.534  1.00 51.88     0.123 C 
HETATM    4  C4  VFQ N1621     -48.787 147.809  14.049  1.00 51.88     0.066 C 
HETATM    5  C5  VFQ N1621     -47.705 147.354  13.117  1.00 51.88    -0.074 C 
HETATM    6  C6  VFQ N1621     -47.961 146.451  12.169  1.00 51.88    -0.048 C 
HETATM    7  C7  VFQ N1621     -46.962 146.082  11.132  1.00 51.88     0.009 C 
HETATM    8  C8  VFQ N1621     -46.007 145.177  11.351  1.00 51.88     0.007 C 
HETATM    9  C9  VFQ N1621     -45.030 144.747  10.342  1.00 51.88    -0.062 C 
HETATM   10  C10 VFQ N1621     -44.437 143.581  10.598  1.00 51.88     0.007 C 
HETATM   11  C11 VFQ N1621     -43.467 142.896   9.760  1.00 51.88     0.001 C 
HETATM   12  C12 VFQ N1621     -43.057 141.730  10.243  1.00 51.88     0.007 C 
HETATM   13  C13 VFQ N1621     -42.122 140.857   9.523  1.00 51.88    -0.062 C 
HETATM   14  C14 VFQ N1621     -41.744 139.709  10.100  1.00 51.88     0.007 C 
HETATM   15  C15 VFQ N1621     -40.849 138.779   9.425  1.00 51.88     0.001 C 
HETATM   16  C16 VFQ N1621     -50.131 146.243  10.926  1.00 51.88     0.020 C 
HETATM   17  C17 VFQ N1621     -49.041 144.281  11.896  1.00 51.88     0.020 C 
HETATM   18  C18 VFQ N1621     -46.455 148.179  13.137  1.00 51.88     0.044 C 
HETATM   19  C19 VFQ N1621     -44.732 145.552   9.117  1.00 51.88     0.048 C 
HETATM   20  C20 VFQ N1621     -41.648 141.238   8.155  1.00 51.88     0.048 C 
HETATM   21  O3  VFQ N1621     -50.614 147.068  15.383  1.00 51.88    -0.395 OA
ATOM     22  H3  VFQ N1621     -50.231 147.524  16.124  1.00  0.00     0.210 HD
HETATM   23  C21 VFQ N1621     -33.937 128.077   7.321  1.00 27.67    -0.018 C 
HETATM   24  C22 VFQ N1621     -32.983 127.252   6.459  1.00 27.67     0.045 C 
HETATM   25  C23 VFQ N1621     -31.720 127.945   5.969  1.00 27.67     0.123 C 
HETATM   26  C24 VFQ N1621     -31.998 129.390   5.617  1.00 27.67     0.066 C 
HETATM   27  C25 VFQ N1621     -32.497 130.053   6.866  1.00 27.67    -0.074 C 
HETATM   28  C26 VFQ N1621     -33.516 129.520   7.542  1.00 27.67    -0.048 C 
HETATM   29  C27 VFQ N1621     -34.258 130.311   8.554  1.00 27.67     0.009 C 
HETATM   30  C28 VFQ N1621     -35.209 131.183   8.216  1.00 27.67     0.007 C 
HETATM   31  C29 VFQ N1621     -35.953 131.952   9.226  1.00 51.88    -0.062 C 
HETATM   32  C30 VFQ N1621     -36.952 132.725   8.784  1.00 51.88     0.007 C 
HETATM   33  C31 VFQ N1621     -37.798 133.555   9.631  1.00 51.88     0.001 C 
HETATM   34  C32 VFQ N1621     -38.231 134.705   9.118  1.00 51.88     0.007 C 
HETATM   35  C33 VFQ N1621     -39.094 135.618   9.881  1.00 51.88    -0.062 C 
HETATM   36  C34 VFQ N1621     -39.522 136.768   9.336  1.00 51.88     0.007 C 
HETATM   37  C35 VFQ N1621     -40.394 137.696  10.052  1.00 51.88     0.001 C 
HETATM   38  C36 VFQ N1621     -34.018 127.423   8.692  1.00 27.67     0.020 C 
HETATM   39  C37 VFQ N1621     -35.315 128.003   6.669  1.00 27.67     0.020 C 
HETATM   40  C38 VFQ N1621     -31.794 131.298   7.317  1.00 27.67     0.044 C 
HETATM   41  C39 VFQ N1621     -35.596 131.864  10.677  1.00 51.88     0.048 C 
HETATM   42  C40 VFQ N1621     -39.481 135.235  11.264  1.00 51.88     0.048 C 
HETATM   43  O23 VFQ N1621     -31.240 127.263   4.809  1.00 27.67    -0.395 OA
ATOM     44  H23 VFQ N1621     -30.452 127.695   4.503  1.00  0.00     0.210 HD
ENDROOT
TORSDOF 12
