REMARK VINA RESULT:    -6.791      1.193     16.377
REMARK INTER + INTRA:          -9.748
REMARK INTER:                  -9.830
REMARK INTRA:                   0.081
REMARK UNBOUND:                -2.957
REMARK  0 active torsions:
REMARK  status: ('A' for Active; 'I' for Inactive)
REMARK       I    between atoms: C3_3  and  O3_21 
REMARK       I    between atoms: C6_6  and  C7_7 
REMARK       I    between atoms: C8_8  and  C9_9 
REMARK       I    between atoms: C10_10  and  C11_11 
REMARK       I    between atoms: C12_12  and  C13_13 
REMARK       I    between atoms: C14_14  and  C15_15 
REMARK       I    between atoms: C23_25  and  O23_43 
REMARK       I    between atoms: C26_28  and  C27_29 
REMARK       I    between atoms: C28_30  and  C29_31 
REMARK       I    between atoms: C30_32  and  C31_33 
REMARK       I    between atoms: C32_34  and  C33_35 
REMARK       I    between atoms: C34_36  and  C35_37 
ROOT
HETATM    1  C1  VFQ 11620     -49.888 144.200  11.848  1.00 94.67    -0.018 C 
HETATM    2  C2  VFQ 11620     -50.457 144.505  13.227  1.00 94.67     0.045 C 
HETATM    3  C3  VFQ 11620     -49.727 145.549  14.045  1.00 94.67     0.123 C 
HETATM    4  C4  VFQ 11620     -49.388 146.716  13.158  1.00 94.67     0.066 C 
HETATM    5  C5  VFQ 11620     -48.509 146.260  12.036  1.00 94.67    -0.074 C 
HETATM    6  C6  VFQ 11620     -48.745 145.100  11.419  1.00 94.67    -0.048 C 
HETATM    7  C7  VFQ 11620     -47.902 144.660  10.281  1.00 94.67     0.009 C 
HETATM    8  C8  VFQ 11620     -46.792 143.952  10.480  1.00 94.67     0.007 C 
HETATM    9  C9  VFQ 11620     -45.941 143.479   9.389  1.00 94.67    -0.062 C 
HETATM   10  C10 VFQ 11620     -44.906 142.727   9.750  1.00 94.67     0.007 C 
HETATM   11  C11 VFQ 11620     -43.959 142.138   8.823  1.00 94.67     0.001 C 
HETATM   12  C12 VFQ 11620     -43.255 141.162   9.372  1.00 94.67     0.007 C 
HETATM   13  C13 VFQ 11620     -42.249 140.376   8.662  1.00 94.67    -0.062 C 
HETATM   14  C14 VFQ 11620     -41.707 139.365   9.338  1.00 94.67     0.007 C 
HETATM   15  C15 VFQ 11620     -40.719 138.457   8.779  1.00 94.67     0.001 C 
HETATM   16  C16 VFQ 11620     -51.062 144.300  10.879  1.00 94.67     0.020 C 
HETATM   17  C17 VFQ 11620     -49.353 142.777  11.875  1.00 94.67     0.020 C 
HETATM   18  C18 VFQ 11620     -47.412 147.197  11.626  1.00 94.67     0.044 C 
HETATM   19  C19 VFQ 11620     -46.229 143.820   7.960  1.00 94.67     0.048 C 
HETATM   20  C20 VFQ 11620     -41.877 140.684   7.247  1.00 94.67     0.048 C 
HETATM   21  O3  VFQ 11620     -50.599 146.013  15.077  1.00 94.67    -0.395 OA
ATOM     22  H3  VFQ 11620     -50.813 145.276  15.637  1.00  0.00     0.210 HD
HETATM   23  C21 VFQ 11620     -34.112 128.314   6.849  1.00 72.69    -0.018 C 
HETATM   24  C22 VFQ 11620     -33.133 127.482   6.021  1.00 72.50     0.045 C 
HETATM   25  C23 VFQ 11620     -31.673 127.925   5.986  1.00 72.53     0.123 C 
HETATM   26  C24 VFQ 11620     -31.518 129.423   6.179  1.00 73.67     0.066 C 
HETATM   27  C25 VFQ 11620     -32.238 129.847   7.428  1.00 74.71    -0.074 C 
HETATM   28  C26 VFQ 11620     -33.471 129.407   7.678  1.00 74.26    -0.048 C 
HETATM   29  C27 VFQ 11620     -34.271 130.002   8.770  1.00 75.37     0.009 C 
HETATM   30  C28 VFQ 11620     -34.940 131.136   8.555  1.00 77.10     0.007 C 
HETATM   31  C29 VFQ 11620     -35.764 131.769   9.592  1.00 94.67    -0.062 C 
HETATM   32  C30 VFQ 11620     -36.556 132.752   9.168  1.00 94.67     0.007 C 
HETATM   33  C31 VFQ 11620     -37.460 133.530   9.996  1.00 94.67     0.001 C 
HETATM   34  C32 VFQ 11620     -37.958 134.559   9.334  1.00 94.67     0.007 C 
HETATM   35  C33 VFQ 11620     -38.895 135.533   9.891  1.00 94.67    -0.062 C 
HETATM   36  C34 VFQ 11620     -39.443 136.413   9.049  1.00 94.67     0.007 C 
HETATM   37  C35 VFQ 11620     -40.400 137.403   9.518  1.00 94.67     0.001 C 
HETATM   38  C36 VFQ 11620     -34.845 127.389   7.812  1.00 72.40     0.020 C 
HETATM   39  C37 VFQ 11620     -35.121 128.946   5.900  1.00 73.92     0.020 C 
HETATM   40  C38 VFQ 11620     -31.543 130.773   8.382  1.00 74.98     0.044 C 
HETATM   41  C39 VFQ 11620     -35.719 131.333  11.022  1.00 94.67     0.048 C 
HETATM   42  C40 VFQ 11620     -39.200 135.542  11.354  1.00 94.67     0.048 C 
HETATM   43  O23 VFQ 11620     -31.128 127.573   4.708  1.00 71.08    -0.395 OA
ATOM     44  H23 VFQ 11620     -31.225 126.635   4.588  1.00  0.00     0.210 HD
ENDROOT
TORSDOF 12
