REMARK VINA RESULT:    -6.901      0.979     16.933
REMARK INTER + INTRA:          -9.550
REMARK INTER:                  -9.748
REMARK INTRA:                   0.198
REMARK UNBOUND:                -2.649
REMARK  0 active torsions:
REMARK  status: ('A' for Active; 'I' for Inactive)
REMARK       I    between atoms: C3_3  and  O3_21 
REMARK       I    between atoms: C6_6  and  C7_7 
REMARK       I    between atoms: C8_8  and  C9_9 
REMARK       I    between atoms: C10_10  and  C11_11 
REMARK       I    between atoms: C12_12  and  C13_13 
REMARK       I    between atoms: C14_14  and  C15_15 
REMARK       I    between atoms: C23_25  and  O23_43 
REMARK       I    between atoms: C26_28  and  C27_29 
REMARK       I    between atoms: C28_30  and  C29_31 
REMARK       I    between atoms: C30_32  and  C31_33 
REMARK       I    between atoms: C32_34  and  C33_35 
REMARK       I    between atoms: C34_36  and  C35_37 
ROOT
HETATM    1  C1  VFQ 1 316     -50.254 144.956  12.744  1.00 73.24    -0.018 C 
HETATM    2  C2  VFQ 1 316     -50.710 145.556  14.076  1.00 72.84     0.045 C 
HETATM    3  C3  VFQ 1 316     -49.818 146.631  14.683  1.00 72.53     0.123 C 
HETATM    4  C4  VFQ 1 316     -49.333 147.579  13.603  1.00 72.61     0.066 C 
HETATM    5  C5  VFQ 1 316     -48.581 146.798  12.559  1.00 72.68    -0.074 C 
HETATM    6  C6  VFQ 1 316     -49.048 145.631  12.113  1.00 72.79    -0.048 C 
HETATM    7  C7  VFQ 1 316     -48.374 144.960  10.974  1.00 71.90     0.009 C 
HETATM    8  C8  VFQ 1 316     -47.299 144.197  11.179  1.00 71.51     0.007 C 
HETATM    9  C9  VFQ 1 316     -46.589 143.500  10.086  1.00 70.48    -0.062 C 
HETATM   10  C10 VFQ 1 316     -45.555 142.708  10.409  1.00 69.46     0.007 C 
HETATM   11  C11 VFQ 1 316     -44.756 141.948   9.449  1.00 69.85     0.001 C 
HETATM   12  C12 VFQ 1 316     -43.785 141.190   9.957  1.00 72.15     0.007 C 
HETATM   13  C13 VFQ 1 316     -42.884 140.336   9.155  1.00 73.74    -0.062 C 
HETATM   14  C14 VFQ 1 316     -42.125 139.439   9.811  1.00 74.04     0.007 C 
HETATM   15  C15 VFQ 1 316     -41.210 138.518   9.139  1.00 74.62     0.001 C 
HETATM   16  C16 VFQ 1 316     -51.420 145.040  11.766  1.00 72.68     0.020 C 
HETATM   17  C17 VFQ 1 316     -49.896 143.494  12.976  1.00 73.05     0.020 C 
HETATM   18  C18 VFQ 1 316     -47.504 147.527  11.808  1.00 72.13     0.044 C 
HETATM   19  C19 VFQ 1 316     -47.009 143.681   8.657  1.00 70.45     0.048 C 
HETATM   20  C20 VFQ 1 316     -42.815 140.470   7.660  1.00 72.89     0.048 C 
HETATM   21  O3  VFQ 1 316     -50.563 147.372  15.661  1.00 71.04    -0.395 OA
ATOM     22  H3  VFQ 1 316     -50.866 146.777  16.337  1.00  0.00     0.210 HD
HETATM   23  C21 VFQ 1 316     -34.052 128.067   7.295  1.00 73.56    -0.018 C 
HETATM   24  C22 VFQ 1 316     -33.110 127.163   6.497  1.00 73.56     0.045 C 
HETATM   25  C23 VFQ 1 316     -31.777 127.741   6.026  1.00 73.56     0.123 C 
HETATM   26  C24 VFQ 1 316     -31.882 129.233   5.755  1.00 73.56     0.066 C 
HETATM   27  C25 VFQ 1 316     -32.375 129.887   7.018  1.00 73.56    -0.074 C 
HETATM   28  C26 VFQ 1 316     -33.489 129.445   7.610  1.00 73.56    -0.048 C 
HETATM   29  C27 VFQ 1 316     -34.179 130.287   8.619  1.00 73.56     0.009 C 
HETATM   30  C28 VFQ 1 316     -35.057 131.238   8.289  1.00 73.56     0.007 C 
HETATM   31  C29 VFQ 1 316     -35.730 132.061   9.315  1.00 94.72    -0.062 C 
HETATM   32  C30 VFQ 1 316     -36.609 132.981   8.894  1.00 91.32     0.007 C 
HETATM   33  C31 VFQ 1 316     -37.367 133.854   9.787  1.00 87.88     0.001 C 
HETATM   34  C32 VFQ 1 316     -38.112 134.789   9.205  1.00 84.19     0.007 C 
HETATM   35  C33 VFQ 1 316     -38.967 135.742   9.936  1.00 80.79    -0.062 C 
HETATM   36  C34 VFQ 1 316     -39.636 136.672   9.233  1.00 78.84     0.007 C 
HETATM   37  C35 VFQ 1 316     -40.532 137.633   9.873  1.00 76.79     0.001 C 
HETATM   38  C36 VFQ 1 316     -34.346 127.393   8.629  1.00 73.56     0.020 C 
HETATM   39  C37 VFQ 1 316     -35.356 128.180   6.507  1.00 73.56     0.020 C 
HETATM   40  C38 VFQ 1 316     -31.565 131.009   7.604  1.00 73.56     0.044 C 
HETATM   41  C39 VFQ 1 316     -35.451 131.866  10.774  1.00 95.37     0.048 C 
HETATM   42  C40 VFQ 1 316     -39.099 135.649  11.427  1.00 90.13     0.048 C 
HETATM   43  O23 VFQ 1 316     -31.378 127.070   4.823  1.00 73.56    -0.395 OA
ATOM     44  H23 VFQ 1 316     -30.549 127.430   4.530  1.00  0.00     0.210 HD
ENDROOT
TORSDOF 12
