REMARK VINA RESULT:   -14.000      0.000      0.000
REMARK INTER + INTRA:         -14.409
REMARK INTER:                 -14.000
REMARK INTRA:                  -0.409
REMARK UNBOUND:                -0.409
REMARK  0 active torsions:
REMARK  status: ('A' for Active; 'I' for Inactive)
REMARK       I    between atoms: C3_3  and  O3_21 
REMARK       I    between atoms: C6_6  and  C7_7 
REMARK       I    between atoms: C8_8  and  C9_9 
REMARK       I    between atoms: C10_10  and  C11_11 
REMARK       I    between atoms: C12_12  and  C13_13 
REMARK       I    between atoms: C14_14  and  C15_15 
REMARK       I    between atoms: C23_25  and  O23_43 
REMARK       I    between atoms: C26_28  and  C27_29 
REMARK       I    between atoms: C28_30  and  C29_31 
REMARK       I    between atoms: C30_32  and  C31_33 
REMARK       I    between atoms: C32_34  and  C33_35 
REMARK       I    between atoms: C34_36  and  C35_37 
ROOT
HETATM    1  C1  VFQ 1 617     -49.847 144.095  11.413  1.00 21.49    -0.018 C 
HETATM    2  C2  VFQ 1 617     -50.359 144.338  12.829  1.00 21.49     0.045 C 
HETATM    3  C3  VFQ 1 617     -49.682 145.427  13.647  1.00 21.49     0.123 C 
HETATM    4  C4  VFQ 1 617     -49.250 146.595  12.791  1.00 21.49     0.066 C 
HETATM    5  C5  VFQ 1 617     -48.395 146.112  11.654  1.00 21.49    -0.074 C 
HETATM    6  C6  VFQ 1 617     -48.668 144.968  11.012  1.00 21.49    -0.048 C 
HETATM    7  C7  VFQ 1 617     -47.816 144.540   9.870  1.00 21.49     0.009 C 
HETATM    8  C8  VFQ 1 617     -46.791 143.703  10.039  1.00 21.49     0.007 C 
HETATM    9  C9  VFQ 1 617     -45.918 143.252   8.945  1.00 21.49    -0.062 C 
HETATM   10  C10 VFQ 1 617     -45.007 142.327   9.265  1.00 21.49     0.007 C 
HETATM   11  C11 VFQ 1 617     -44.037 141.715   8.368  1.00 21.49     0.001 C 
HETATM   12  C12 VFQ 1 617     -43.276 140.822   8.984  1.00 21.49     0.007 C 
HETATM   13  C13 VFQ 1 617     -42.228 140.007   8.359  1.00 21.49    -0.062 C 
HETATM   14  C14 VFQ 1 617     -41.726 139.019   9.104  1.00 21.49     0.007 C 
HETATM   15  C15 VFQ 1 617     -40.713 138.098   8.617  1.00 21.49     0.001 C 
HETATM   16  C16 VFQ 1 617     -51.040 144.288  10.478  1.00 21.49     0.020 C 
HETATM   17  C17 VFQ 1 617     -49.394 142.645  11.334  1.00 21.49     0.020 C 
HETATM   18  C18 VFQ 1 617     -47.250 146.999  11.255  1.00 21.49     0.044 C 
HETATM   19  C19 VFQ 1 617     -46.039 143.819   7.565  1.00 21.49     0.048 C 
HETATM   20  C20 VFQ 1 617     -41.756 140.251   6.959  1.00 21.49     0.048 C 
HETATM   21  O3  VFQ 1 617     -50.627 145.911  14.607  1.00 21.49    -0.395 OA
ATOM     22  H3  VFQ 1 617     -50.204 146.591  15.118  1.00  0.00     0.210 HD
HETATM   23  C21 VFQ 1 617     -33.789 127.820   7.209  1.00 87.69    -0.018 C 
HETATM   24  C22 VFQ 1 617     -32.715 127.001   6.520  1.00 87.69     0.045 C 
HETATM   25  C23 VFQ 1 617     -31.810 127.743   5.544  1.00 87.69     0.123 C 
HETATM   26  C24 VFQ 1 617     -31.590 129.218   5.856  1.00 87.69     0.066 C 
HETATM   27  C25 VFQ 1 617     -32.116 129.631   7.206  1.00 87.69    -0.074 C 
HETATM   28  C26 VFQ 1 617     -33.258 129.144   7.686  1.00 87.69    -0.048 C 
HETATM   29  C27 VFQ 1 617     -34.016 129.870   8.730  1.00 87.69     0.009 C 
HETATM   30  C28 VFQ 1 617     -34.828 130.872   8.410  1.00 87.69     0.007 C 
HETATM   31  C29 VFQ 1 617     -35.607 131.597   9.416  1.00 21.49    -0.062 C 
HETATM   32  C30 VFQ 1 617     -36.579 132.376   8.952  1.00 21.49     0.007 C 
HETATM   33  C31 VFQ 1 617     -37.476 133.155   9.787  1.00 21.49     0.001 C 
HETATM   34  C32 VFQ 1 617     -38.054 134.153   9.141  1.00 21.49     0.007 C 
HETATM   35  C33 VFQ 1 617     -39.013 135.091   9.728  1.00 21.49    -0.062 C 
HETATM   36  C34 VFQ 1 617     -39.451 136.078   8.939  1.00 21.49     0.007 C 
HETATM   37  C35 VFQ 1 617     -40.426 137.054   9.386  1.00 21.49     0.001 C 
HETATM   38  C36 VFQ 1 617     -34.228 127.042   8.429  1.00 87.69     0.020 C 
HETATM   39  C37 VFQ 1 617     -35.000 128.002   6.300  1.00 87.69     0.020 C 
HETATM   40  C38 VFQ 1 617     -31.295 130.605   7.991  1.00 87.69     0.044 C 
HETATM   41  C39 VFQ 1 617     -35.336 131.453  10.882  1.00 21.49     0.048 C 
HETATM   42  C40 VFQ 1 617     -39.478 134.930  11.140  1.00 21.49     0.048 C 
HETATM   43  O23 VFQ 1 617     -32.410 127.647   4.255  1.00 87.69    -0.395 OA
ATOM     44  H23 VFQ 1 617     -31.846 128.109   3.647  1.00  0.00     0.210 HD
ENDROOT
TORSDOF 12
