REMARK VINA RESULT:    -9.767      0.728     16.673
REMARK INTER + INTRA:         -12.273
REMARK INTER:                  -9.941
REMARK INTRA:                  -2.332
REMARK UNBOUND:                -2.507
REMARK  0 active torsions:
REMARK  status: ('A' for Active; 'I' for Inactive)
REMARK       I    between atoms: C3_3  and  O3_21 
REMARK       I    between atoms: C6_6  and  C7_7 
REMARK       I    between atoms: C8_8  and  C9_9 
REMARK       I    between atoms: C10_10  and  C11_11 
REMARK       I    between atoms: C12_12  and  C13_13 
REMARK       I    between atoms: C14_14  and  C15_15 
REMARK       I    between atoms: C23_25  and  O23_43 
REMARK       I    between atoms: C26_28  and  C27_29 
REMARK       I    between atoms: C28_30  and  C29_31 
REMARK       I    between atoms: C30_32  and  C31_33 
REMARK       I    between atoms: C32_34  and  C33_35 
REMARK       I    between atoms: C34_36  and  C35_37 
ROOT
HETATM    1  C1  VFQ 1 619     -49.942 143.796  13.005  1.00 34.54    -0.018 C 
HETATM    2  C2  VFQ 1 619     -49.682 144.978  13.940  1.00 34.54     0.045 C 
HETATM    3  C3  VFQ 1 619     -49.165 146.287  13.344  1.00 34.54     0.123 C 
HETATM    4  C4  VFQ 1 619     -49.432 146.422  11.853  1.00 34.54     0.066 C 
HETATM    5  C5  VFQ 1 619     -48.959 145.170  11.172  1.00 34.54    -0.074 C 
HETATM    6  C6  VFQ 1 619     -49.341 143.970  11.620  1.00 34.54    -0.048 C 
HETATM    7  C7  VFQ 1 619     -49.190 142.793  10.732  1.00 34.54     0.009 C 
HETATM    8  C8  VFQ 1 619     -48.054 142.101  10.733  1.00 34.54     0.007 C 
HETATM    9  C9  VFQ 1 619     -47.800 140.930   9.880  1.00 34.54    -0.062 C 
HETATM   10  C10 VFQ 1 619     -46.537 140.511   9.863  1.00 34.54     0.007 C 
HETATM   11  C11 VFQ 1 619     -46.018 139.392   9.096  1.00 34.54     0.001 C 
HETATM   12  C12 VFQ 1 619     -44.720 139.196   9.280  1.00 34.54     0.007 C 
HETATM   13  C13 VFQ 1 619     -43.955 138.140   8.611  1.00 34.54    -0.062 C 
HETATM   14  C14 VFQ 1 619     -42.737 137.856   9.085  1.00 34.54     0.007 C 
HETATM   15  C15 VFQ 1 619     -41.916 136.831   8.462  1.00 34.54     0.001 C 
HETATM   16  C16 VFQ 1 619     -51.452 143.578  12.947  1.00 34.54     0.020 C 
HETATM   17  C17 VFQ 1 619     -49.325 142.547  13.620  1.00 34.54     0.020 C 
HETATM   18  C18 VFQ 1 619     -48.739 145.435   9.710  1.00 34.54     0.044 C 
HETATM   19  C19 VFQ 1 619     -48.875 140.257   9.081  1.00 34.54     0.048 C 
HETATM   20  C20 VFQ 1 619     -44.523 137.424   7.423  1.00 34.54     0.048 C 
HETATM   21  O3  VFQ 1 619     -49.792 147.379  14.025  1.00 34.54    -0.395 OA
ATOM     22  H3  VFQ 1 619     -49.625 147.294  14.957  1.00  0.00     0.210 HD
HETATM   23  C21 VFQ 1 619     -33.987 126.889   6.990  1.00 87.69    -0.018 C 
HETATM   24  C22 VFQ 1 619     -32.937 126.062   6.274  1.00 87.69     0.045 C 
HETATM   25  C23 VFQ 1 619     -32.487 126.562   4.907  1.00 87.69     0.123 C 
HETATM   26  C24 VFQ 1 619     -32.562 128.070   4.711  1.00 87.69     0.066 C 
HETATM   27  C25 VFQ 1 619     -32.844 128.828   5.982  1.00 87.69    -0.074 C 
HETATM   28  C26 VFQ 1 619     -33.691 128.362   6.896  1.00 87.69    -0.048 C 
HETATM   29  C27 VFQ 1 619     -34.340 129.272   7.869  1.00 87.69     0.009 C 
HETATM   30  C28 VFQ 1 619     -35.419 129.970   7.536  1.00 87.69     0.007 C 
HETATM   31  C29 VFQ 1 619     -36.093 130.862   8.484  1.00 34.54    -0.062 C 
HETATM   32  C30 VFQ 1 619     -36.931 131.789   8.006  1.00 34.54     0.007 C 
HETATM   33  C31 VFQ 1 619     -37.634 132.726   8.872  1.00 34.54     0.001 C 
HETATM   34  C32 VFQ 1 619     -38.359 133.664   8.275  1.00 34.54     0.007 C 
HETATM   35  C33 VFQ 1 619     -39.116 134.667   9.037  1.00 34.54    -0.062 C 
HETATM   36  C34 VFQ 1 619     -40.001 135.417   8.375  1.00 34.54     0.007 C 
HETATM   37  C35 VFQ 1 619     -40.791 136.438   9.043  1.00 34.54     0.001 C 
HETATM   38  C36 VFQ 1 619     -33.932 126.509   8.454  1.00 87.69     0.020 C 
HETATM   39  C37 VFQ 1 619     -35.383 126.567   6.467  1.00 87.69     0.020 C 
HETATM   40  C38 VFQ 1 619     -32.122 130.123   6.183  1.00 87.69     0.044 C 
HETATM   41  C39 VFQ 1 619     -35.835 130.738   9.957  1.00 34.54     0.048 C 
HETATM   42  C40 VFQ 1 619     -38.897 134.842  10.512  1.00 34.54     0.048 C 
HETATM   43  O23 VFQ 1 619     -33.329 125.946   3.935  1.00 87.69    -0.395 OA
ATOM     44  H23 VFQ 1 619     -33.282 125.006   4.057  1.00  0.00     0.210 HD
ENDROOT
TORSDOF 12
