REMARK VINA RESULT:    -7.790      1.918     17.060
REMARK INTER + INTRA:         -10.640
REMARK INTER:                 -10.173
REMARK INTRA:                  -0.467
REMARK UNBOUND:                -2.850
REMARK  0 active torsions:
REMARK  status: ('A' for Active; 'I' for Inactive)
REMARK       I    between atoms: C3_3  and  O3_21 
REMARK       I    between atoms: C6_6  and  C7_7 
REMARK       I    between atoms: C8_8  and  C9_9 
REMARK       I    between atoms: C10_10  and  C11_11 
REMARK       I    between atoms: C12_12  and  C13_13 
REMARK       I    between atoms: C14_14  and  C15_15 
REMARK       I    between atoms: C23_25  and  O23_43 
REMARK       I    between atoms: C26_28  and  C27_29 
REMARK       I    between atoms: C28_30  and  C29_31 
REMARK       I    between atoms: C30_32  and  C31_33 
REMARK       I    between atoms: C32_34  and  C33_35 
REMARK       I    between atoms: C34_36  and  C35_37 
ROOT
HETATM    1  C1  VFQ J9621     -34.113 128.333   7.135  1.00 21.11    -0.018 C 
HETATM    2  C2  VFQ J9621     -33.384 127.710   5.932  1.00 20.11     0.045 C 
HETATM    3  C3  VFQ J9621     -31.944 128.115   5.620  1.00 19.41     0.123 C 
HETATM    4  C4  VFQ J9621     -31.352 129.227   6.498  1.00 18.39     0.066 C 
HETATM    5  C5  VFQ J9621     -32.181 129.984   7.481  1.00 18.34    -0.074 C 
HETATM    6  C6  VFQ J9621     -33.458 129.594   7.814  1.00 19.81    -0.048 C 
HETATM    7  C7  VFQ J9621     -34.320 130.264   8.814  1.00 19.02     0.009 C 
HETATM    8  C8  VFQ J9621     -35.048 131.374   8.586  1.00 17.97     0.007 C 
HETATM    9  C9  VFQ J9621     -35.921 132.086   9.524  1.00 18.85    -0.062 C 
HETATM   10  C10 VFQ J9621     -36.658 133.110   9.034  1.00 18.38     0.007 C 
HETATM   11  C11 VFQ J9621     -37.643 133.897   9.738  1.00 18.57     0.001 C 
HETATM   12  C12 VFQ J9621     -38.379 134.845   9.118  1.00 17.11     0.007 C 
HETATM   13  C13 VFQ J9621     -39.465 135.656   9.689  1.00 20.42    -0.062 C 
HETATM   14  C14 VFQ J9621     -40.100 136.530   8.876  1.00 20.50     0.007 C 
HETATM   15  C15 VFQ J9621     -41.215 137.379   9.221  1.00 20.22     0.001 C 
HETATM   16  C16 VFQ J9621     -34.223 127.162   8.143  1.00 19.56     0.020 C 
HETATM   17  C17 VFQ J9621     -35.534 128.662   6.631  1.00 18.49     0.020 C 
HETATM   18  C18 VFQ J9621     -31.366 131.092   8.039  1.00 16.89     0.044 C 
HETATM   19  C19 VFQ J9621     -35.990 131.579  10.937  1.00 14.61     0.048 C 
HETATM   20  C20 VFQ J9621     -39.829 135.438  11.140  1.00 17.59     0.048 C 
HETATM   21  O3  VFQ J9621     -31.101 126.977   5.634  1.00 18.27    -0.395 OA
ATOM     22  H3  VFQ J9621     -30.206 127.229   5.440  1.00  0.00     0.210 HD
HETATM   23  C21 VFQ J9621     -51.065 145.613   9.943  1.00 57.17    -0.018 C 
HETATM   24  C22 VFQ J9621     -52.086 146.350  10.801  1.00 57.17     0.045 C 
HETATM   25  C23 VFQ J9621     -51.554 147.260  11.891  1.00 57.17     0.123 C 
HETATM   26  C24 VFQ J9621     -50.314 146.667  12.521  1.00 57.17     0.066 C 
HETATM   27  C25 VFQ J9621     -49.285 146.456  11.448  1.00 57.17    -0.074 C 
HETATM   28  C26 VFQ J9621     -49.613 145.840  10.306  1.00 57.17    -0.048 C 
HETATM   29  C27 VFQ J9621     -48.575 145.377   9.346  1.00 57.17     0.009 C 
HETATM   30  C28 VFQ J9621     -47.916 144.227   9.518  1.00 57.17     0.007 C 
HETATM   31  C29 VFQ J9621     -46.881 143.696   8.587  1.00 19.55    -0.062 C 
HETATM   32  C30 VFQ J9621     -46.265 142.538   8.915  1.00 17.66     0.007 C 
HETATM   33  C31 VFQ J9621     -45.236 141.870   8.155  1.00 19.12     0.001 C 
HETATM   34  C32 VFQ J9621     -44.554 140.805   8.636  1.00 19.40     0.007 C 
HETATM   35  C33 VFQ J9621     -43.461 140.034   8.015  1.00 19.31    -0.062 C 
HETATM   36  C34 VFQ J9621     -42.875 139.068   8.753  1.00 17.72     0.007 C 
HETATM   37  C35 VFQ J9621     -41.766 138.240   8.366  1.00 19.92     0.001 C 
HETATM   38  C36 VFQ J9621     -51.238 146.100   8.522  1.00 57.17     0.020 C 
HETATM   39  C37 VFQ J9621     -51.416 144.134  10.010  1.00 57.17     0.020 C 
HETATM   40  C38 VFQ J9621     -47.907 146.986  11.712  1.00 57.17     0.044 C 
HETATM   41  C39 VFQ J9621     -46.533 144.515   7.373  1.00 18.53     0.048 C 
HETATM   42  C40 VFQ J9621     -43.028 140.421   6.626  1.00 15.86     0.048 C 
HETATM   43  O23 VFQ J9621     -52.566 147.376  12.892  1.00 57.17    -0.395 OA
ATOM     44  H23 VFQ J9621     -52.233 147.946  13.575  1.00  0.00     0.210 HD
ENDROOT
TORSDOF 12
