REMARK VINA RESULT:    -7.233      1.987     17.043
REMARK INTER + INTRA:         -10.300
REMARK INTER:                  -9.971
REMARK INTRA:                  -0.329
REMARK UNBOUND:                -3.067
REMARK  0 active torsions:
REMARK  status: ('A' for Active; 'I' for Inactive)
REMARK       I    between atoms: C3_3  and  O3_21 
REMARK       I    between atoms: C6_6  and  C7_7 
REMARK       I    between atoms: C8_8  and  C9_9 
REMARK       I    between atoms: C10_10  and  C11_11 
REMARK       I    between atoms: C12_12  and  C13_13 
REMARK       I    between atoms: C14_14  and  C15_15 
REMARK       I    between atoms: C23_25  and  O23_43 
REMARK       I    between atoms: C26_28  and  C27_29 
REMARK       I    between atoms: C28_30  and  C29_31 
REMARK       I    between atoms: C30_32  and  C31_33 
REMARK       I    between atoms: C32_34  and  C33_35 
REMARK       I    between atoms: C34_36  and  C35_37 
ROOT
HETATM    1  C1  VFQ A 621     -34.116 128.250   6.994  1.00 21.58    -0.018 C 
HETATM    2  C2  VFQ A 621     -33.350 127.589   5.829  1.00 21.20     0.045 C 
HETATM    3  C3  VFQ A 621     -31.992 128.142   5.387  1.00 20.61     0.123 C 
HETATM    4  C4  VFQ A 621     -31.387 129.218   6.302  1.00 19.82     0.066 C 
HETATM    5  C5  VFQ A 621     -32.210 129.915   7.341  1.00 19.81    -0.074 C 
HETATM    6  C6  VFQ A 621     -33.476 129.505   7.707  1.00 19.95    -0.048 C 
HETATM    7  C7  VFQ A 621     -34.307 130.164   8.757  1.00 17.10     0.009 C 
HETATM    8  C8  VFQ A 621     -35.032 131.288   8.562  1.00 17.58     0.007 C 
HETATM    9  C9  VFQ A 621     -35.879 132.044   9.491  1.00 19.11    -0.062 C 
HETATM   10  C10 VFQ A 621     -36.603 133.068   8.986  1.00 18.37     0.007 C 
HETATM   11  C11 VFQ A 621     -37.558 133.863   9.706  1.00 18.85     0.001 C 
HETATM   12  C12 VFQ A 621     -38.322 134.808   9.126  1.00 19.83     0.007 C 
HETATM   13  C13 VFQ A 621     -39.397 135.584   9.780  1.00 21.26    -0.062 C 
HETATM   14  C14 VFQ A 621     -40.096 136.460   9.022  1.00 20.79     0.007 C 
HETATM   15  C15 VFQ A 621     -41.212 137.281   9.422  1.00 20.26     0.001 C 
HETATM   16  C16 VFQ A 621     -34.267 127.076   7.988  1.00 19.38     0.020 C 
HETATM   17  C17 VFQ A 621     -35.522 128.602   6.455  1.00 19.65     0.020 C 
HETATM   18  C18 VFQ A 621     -31.405 131.032   7.901  1.00 20.06     0.044 C 
HETATM   19  C19 VFQ A 621     -35.954 131.578  10.918  1.00 17.70     0.048 C 
HETATM   20  C20 VFQ A 621     -39.671 135.313  11.231  1.00 18.78     0.048 C 
HETATM   21  O3  VFQ A 621     -31.066 127.082   5.202  1.00 18.88    -0.395 OA
ATOM     22  H3  VFQ A 621     -31.440 126.417   4.635  1.00  0.00     0.210 HD
HETATM   23  C21 VFQ A 621     -51.027 145.456  10.468  1.00 37.79    -0.018 C 
HETATM   24  C22 VFQ A 621     -51.976 145.958  11.544  1.00 37.79     0.045 C 
HETATM   25  C23 VFQ A 621     -51.463 147.083  12.412  1.00 37.79     0.123 C 
HETATM   26  C24 VFQ A 621     -50.098 146.727  12.938  1.00 37.79     0.066 C 
HETATM   27  C25 VFQ A 621     -49.150 146.332  11.848  1.00 37.79    -0.074 C 
HETATM   28  C26 VFQ A 621     -49.555 145.681  10.747  1.00 37.79    -0.048 C 
HETATM   29  C27 VFQ A 621     -48.578 145.198   9.734  1.00 37.79     0.009 C 
HETATM   30  C28 VFQ A 621     -47.902 144.050   9.850  1.00 37.79     0.007 C 
HETATM   31  C29 VFQ A 621     -46.930 143.556   8.827  1.00 26.46    -0.062 C 
HETATM   32  C30 VFQ A 621     -46.278 142.399   9.085  1.00 24.31     0.007 C 
HETATM   33  C31 VFQ A 621     -45.300 141.742   8.250  1.00 21.85     0.001 C 
HETATM   34  C32 VFQ A 621     -44.594 140.696   8.742  1.00 20.83     0.007 C 
HETATM   35  C33 VFQ A 621     -43.510 139.902   8.138  1.00 21.05    -0.062 C 
HETATM   36  C34 VFQ A 621     -42.910 138.972   8.912  1.00 19.63     0.007 C 
HETATM   37  C35 VFQ A 621     -41.796 138.129   8.555  1.00 20.78     0.001 C 
HETATM   38  C36 VFQ A 621     -51.323 146.197   9.185  1.00 37.79     0.020 C 
HETATM   39  C37 VFQ A 621     -51.375 143.990  10.257  1.00 37.79     0.020 C 
HETATM   40  C38 VFQ A 621     -47.726 146.731  12.086  1.00 37.79     0.044 C 
HETATM   41  C39 VFQ A 621     -46.680 144.406   7.612  1.00 25.84     0.048 C 
HETATM   42  C40 VFQ A 621     -43.095 140.230   6.731  1.00 18.97     0.048 C 
HETATM   43  O23 VFQ A 621     -52.329 147.204  13.541  1.00 37.79    -0.395 OA
ATOM     44  H23 VFQ A 621     -53.191 147.429  13.210  1.00  0.00     0.210 HD
ENDROOT
TORSDOF 12
