REMARK VINA RESULT:    -8.708      1.278      1.772
REMARK INTER + INTRA:         -11.668
REMARK INTER:                 -11.248
REMARK INTRA:                  -0.420
REMARK UNBOUND:                -2.960
REMARK  0 active torsions:
REMARK  status: ('A' for Active; 'I' for Inactive)
REMARK       I    between atoms: C3_3  and  O3_21 
REMARK       I    between atoms: C6_6  and  C7_7 
REMARK       I    between atoms: C8_8  and  C9_9 
REMARK       I    between atoms: C10_10  and  C11_11 
REMARK       I    between atoms: C12_12  and  C13_13 
REMARK       I    between atoms: C14_14  and  C15_15 
REMARK       I    between atoms: C23_25  and  O23_43 
REMARK       I    between atoms: C26_28  and  C27_29 
REMARK       I    between atoms: C28_30  and  C29_31 
REMARK       I    between atoms: C30_32  and  C31_33 
REMARK       I    between atoms: C32_34  and  C33_35 
REMARK       I    between atoms: C34_36  and  C35_37 
ROOT
HETATM    1  C1  VFQ Y1621     -49.560 146.005  11.552  1.00 26.19    -0.018 C 
HETATM    2  C2  VFQ Y1621     -50.518 146.521  12.619  1.00 26.65     0.045 C 
HETATM    3  C3  VFQ Y1621     -49.919 147.322  13.759  1.00 28.07     0.123 C 
HETATM    4  C4  VFQ Y1621     -48.824 148.238  13.279  1.00 30.07     0.066 C 
HETATM    5  C5  VFQ Y1621     -47.784 147.426  12.577  1.00 28.83    -0.074 C 
HETATM    6  C6  VFQ Y1621     -48.140 146.545  11.637  1.00 27.49    -0.048 C 
HETATM    7  C7  VFQ Y1621     -47.174 146.053  10.623  1.00 29.45     0.009 C 
HETATM    8  C8  VFQ Y1621     -46.208 145.179  10.916  1.00 27.83     0.007 C 
HETATM    9  C9  VFQ Y1621     -45.278 144.660   9.909  1.00 26.06    -0.062 C 
HETATM   10  C10 VFQ Y1621     -44.596 143.575  10.264  1.00 25.01     0.007 C 
HETATM   11  C11 VFQ Y1621     -43.669 142.867   9.408  1.00 25.09     0.001 C 
HETATM   12  C12 VFQ Y1621     -43.132 141.794   9.957  1.00 26.01     0.007 C 
HETATM   13  C13 VFQ Y1621     -42.227 140.896   9.237  1.00 26.36    -0.062 C 
HETATM   14  C14 VFQ Y1621     -41.823 139.791   9.869  1.00 27.67     0.007 C 
HETATM   15  C15 VFQ Y1621     -40.955 138.827   9.214  1.00 28.38     0.001 C 
HETATM   16  C16 VFQ Y1621     -50.202 146.387  10.230  1.00 26.46     0.020 C 
HETATM   17  C17 VFQ Y1621     -49.473 144.490  11.657  1.00 26.61     0.020 C 
HETATM   18  C18 VFQ Y1621     -46.583 148.305  12.463  1.00 29.43     0.044 C 
HETATM   19  C19 VFQ Y1621     -45.125 145.302   8.567  1.00 26.07     0.048 C 
HETATM   20  C20 VFQ Y1621     -41.828 141.190   7.824  1.00 25.83     0.048 C 
HETATM   21  O3  VFQ Y1621     -50.948 148.108  14.356  1.00 27.44    -0.395 OA
ATOM     22  H3  VFQ Y1621     -50.572 148.610  15.071  1.00  0.00     0.210 HD
HETATM   23  C21 VFQ Y1621     -34.006 128.193   7.194  1.00 19.07    -0.018 C 
HETATM   24  C22 VFQ Y1621     -33.151 127.476   6.131  1.00 18.69     0.045 C 
HETATM   25  C23 VFQ Y1621     -31.761 128.041   5.855  1.00 19.88     0.123 C 
HETATM   26  C24 VFQ Y1621     -31.687 129.575   5.936  1.00 19.59     0.066 C 
HETATM   27  C25 VFQ Y1621     -32.557 130.266   6.940  1.00 18.61    -0.074 C 
HETATM   28  C26 VFQ Y1621     -33.639 129.661   7.544  1.00 18.29    -0.048 C 
HETATM   29  C27 VFQ Y1621     -34.473 130.378   8.532  1.00 19.20     0.009 C 
HETATM   30  C28 VFQ Y1621     -35.431 131.310   8.300  1.00 18.47     0.007 C 
HETATM   31  C29 VFQ Y1621     -36.104 132.109   9.284  1.00 29.73    -0.062 C 
HETATM   32  C30 VFQ Y1621     -37.170 132.793   8.880  1.00 28.64     0.007 C 
HETATM   33  C31 VFQ Y1621     -37.958 133.648   9.742  1.00 27.79     0.001 C 
HETATM   34  C32 VFQ Y1621     -38.480 134.704   9.144  1.00 27.11     0.007 C 
HETATM   35  C33 VFQ Y1621     -39.311 135.675   9.852  1.00 25.78    -0.062 C 
HETATM   36  C34 VFQ Y1621     -39.763 136.750   9.203  1.00 26.10     0.007 C 
HETATM   37  C35 VFQ Y1621     -40.610 137.729   9.866  1.00 27.22     0.001 C 
HETATM   38  C36 VFQ Y1621     -34.002 127.328   8.470  1.00 17.04     0.020 C 
HETATM   39  C37 VFQ Y1621     -35.409 128.132   6.564  1.00 20.18     0.020 C 
HETATM   40  C38 VFQ Y1621     -32.018 131.637   7.121  1.00 19.93     0.044 C 
HETATM   41  C39 VFQ Y1621     -35.606 132.134  10.690  1.00 32.37     0.048 C 
HETATM   42  C40 VFQ Y1621     -39.641 135.435  11.281  1.00 25.14     0.048 C 
HETATM   43  O23 VFQ Y1621     -31.278 127.586   4.600  1.00 19.51    -0.395 OA
ATOM     44  H23 VFQ Y1621     -30.413 127.938   4.428  1.00  0.00     0.210 HD
ENDROOT
TORSDOF 12
