REMARK VINA RESULT:    -9.846      0.706     17.104
REMARK INTER + INTRA:         -10.332
REMARK INTER:                  -9.973
REMARK INTRA:                  -0.359
REMARK UNBOUND:                -0.486
REMARK  0 active torsions:
REMARK  status: ('A' for Active; 'I' for Inactive)
REMARK       I    between atoms: C3_3  and  O3_21 
REMARK       I    between atoms: C6_6  and  C7_7 
REMARK       I    between atoms: C8_8  and  C9_9 
REMARK       I    between atoms: C10_10  and  C11_11 
REMARK       I    between atoms: C12_12  and  C13_13 
REMARK       I    between atoms: C14_14  and  C15_15 
REMARK       I    between atoms: C23_25  and  O23_43 
REMARK       I    between atoms: C26_28  and  C27_29 
REMARK       I    between atoms: C28_30  and  C29_31 
REMARK       I    between atoms: C30_32  and  C31_33 
REMARK       I    between atoms: C32_34  and  C33_35 
REMARK       I    between atoms: C34_36  and  C35_37 
ROOT
HETATM    1  C1  VFQ H7621     -34.080 128.304   7.101  1.00 22.61    -0.018 C 
HETATM    2  C2  VFQ H7621     -33.280 127.672   5.948  1.00 23.33     0.045 C 
HETATM    3  C3  VFQ H7621     -31.891 128.201   5.574  1.00 24.77     0.123 C 
HETATM    4  C4  VFQ H7621     -31.304 129.273   6.507  1.00 22.10     0.066 C 
HETATM    5  C5  VFQ H7621     -32.178 129.960   7.500  1.00 21.89    -0.074 C 
HETATM    6  C6  VFQ H7621     -33.456 129.550   7.810  1.00 21.83    -0.048 C 
HETATM    7  C7  VFQ H7621     -34.326 130.221   8.802  1.00 21.27     0.009 C 
HETATM    8  C8  VFQ H7621     -35.040 131.346   8.562  1.00 20.16     0.007 C 
HETATM    9  C9  VFQ H7621     -35.910 132.069   9.477  1.00 19.98    -0.062 C 
HETATM   10  C10 VFQ H7621     -36.633 133.095   8.974  1.00 19.41     0.007 C 
HETATM   11  C11 VFQ H7621     -37.619 133.875   9.680  1.00 19.37     0.001 C 
HETATM   12  C12 VFQ H7621     -38.366 134.830   9.088  1.00 19.06     0.007 C 
HETATM   13  C13 VFQ H7621     -39.451 135.610   9.705  1.00 20.91    -0.062 C 
HETATM   14  C14 VFQ H7621     -40.109 136.501   8.930  1.00 20.64     0.007 C 
HETATM   15  C15 VFQ H7621     -41.228 137.316   9.312  1.00 20.44     0.001 C 
HETATM   16  C16 VFQ H7621     -34.245 127.145   8.094  1.00 21.21     0.020 C 
HETATM   17  C17 VFQ H7621     -35.485 128.634   6.554  1.00 21.56     0.020 C 
HETATM   18  C18 VFQ H7621     -31.413 131.087   8.078  1.00 21.82     0.044 C 
HETATM   19  C19 VFQ H7621     -36.009 131.574  10.891  1.00 18.20     0.048 C 
HETATM   20  C20 VFQ H7621     -39.787 135.338  11.152  1.00 20.18     0.048 C 
HETATM   21  O3  VFQ H7621     -30.975 127.121   5.424  1.00 25.40    -0.395 OA
ATOM     22  H3  VFQ H7621     -30.114 127.449   5.192  1.00  0.00     0.210 HD
HETATM   23  C21 VFQ H7621     -51.037 145.409  10.121  1.00 94.67    -0.018 C 
HETATM   24  C22 VFQ H7621     -52.045 146.246  10.897  1.00 94.67     0.045 C 
HETATM   25  C23 VFQ H7621     -51.493 147.417  11.682  1.00 94.67     0.123 C 
HETATM   26  C24 VFQ H7621     -50.248 146.977  12.404  1.00 94.67     0.066 C 
HETATM   27  C25 VFQ H7621     -49.225 146.515  11.414  1.00 94.67    -0.074 C 
HETATM   28  C26 VFQ H7621     -49.585 145.779  10.362  1.00 94.67    -0.048 C 
HETATM   29  C27 VFQ H7621     -48.577 145.307   9.383  1.00 94.67     0.009 C 
HETATM   30  C28 VFQ H7621     -47.936 144.153   9.556  1.00 94.67     0.007 C 
HETATM   31  C29 VFQ H7621     -46.929 143.608   8.610  1.00 24.75    -0.062 C 
HETATM   32  C30 VFQ H7621     -46.326 142.446   8.949  1.00 23.92     0.007 C 
HETATM   33  C31 VFQ H7621     -45.294 141.770   8.211  1.00 24.21     0.001 C 
HETATM   34  C32 VFQ H7621     -44.626 140.707   8.718  1.00 22.58     0.007 C 
HETATM   35  C33 VFQ H7621     -43.504 139.968   8.111  1.00 22.21    -0.062 C 
HETATM   36  C34 VFQ H7621     -42.917 138.999   8.846  1.00 21.24     0.007 C 
HETATM   37  C35 VFQ H7621     -41.779 138.193   8.470  1.00 22.03     0.001 C 
HETATM   38  C36 VFQ H7621     -51.312 145.616   8.638  1.00 94.67     0.020 C 
HETATM   39  C37 VFQ H7621     -51.310 143.959  10.507  1.00 94.67     0.020 C 
HETATM   40  C38 VFQ H7621     -47.808 146.932  11.675  1.00 94.67     0.044 C 
HETATM   41  C39 VFQ H7621     -46.590 144.410   7.385  1.00 25.35     0.048 C 
HETATM   42  C40 VFQ H7621     -43.036 140.390   6.743  1.00 19.46     0.048 C 
HETATM   43  O23 VFQ H7621     -52.458 147.810  12.657  1.00 94.67    -0.395 OA
ATOM     44  H23 VFQ H7621     -52.111 148.545  13.150  1.00  0.00     0.210 HD
ENDROOT
TORSDOF 12
