REMARK VINA RESULT:   -10.070      0.000      0.000
REMARK INTER + INTRA:         -10.617
REMARK INTER:                 -10.070
REMARK INTRA:                  -0.547
REMARK UNBOUND:                -0.547
REMARK  0 active torsions:
REMARK  status: ('A' for Active; 'I' for Inactive)
REMARK       I    between atoms: C3_3  and  O3_21 
REMARK       I    between atoms: C6_6  and  C7_7 
REMARK       I    between atoms: C8_8  and  C9_9 
REMARK       I    between atoms: C10_10  and  C11_11 
REMARK       I    between atoms: C12_12  and  C13_13 
REMARK       I    between atoms: C14_14  and  C15_15 
REMARK       I    between atoms: C23_25  and  O23_43 
REMARK       I    between atoms: C26_28  and  C27_29 
REMARK       I    between atoms: C28_30  and  C29_31 
REMARK       I    between atoms: C30_32  and  C31_33 
REMARK       I    between atoms: C32_34  and  C33_35 
REMARK       I    between atoms: C34_36  and  C35_37 
ROOT
HETATM    1  C1  VFQ 6 321     -49.659 146.061   8.537  1.00 93.31    -0.018 C 
HETATM    2  C2  VFQ 6 321     -50.573 147.012   9.311  1.00 93.93     0.045 C 
HETATM    3  C3  VFQ 6 321     -49.915 147.787  10.445  1.00 93.98     0.123 C 
HETATM    4  C4  VFQ 6 321     -48.626 148.420   9.954  1.00 93.16     0.066 C 
HETATM    5  C5  VFQ 6 321     -47.706 147.346   9.438  1.00 92.19    -0.074 C 
HETATM    6  C6  VFQ 6 321     -48.174 146.304   8.741  1.00 91.50    -0.048 C 
HETATM    7  C7  VFQ 6 321     -47.219 145.352   8.128  1.00 98.60     0.009 C 
HETATM    8  C8  VFQ 6 321     -46.673 144.351   8.823  1.00 95.09     0.007 C 
HETATM    9  C9  VFQ 6 321     -45.723 143.414   8.188  1.00 91.76    -0.062 C 
HETATM   10  C10 VFQ 6 321     -45.050 142.544   8.955  1.00 98.95     0.007 C 
HETATM   11  C11 VFQ 6 321     -44.099 141.592   8.384  1.00 96.41     0.001 C 
HETATM   12  C12 VFQ 6 321     -43.457 140.760   9.199  1.00 94.60     0.007 C 
HETATM   13  C13 VFQ 6 321     -42.489 139.777   8.677  1.00 93.62    -0.062 C 
HETATM   14  C14 VFQ 6 321     -41.883 138.924   9.518  1.00 93.18     0.007 C 
HETATM   15  C15 VFQ 6 321     -40.927 137.945   9.006  1.00 93.10     0.001 C 
HETATM   16  C16 VFQ 6 321     -49.982 146.184   7.053  1.00 93.81     0.020 C 
HETATM   17  C17 VFQ 6 321     -49.953 144.636   8.994  1.00 92.50     0.020 C 
HETATM   18  C18 VFQ 6 321     -46.234 147.635   9.490  1.00 91.81     0.044 C 
HETATM   19  C19 VFQ 6 321     -45.512 143.434   6.703  1.00 91.57     0.048 C 
HETATM   20  C20 VFQ 6 321     -42.187 139.733   7.209  1.00 93.41     0.048 C 
HETATM   21  O3  VFQ 6 321     -50.803 148.818  10.893  1.00 94.06    -0.395 OA
ATOM     22  H3  VFQ 6 321     -50.393 149.302  11.600  1.00  0.00     0.210 HD
HETATM   23  C21 VFQ 6 321     -34.186 128.435   6.620  1.00 24.23    -0.018 C 
HETATM   24  C22 VFQ 6 321     -33.332 127.844   5.519  1.00 24.23     0.045 C 
HETATM   25  C23 VFQ 6 321     -31.860 127.820   5.833  1.00 24.23     0.123 C 
HETATM   26  C24 VFQ 6 321     -31.474 129.247   6.098  1.00 24.23     0.066 C 
HETATM   27  C25 VFQ 6 321     -32.211 129.754   7.294  1.00 24.23    -0.074 C 
HETATM   28  C26 VFQ 6 321     -33.365 129.198   7.639  1.00 24.23    -0.048 C 
HETATM   29  C27 VFQ 6 321     -34.042 129.624   8.858  1.00 24.23     0.009 C 
HETATM   30  C28 VFQ 6 321     -34.736 130.729   8.562  1.00 24.23     0.007 C 
HETATM   31  C29 VFQ 6 321     -35.559 131.461   9.541  1.00 92.38    -0.062 C 
HETATM   32  C30 VFQ 6 321     -36.228 132.538   9.102  1.00 92.82     0.007 C 
HETATM   33  C31 VFQ 6 321     -37.088 133.366   9.943  1.00 93.26     0.001 C 
HETATM   34  C32 VFQ 6 321     -37.742 134.348   9.326  1.00 94.43     0.007 C 
HETATM   35  C33 VFQ 6 321     -38.661 135.278  10.011  1.00 94.12    -0.062 C 
HETATM   36  C34 VFQ 6 321     -39.348 136.153   9.259  1.00 93.68     0.007 C 
HETATM   37  C35 VFQ 6 321     -40.287 137.114   9.829  1.00 93.36     0.001 C 
HETATM   38  C36 VFQ 6 321     -34.885 127.301   7.348  1.00 24.23     0.020 C 
HETATM   39  C37 VFQ 6 321     -35.227 129.278   5.912  1.00 24.23     0.020 C 
HETATM   40  C38 VFQ 6 321     -31.564 130.869   8.050  1.00 24.23     0.044 C 
HETATM   41  C39 VFQ 6 321     -35.644 131.019  10.972  1.00 91.58     0.048 C 
HETATM   42  C40 VFQ 6 321     -38.819 135.244  11.503  1.00 93.59     0.048 C 
HETATM   43  O23 VFQ 6 321     -31.149 127.377   4.685  1.00 24.23    -0.395 OA
ATOM     44  H23 VFQ 6 321     -30.220 127.362   4.883  1.00  0.00     0.210 HD
ENDROOT
TORSDOF 12
