REMARK VINA RESULT:   -10.195      1.542     16.869
REMARK INTER + INTRA:         -10.835
REMARK INTER:                  -7.006
REMARK INTRA:                  -3.829
REMARK UNBOUND:                -0.640
REMARK  0 active torsions:
REMARK  status: ('A' for Active; 'I' for Inactive)
REMARK       I    between atoms: C3_3  and  O3_21 
REMARK       I    between atoms: C6_6  and  C7_7 
REMARK       I    between atoms: C8_8  and  C9_9 
REMARK       I    between atoms: C10_10  and  C11_11 
REMARK       I    between atoms: C12_12  and  C13_13 
REMARK       I    between atoms: C14_14  and  C15_15 
REMARK       I    between atoms: C23_25  and  O23_43 
REMARK       I    between atoms: C26_28  and  C27_29 
REMARK       I    between atoms: C28_30  and  C29_31 
REMARK       I    between atoms: C30_32  and  C31_33 
REMARK       I    between atoms: C32_34  and  C33_35 
REMARK       I    between atoms: C34_36  and  C35_37 
ROOT
HETATM    1  C1  VFQ 7 622     -34.430 126.924   5.940  1.00 13.75    -0.018 C 
HETATM    2  C2  VFQ 7 622     -33.813 126.052   4.857  1.00 13.75     0.045 C 
HETATM    3  C3  VFQ 7 622     -32.773 126.768   4.026  1.00 13.75     0.123 C 
HETATM    4  C4  VFQ 7 622     -31.706 127.293   4.949  1.00 13.75     0.066 C 
HETATM    5  C5  VFQ 7 622     -32.318 128.249   5.929  1.00 13.75    -0.074 C 
HETATM    6  C6  VFQ 7 622     -33.544 128.054   6.442  1.00 13.75    -0.048 C 
HETATM    7  C7  VFQ 7 622     -34.094 128.879   7.556  1.00 13.75     0.009 C 
HETATM    8  C8  VFQ 7 622     -34.615 130.106   7.421  1.00 13.75     0.007 C 
HETATM    9  C9  VFQ 7 622     -35.172 130.849   8.569  1.00 13.75    -0.062 C 
HETATM   10  C10 VFQ 7 622     -35.969 131.890   8.298  1.00 13.75     0.007 C 
HETATM   11  C11 VFQ 7 622     -36.639 132.725   9.289  1.00 13.75     0.001 C 
HETATM   12  C12 VFQ 7 622     -37.622 133.472   8.799  1.00 13.75     0.007 C 
HETATM   13  C13 VFQ 7 622     -38.489 134.388   9.557  1.00 13.75    -0.062 C 
HETATM   14  C14 VFQ 7 622     -39.277 135.216   8.854  1.00 13.75     0.007 C 
HETATM   15  C15 VFQ 7 622     -40.211 136.142   9.474  1.00 13.75     0.001 C 
HETATM   16  C16 VFQ 7 622     -34.819 125.986   7.073  1.00 13.75     0.020 C 
HETATM   17  C17 VFQ 7 622     -35.682 127.567   5.364  1.00 13.75     0.020 C 
HETATM   18  C18 VFQ 7 622     -31.340 129.229   6.487  1.00 13.75     0.044 C 
HETATM   19  C19 VFQ 7 622     -34.860 130.442   9.977  1.00 13.75     0.048 C 
HETATM   20  C20 VFQ 7 622     -38.524 134.370  11.056  1.00 13.75     0.048 C 
HETATM   21  O3  VFQ 7 622     -32.183 125.856   3.099  1.00 13.75    -0.395 OA
ATOM     22  H3  VFQ 7 622     -32.856 125.525   2.517  1.00  0.00     0.210 HD
HETATM   23  C21 VFQ 7 622     -49.839 144.565  11.268  1.00 19.07    -0.018 C 
HETATM   24  C22 VFQ 7 622     -50.634 145.192  12.430  1.00 18.69     0.045 C 
HETATM   25  C23 VFQ 7 622     -49.885 146.142  13.358  1.00 19.88     0.123 C 
HETATM   26  C24 VFQ 7 622     -48.423 145.736  13.613  1.00 19.59     0.066 C 
HETATM   27  C25 VFQ 7 622     -47.673 145.083  12.494  1.00 18.61    -0.074 C 
HETATM   28  C26 VFQ 7 622     -48.290 144.530  11.393  1.00 18.29    -0.048 C 
HETATM   29  C27 VFQ 7 622     -47.511 143.895  10.307  1.00 19.20     0.009 C 
HETATM   30  C28 VFQ 7 622     -46.934 142.667  10.300  1.00 18.47     0.007 C 
HETATM   31  C29 VFQ 7 622     -46.036 142.131   9.296  1.00 13.75    -0.062 C 
HETATM   32  C30 VFQ 7 622     -45.501 140.930   9.541  1.00 13.75     0.007 C 
HETATM   33  C31 VFQ 7 622     -44.597 140.222   8.645  1.00 13.75     0.001 C 
HETATM   34  C32 VFQ 7 622     -43.805 139.332   9.227  1.00 13.75     0.007 C 
HETATM   35  C33 VFQ 7 622     -42.831 138.493   8.514  1.00 13.75    -0.062 C 
HETATM   36  C34 VFQ 7 622     -42.043 137.703   9.256  1.00 13.75     0.007 C 
HETATM   37  C35 VFQ 7 622     -41.059 136.795   8.683  1.00 13.75     0.001 C 
HETATM   38  C36 VFQ 7 622     -50.248 145.282   9.967  1.00 17.04     0.020 C 
HETATM   39  C37 VFQ 7 622     -50.402 143.132  11.239  1.00 20.18     0.020 C 
HETATM   40  C38 VFQ 7 622     -46.228 145.176  12.821  1.00 19.93     0.044 C 
HETATM   41  C39 VFQ 7 622     -45.742 142.890   8.041  1.00 13.75     0.048 C 
HETATM   42  C40 VFQ 7 622     -42.738 138.512   7.019  1.00 13.75     0.048 C 
HETATM   43  O23 VFQ 7 622     -50.581 146.290  14.587  1.00 19.51    -0.395 OA
ATOM     44  H23 VFQ 7 622     -50.114 146.882  15.165  1.00  0.00     0.210 HD
ENDROOT
TORSDOF 12
