REMARK VINA RESULT:   -12.166      0.000      0.000
REMARK INTER + INTRA:         -12.156
REMARK INTER:                 -12.166
REMARK INTRA:                   0.009
REMARK UNBOUND:                 0.009
REMARK  0 active torsions:
REMARK  status: ('A' for Active; 'I' for Inactive)
REMARK       I    between atoms: C3_3  and  O3_21 
REMARK       I    between atoms: C6_6  and  C7_7 
REMARK       I    between atoms: C8_8  and  C9_9 
REMARK       I    between atoms: C10_10  and  C11_11 
REMARK       I    between atoms: C12_12  and  C13_13 
REMARK       I    between atoms: C14_14  and  C15_15 
REMARK       I    between atoms: C23_25  and  O23_43 
REMARK       I    between atoms: C26_28  and  C27_29 
REMARK       I    between atoms: C28_30  and  C29_31 
REMARK       I    between atoms: C30_32  and  C31_33 
REMARK       I    between atoms: C32_34  and  C33_35 
REMARK       I    between atoms: C34_36  and  C35_37 
ROOT
HETATM    1  C1  VFQ V1620     -49.771 144.081   9.910  1.00 15.23    -0.018 C 
HETATM    2  C2  VFQ V1620     -50.221 143.837  11.337  1.00 15.23     0.045 C 
HETATM    3  C3  VFQ V1620     -49.288 144.371  12.392  1.00 15.23     0.123 C 
HETATM    4  C4  VFQ V1620     -48.921 145.773  12.010  1.00 15.23     0.066 C 
HETATM    5  C5  VFQ V1620     -48.186 145.783  10.705  1.00 15.23    -0.074 C 
HETATM    6  C6  VFQ V1620     -48.518 144.904   9.757  1.00 15.23    -0.048 C 
HETATM    7  C7  VFQ V1620     -47.567 144.488   8.722  1.00 15.23     0.009 C 
HETATM    8  C8  VFQ V1620     -46.427 144.031   9.248  1.00 15.23     0.007 C 
HETATM    9  C9  VFQ V1620     -45.403 143.367   8.418  1.00 15.23    -0.062 C 
HETATM   10  C10 VFQ V1620     -44.468 142.656   9.063  1.00 15.23     0.007 C 
HETATM   11  C11 VFQ V1620     -43.472 141.837   8.387  1.00 15.23     0.001 C 
HETATM   12  C12 VFQ V1620     -42.756 140.975   9.093  1.00 15.23     0.007 C 
HETATM   13  C13 VFQ V1620     -41.813 140.051   8.448  1.00 15.23    -0.062 C 
HETATM   14  C14 VFQ V1620     -41.300 139.074   9.203  1.00 15.23     0.007 C 
HETATM   15  C15 VFQ V1620     -40.393 138.045   8.708  1.00 15.23     0.001 C 
HETATM   16  C16 VFQ V1620     -50.858 144.913   9.257  1.00 15.23     0.020 C 
HETATM   17  C17 VFQ V1620     -49.626 142.736   9.224  1.00 15.23     0.020 C 
HETATM   18  C18 VFQ V1620     -46.912 146.575  10.719  1.00 15.23     0.044 C 
HETATM   19  C19 VFQ V1620     -45.468 143.467   6.921  1.00 15.23     0.048 C 
HETATM   20  C20 VFQ V1620     -41.513 140.213   6.996  1.00 15.23     0.048 C 
HETATM   21  O3  VFQ V1620     -49.978 144.447  13.634  1.00 15.23    -0.395 OA
ATOM     22  H3  VFQ V1620     -49.390 144.783  14.299  1.00  0.00     0.210 HD
HETATM   23  C21 VFQ V1620     -33.941 127.909   7.166  1.00 46.63    -0.018 C 
HETATM   24  C22 VFQ V1620     -33.042 127.086   6.246  1.00 46.63     0.045 C 
HETATM   25  C23 VFQ V1620     -31.710 127.739   5.903  1.00 46.63     0.123 C 
HETATM   26  C24 VFQ V1620     -31.888 129.243   5.800  1.00 46.63     0.066 C 
HETATM   27  C25 VFQ V1620     -32.297 129.741   7.158  1.00 46.63    -0.074 C 
HETATM   28  C26 VFQ V1620     -33.220 129.050   7.834  1.00 46.63    -0.048 C 
HETATM   29  C27 VFQ V1620     -33.795 129.593   9.063  1.00 46.63     0.009 C 
HETATM   30  C28 VFQ V1620     -34.527 130.658   8.715  1.00 46.63     0.007 C 
HETATM   31  C29 VFQ V1620     -35.376 131.375   9.677  1.00 15.23    -0.062 C 
HETATM   32  C30 VFQ V1620     -36.136 132.335   9.145  1.00 15.23     0.007 C 
HETATM   33  C31 VFQ V1620     -37.059 133.183   9.876  1.00 15.23     0.001 C 
HETATM   34  C32 VFQ V1620     -37.682 134.134   9.190  1.00 15.23     0.007 C 
HETATM   35  C33 VFQ V1620     -38.603 135.079   9.826  1.00 15.23    -0.062 C 
HETATM   36  C34 VFQ V1620     -39.092 136.063   9.059  1.00 15.23     0.007 C 
HETATM   37  C35 VFQ V1620     -39.994 137.099   9.540  1.00 15.23     0.001 C 
HETATM   38  C36 VFQ V1620     -34.523 127.013   8.250  1.00 46.63     0.020 C 
HETATM   39  C37 VFQ V1620     -35.071 128.524   6.352  1.00 46.63     0.020 C 
HETATM   40  C38 VFQ V1620     -31.572 130.937   7.716  1.00 46.63     0.044 C 
HETATM   41  C39 VFQ V1620     -35.383 130.981  11.120  1.00 15.23     0.048 C 
HETATM   42  C40 VFQ V1620     -38.912 134.900  11.275  1.00 15.23     0.048 C 
HETATM   43  O23 VFQ V1620     -31.235 127.236   4.651  1.00 46.63    -0.395 OA
ATOM     44  H23 VFQ V1620     -31.125 126.294   4.716  1.00  0.00     0.210 HD
ENDROOT
TORSDOF 12
