REMARK VINA RESULT:    -9.763      0.000      0.000
REMARK INTER + INTRA:         -12.352
REMARK INTER:                  -9.763
REMARK INTRA:                  -2.589
REMARK UNBOUND:                -2.589
REMARK  0 active torsions:
REMARK  status: ('A' for Active; 'I' for Inactive)
REMARK       I    between atoms: C3_3  and  O3_21 
REMARK       I    between atoms: C6_6  and  C7_7 
REMARK       I    between atoms: C8_8  and  C9_9 
REMARK       I    between atoms: C10_10  and  C11_11 
REMARK       I    between atoms: C12_12  and  C13_13 
REMARK       I    between atoms: C14_14  and  C15_15 
REMARK       I    between atoms: C23_25  and  O23_43 
REMARK       I    between atoms: C26_28  and  C27_29 
REMARK       I    between atoms: C28_30  and  C29_31 
REMARK       I    between atoms: C30_32  and  C31_33 
REMARK       I    between atoms: C32_34  and  C33_35 
REMARK       I    between atoms: C34_36  and  C35_37 
ROOT
HETATM    1  C1  VFQ X1621     -34.424 127.003   6.420  1.00 31.86    -0.018 C 
HETATM    2  C2  VFQ X1621     -34.211 126.702   4.932  1.00 31.86     0.045 C 
HETATM    3  C3  VFQ X1621     -33.004 127.350   4.263  1.00 31.86     0.123 C 
HETATM    4  C4  VFQ X1621     -31.973 127.813   5.283  1.00 31.86     0.066 C 
HETATM    5  C5  VFQ X1621     -32.690 128.722   6.236  1.00 31.86    -0.074 C 
HETATM    6  C6  VFQ X1621     -33.718 128.239   6.932  1.00 31.86    -0.048 C 
HETATM    7  C7  VFQ X1621     -34.320 128.965   8.070  1.00 31.86     0.009 C 
HETATM    8  C8  VFQ X1621     -34.326 130.302   8.061  1.00 31.86     0.007 C 
HETATM    9  C9  VFQ X1621     -35.135 131.010   9.079  1.00 31.86    -0.062 C 
HETATM   10  C10 VFQ X1621     -35.559 132.250   8.762  1.00 31.86     0.007 C 
HETATM   11  C11 VFQ X1621     -36.499 133.011   9.583  1.00 31.86     0.001 C 
HETATM   12  C12 VFQ X1621     -37.075 134.098   9.073  1.00 31.86     0.007 C 
HETATM   13  C13 VFQ X1621     -38.102 134.853   9.826  1.00 31.86    -0.062 C 
HETATM   14  C14 VFQ X1621     -38.734 135.852   9.176  1.00 31.86     0.007 C 
HETATM   15  C15 VFQ X1621     -39.789 136.678   9.767  1.00 31.86     0.001 C 
HETATM   16  C16 VFQ X1621     -33.857 125.851   7.247  1.00 31.86     0.020 C 
HETATM   17  C17 VFQ X1621     -35.921 127.077   6.674  1.00 31.86     0.020 C 
HETATM   18  C18 VFQ X1621     -31.590 129.516   6.884  1.00 31.86     0.044 C 
HETATM   19  C19 VFQ X1621     -35.529 130.303  10.356  1.00 31.86     0.048 C 
HETATM   20  C20 VFQ X1621     -38.405 134.452  11.248  1.00 31.86     0.048 C 
HETATM   21  O3  VFQ X1621     -32.436 126.357   3.413  1.00 31.86    -0.395 OA
ATOM     22  H3  VFQ X1621     -31.684 126.761   2.997  1.00  0.00     0.210 HD
HETATM   23  C21 VFQ X1621     -48.405 144.755  12.351  1.00 32.37    -0.018 C 
HETATM   24  C22 VFQ X1621     -49.244 145.462  13.403  1.00 32.37     0.045 C 
HETATM   25  C23 VFQ X1621     -48.747 146.840  13.782  1.00 32.37     0.123 C 
HETATM   26  C24 VFQ X1621     -47.309 146.689  14.228  1.00 32.37     0.066 C 
HETATM   27  C25 VFQ X1621     -46.484 146.150  13.088  1.00 32.37    -0.074 C 
HETATM   28  C26 VFQ X1621     -47.087 145.486  12.095  1.00 32.37    -0.048 C 
HETATM   29  C27 VFQ X1621     -46.361 145.171  10.858  1.00 32.37     0.009 C 
HETATM   30  C28 VFQ X1621     -45.839 143.945  10.991  1.00 32.37     0.007 C 
HETATM   31  C29 VFQ X1621     -44.987 143.318   9.966  1.00 31.86    -0.062 C 
HETATM   32  C30 VFQ X1621     -44.472 142.106  10.261  1.00 31.86     0.007 C 
HETATM   33  C31 VFQ X1621     -43.565 141.365   9.385  1.00 31.86     0.001 C 
HETATM   34  C32 VFQ X1621     -43.007 140.243   9.835  1.00 31.86     0.007 C 
HETATM   35  C33 VFQ X1621     -42.021 139.488   9.033  1.00 31.86    -0.062 C 
HETATM   36  C34 VFQ X1621     -41.404 138.457   9.647  1.00 31.86     0.007 C 
HETATM   37  C35 VFQ X1621     -40.362 137.629   9.036  1.00 31.86     0.001 C 
HETATM   38  C36 VFQ X1621     -49.216 144.782  11.056  1.00 32.37     0.020 C 
HETATM   39  C37 VFQ X1621     -48.296 143.309  12.833  1.00 32.37     0.020 C 
HETATM   40  C38 VFQ X1621     -44.995 146.370  13.147  1.00 32.37     0.044 C 
HETATM   41  C39 VFQ X1621     -44.750 144.054   8.671  1.00 31.86     0.048 C 
HETATM   42  C40 VFQ X1621     -41.723 139.928   7.624  1.00 31.86     0.048 C 
HETATM   43  O23 VFQ X1621     -49.558 147.296  14.870  1.00 32.37    -0.395 OA
ATOM     44  H23 VFQ X1621     -50.462 147.391  14.590  1.00  0.00     0.210 HD
ENDROOT
TORSDOF 12
