REMARK VINA RESULT:   -10.192      1.249     16.978
REMARK INTER + INTRA:         -10.670
REMARK INTER:                  -7.710
REMARK INTRA:                  -2.960
REMARK UNBOUND:                -0.478
REMARK  0 active torsions:
REMARK  status: ('A' for Active; 'I' for Inactive)
REMARK       I    between atoms: C3_3  and  O3_21 
REMARK       I    between atoms: C6_6  and  C7_7 
REMARK       I    between atoms: C8_8  and  C9_9 
REMARK       I    between atoms: C10_10  and  C11_11 
REMARK       I    between atoms: C12_12  and  C13_13 
REMARK       I    between atoms: C14_14  and  C15_15 
REMARK       I    between atoms: C23_25  and  O23_43 
REMARK       I    between atoms: C26_28  and  C27_29 
REMARK       I    between atoms: C28_30  and  C29_31 
REMARK       I    between atoms: C30_32  and  C31_33 
REMARK       I    between atoms: C32_34  and  C33_35 
REMARK       I    between atoms: C34_36  and  C35_37 
ROOT
HETATM    1  C1  VFQ E4620     -34.528 126.930   6.105  1.00 19.12    -0.018 C 
HETATM    2  C2  VFQ E4620     -33.952 126.116   4.927  1.00 18.29     0.045 C 
HETATM    3  C3  VFQ E4620     -32.934 126.811   4.021  1.00 18.54     0.123 C 
HETATM    4  C4  VFQ E4620     -31.963 127.712   4.783  1.00 18.55     0.066 C 
HETATM    5  C5  VFQ E4620     -32.497 128.505   5.931  1.00 18.97    -0.074 C 
HETATM    6  C6  VFQ E4620     -33.684 128.164   6.564  1.00 18.68    -0.048 C 
HETATM    7  C7  VFQ E4620     -34.209 128.926   7.707  1.00 18.46     0.009 C 
HETATM    8  C8  VFQ E4620     -34.838 130.106   7.694  1.00 18.89     0.007 C 
HETATM    9  C9  VFQ E4620     -35.240 130.920   8.843  1.00 19.10    -0.062 C 
HETATM   10  C10 VFQ E4620     -35.963 132.033   8.597  1.00 18.99     0.007 C 
HETATM   11  C11 VFQ E4620     -36.479 132.961   9.558  1.00 18.78     0.001 C 
HETATM   12  C12 VFQ E4620     -37.336 133.898   9.146  1.00 19.28     0.007 C 
HETATM   13  C13 VFQ E4620     -38.035 134.902   9.947  1.00 21.25    -0.062 C 
HETATM   14  C14 VFQ E4620     -38.945 135.674   9.311  1.00 20.64     0.007 C 
HETATM   15  C15 VFQ E4620     -39.812 136.657   9.888  1.00 21.49     0.001 C 
HETATM   16  C16 VFQ E4620     -34.650 125.903   7.242  1.00 19.29     0.020 C 
HETATM   17  C17 VFQ E4620     -35.954 127.372   5.727  1.00 16.00     0.020 C 
HETATM   18  C18 VFQ E4620     -31.520 129.602   6.195  1.00 17.87     0.044 C 
HETATM   19  C19 VFQ E4620     -34.869 130.431  10.219  1.00 17.60     0.048 C 
HETATM   20  C20 VFQ E4620     -37.751 134.954  11.422  1.00 16.75     0.048 C 
HETATM   21  O3  VFQ E4620     -32.214 125.850   3.259  1.00 19.42    -0.395 OA
ATOM     22  H3  VFQ E4620     -31.582 126.281   2.696  1.00  0.00     0.210 HD
HETATM   23  C21 VFQ E4620     -49.445 144.554  12.726  1.00 13.13    -0.018 C 
HETATM   24  C22 VFQ E4620     -50.070 145.306  13.892  1.00 13.13     0.045 C 
HETATM   25  C23 VFQ E4620     -49.534 146.700  14.117  1.00 13.13     0.123 C 
HETATM   26  C24 VFQ E4620     -48.029 146.653  14.206  1.00 13.13     0.066 C 
HETATM   27  C25 VFQ E4620     -47.435 146.008  12.985  1.00 13.13    -0.074 C 
HETATM   28  C26 VFQ E4620     -48.039 144.993  12.347  1.00 13.13    -0.048 C 
HETATM   29  C27 VFQ E4620     -47.396 144.290  11.200  1.00 13.13     0.009 C 
HETATM   30  C28 VFQ E4620     -46.479 143.319  11.316  1.00 13.13     0.007 C 
HETATM   31  C29 VFQ E4620     -45.859 142.612  10.144  1.00 25.99    -0.062 C 
HETATM   32  C30 VFQ E4620     -44.947 141.655  10.412  1.00 24.86     0.007 C 
HETATM   33  C31 VFQ E4620     -44.256 140.833   9.455  1.00 24.61     0.001 C 
HETATM   34  C32 VFQ E4620     -43.321 139.945   9.853  1.00 23.19     0.007 C 
HETATM   35  C33 VFQ E4620     -42.492 139.042   9.044  1.00 22.76    -0.062 C 
HETATM   36  C34 VFQ E4620     -41.593 138.269   9.693  1.00 21.16     0.007 C 
HETATM   37  C35 VFQ E4620     -40.679 137.323   9.126  1.00 21.72     0.001 C 
HETATM   38  C36 VFQ E4620     -50.317 144.768  11.500  1.00 13.13     0.020 C 
HETATM   39  C37 VFQ E4620     -49.469 143.089  13.134  1.00 13.13     0.020 C 
HETATM   40  C38 VFQ E4620     -46.134 146.595  12.531  1.00 13.13     0.044 C 
HETATM   41  C39 VFQ E4620     -46.266 143.003   8.751  1.00 26.11     0.048 C 
HETATM   42  C40 VFQ E4620     -42.680 139.059   7.549  1.00 21.07     0.048 C 
HETATM   43  O23 VFQ E4620     -50.042 147.185  15.359  1.00 13.13    -0.395 OA
ATOM     44  H23 VFQ E4620     -49.704 148.062  15.499  1.00  0.00     0.210 HD
ENDROOT
TORSDOF 12
