REMARK VINA RESULT:    -9.234      0.000      0.000
REMARK INTER + INTRA:         -11.721
REMARK INTER:                  -9.234
REMARK INTRA:                  -2.487
REMARK UNBOUND:                -2.487
REMARK  0 active torsions:
REMARK  status: ('A' for Active; 'I' for Inactive)
REMARK       I    between atoms: C3_3  and  O3_21 
REMARK       I    between atoms: C6_6  and  C7_7 
REMARK       I    between atoms: C8_8  and  C9_9 
REMARK       I    between atoms: C10_10  and  C11_11 
REMARK       I    between atoms: C12_12  and  C13_13 
REMARK       I    between atoms: C14_14  and  C15_15 
REMARK       I    between atoms: C23_25  and  O23_43 
REMARK       I    between atoms: C26_28  and  C27_29 
REMARK       I    between atoms: C28_30  and  C29_31 
REMARK       I    between atoms: C30_32  and  C31_33 
REMARK       I    between atoms: C32_34  and  C33_35 
REMARK       I    between atoms: C34_36  and  C35_37 
ROOT
HETATM    1  C1  VFQ 6 619     -34.096 127.122   6.580  1.00 45.52    -0.018 C 
HETATM    2  C2  VFQ 6 619     -34.395 127.465   5.122  1.00 45.52     0.045 C 
HETATM    3  C3  VFQ 6 619     -33.499 128.551   4.540  1.00 45.52     0.123 C 
HETATM    4  C4  VFQ 6 619     -32.122 128.468   5.172  1.00 45.52     0.066 C 
HETATM    5  C5  VFQ 6 619     -32.297 128.795   6.627  1.00 45.52    -0.074 C 
HETATM    6  C6  VFQ 6 619     -33.299 128.192   7.281  1.00 45.52    -0.048 C 
HETATM    7  C7  VFQ 6 619     -33.827 128.751   8.528  1.00 45.52     0.009 C 
HETATM    8  C8  VFQ 6 619     -34.272 129.987   8.291  1.00 45.52     0.007 C 
HETATM    9  C9  VFQ 6 619     -35.012 130.778   9.298  1.00 45.52    -0.062 C 
HETATM   10  C10 VFQ 6 619     -35.616 131.888   8.850  1.00 45.52     0.007 C 
HETATM   11  C11 VFQ 6 619     -36.457 132.755   9.670  1.00 45.52     0.001 C 
HETATM   12  C12 VFQ 6 619     -37.111 133.742   9.077  1.00 45.52     0.007 C 
HETATM   13  C13 VFQ 6 619     -38.030 134.629   9.804  1.00 45.52    -0.062 C 
HETATM   14  C14 VFQ 6 619     -38.743 135.466   9.040  1.00 45.52     0.007 C 
HETATM   15  C15 VFQ 6 619     -39.735 136.413   9.529  1.00 45.52     0.001 C 
HETATM   16  C16 VFQ 6 619     -33.258 125.850   6.638  1.00 45.52     0.020 C 
HETATM   17  C17 VFQ 6 619     -35.391 126.909   7.349  1.00 45.52     0.020 C 
HETATM   18  C18 VFQ 6 619     -31.440 129.898   7.198  1.00 45.52     0.044 C 
HETATM   19  C19 VFQ 6 619     -35.081 130.320  10.728  1.00 45.52     0.048 C 
HETATM   20  C20 VFQ 6 619     -38.126 134.556  11.299  1.00 45.52     0.048 C 
HETATM   21  O3  VFQ 6 619     -33.376 128.379   3.125  1.00 45.52    -0.395 OA
ATOM     22  H3  VFQ 6 619     -32.817 129.056   2.762  1.00  0.00     0.210 HD
HETATM   23  C21 VFQ 6 619     -49.457 145.100   8.582  1.00 31.86    -0.018 C 
HETATM   24  C22 VFQ 6 619     -50.376 145.999   9.417  1.00 31.86     0.045 C 
HETATM   25  C23 VFQ 6 619     -50.055 146.126  10.901  1.00 31.86     0.123 C 
HETATM   26  C24 VFQ 6 619     -49.158 144.995  11.386  1.00 31.86     0.066 C 
HETATM   27  C25 VFQ 6 619     -47.944 145.003  10.506  1.00 31.86    -0.074 C 
HETATM   28  C26 VFQ 6 619     -48.100 144.827   9.196  1.00 31.86    -0.048 C 
HETATM   29  C27 VFQ 6 619     -47.068 144.192   8.349  1.00 31.86     0.009 C 
HETATM   30  C28 VFQ 6 619     -46.285 143.245   8.876  1.00 31.86     0.007 C 
HETATM   31  C29 VFQ 6 619     -45.417 142.445   7.978  1.00 45.52    -0.062 C 
HETATM   32  C30 VFQ 6 619     -44.676 141.516   8.592  1.00 45.52     0.007 C 
HETATM   33  C31 VFQ 6 619     -43.751 140.612   7.924  1.00 45.52     0.001 C 
HETATM   34  C32 VFQ 6 619     -43.062 139.778   8.686  1.00 45.52     0.007 C 
HETATM   35  C33 VFQ 6 619     -42.081 138.841   8.127  1.00 45.52    -0.062 C 
HETATM   36  C34 VFQ 6 619     -41.390 138.095   9.006  1.00 45.52     0.007 C 
HETATM   37  C35 VFQ 6 619     -40.373 137.128   8.615  1.00 45.52     0.001 C 
HETATM   38  C36 VFQ 6 619     -49.322 145.719   7.201  1.00 31.86     0.020 C 
HETATM   39  C37 VFQ 6 619     -50.106 143.727   8.427  1.00 31.86     0.020 C 
HETATM   40  C38 VFQ 6 619     -46.610 145.336  11.114  1.00 31.86     0.044 C 
HETATM   41  C39 VFQ 6 619     -45.434 142.677   6.497  1.00 45.52     0.048 C 
HETATM   42  C40 VFQ 6 619     -41.903 138.793   6.636  1.00 45.52     0.048 C 
HETATM   43  O23 VFQ 6 619     -51.305 146.084  11.587  1.00 31.86    -0.395 OA
ATOM     44  H23 VFQ 6 619     -51.104 146.163  12.512  1.00  0.00     0.210 HD
ENDROOT
TORSDOF 12
