REMARK VINA RESULT:   -11.545      0.000      0.000
REMARK INTER + INTRA:         -13.577
REMARK INTER:                 -11.545
REMARK INTRA:                  -2.032
REMARK UNBOUND:                -2.032
REMARK  0 active torsions:
REMARK  status: ('A' for Active; 'I' for Inactive)
REMARK       I    between atoms: C3_3  and  O3_21 
REMARK       I    between atoms: C6_6  and  C7_7 
REMARK       I    between atoms: C8_8  and  C9_9 
REMARK       I    between atoms: C10_10  and  C11_11 
REMARK       I    between atoms: C12_12  and  C13_13 
REMARK       I    between atoms: C14_14  and  C15_15 
REMARK       I    between atoms: C23_25  and  O23_43 
REMARK       I    between atoms: C26_28  and  C27_29 
REMARK       I    between atoms: C28_30  and  C29_31 
REMARK       I    between atoms: C30_32  and  C31_33 
REMARK       I    between atoms: C32_34  and  C33_35 
REMARK       I    between atoms: C34_36  and  C35_37 
ROOT
HETATM    1  C1  VFQ 8 618     -48.229 145.456  12.559  1.00 13.13    -0.018 C 
HETATM    2  C2  VFQ 8 618     -49.220 146.049  13.550  1.00 13.13     0.045 C 
HETATM    3  C3  VFQ 8 618     -48.599 146.687  14.771  1.00 13.13     0.123 C 
HETATM    4  C4  VFQ 8 618     -47.553 147.684  14.343  1.00 13.13     0.066 C 
HETATM    5  C5  VFQ 8 618     -46.523 147.040  13.457  1.00 13.13    -0.074 C 
HETATM    6  C6  VFQ 8 618     -46.839 146.072  12.581  1.00 13.13    -0.048 C 
HETATM    7  C7  VFQ 8 618     -45.870 145.596  11.552  1.00 13.13     0.009 C 
HETATM    8  C8  VFQ 8 618     -44.893 144.707  11.775  1.00 13.13     0.007 C 
HETATM    9  C9  VFQ 8 618     -43.974 144.258  10.713  1.00 13.13    -0.062 C 
HETATM   10  C10 VFQ 8 618     -43.339 143.100  10.904  1.00 13.13     0.007 C 
HETATM   11  C11 VFQ 8 618     -42.417 142.486   9.956  1.00 13.13     0.001 C 
HETATM   12  C12 VFQ 8 618     -42.145 141.222  10.241  1.00 13.13     0.007 C 
HETATM   13  C13 VFQ 8 618     -41.285 140.292   9.494  1.00 13.13    -0.062 C 
HETATM   14  C14 VFQ 8 618     -40.939 139.143  10.094  1.00 13.13     0.007 C 
HETATM   15  C15 VFQ 8 618     -40.126 138.146   9.418  1.00 13.13     0.001 C 
HETATM   16  C16 VFQ 8 618     -48.879 145.620  11.196  1.00 13.13     0.020 C 
HETATM   17  C17 VFQ 8 618     -48.059 143.980  12.881  1.00 13.13     0.020 C 
HETATM   18  C18 VFQ 8 618     -45.235 147.801  13.399  1.00 13.13     0.044 C 
HETATM   19  C19 VFQ 8 618     -43.760 145.065   9.470  1.00 13.13     0.048 C 
HETATM   20  C20 VFQ 8 618     -40.839 140.590   8.100  1.00 13.13     0.048 C 
HETATM   21  O3  VFQ 8 618     -49.621 147.386  15.482  1.00 13.13    -0.395 OA
ATOM     22  H3  VFQ 8 618     -50.280 146.758  15.752  1.00  0.00     0.210 HD
HETATM   23  C21 VFQ 8 618     -34.022 127.115   6.975  1.00 57.46    -0.018 C 
HETATM   24  C22 VFQ 8 618     -33.015 126.303   6.174  1.00 54.62     0.045 C 
HETATM   25  C23 VFQ 8 618     -32.390 126.942   4.933  1.00 54.91     0.123 C 
HETATM   26  C24 VFQ 8 618     -32.605 128.440   4.775  1.00 56.99     0.066 C 
HETATM   27  C25 VFQ 8 618     -32.832 129.108   6.102  1.00 60.65    -0.074 C 
HETATM   28  C26 VFQ 8 618     -33.664 128.582   7.004  1.00 60.28    -0.048 C 
HETATM   29  C27 VFQ 8 618     -34.240 129.401   8.093  1.00 57.11     0.009 C 
HETATM   30  C28 VFQ 8 618     -35.290 130.187   7.897  1.00 53.31     0.007 C 
HETATM   31  C29 VFQ 8 618     -35.881 130.970   8.998  1.00 13.13    -0.062 C 
HETATM   32  C30 VFQ 8 618     -36.740 131.923   8.635  1.00 13.13     0.007 C 
HETATM   33  C31 VFQ 8 618     -37.450 132.796   9.555  1.00 13.13     0.001 C 
HETATM   34  C32 VFQ 8 618     -37.771 133.998   9.097  1.00 13.13     0.007 C 
HETATM   35  C33 VFQ 8 618     -38.511 134.960   9.922  1.00 13.13    -0.062 C 
HETATM   36  C34 VFQ 8 618     -39.077 136.001   9.309  1.00 13.13     0.007 C 
HETATM   37  C35 VFQ 8 618     -39.861 136.997  10.022  1.00 13.13     0.001 C 
HETATM   38  C36 VFQ 8 618     -33.999 126.602   8.403  1.00 59.48     0.020 C 
HETATM   39  C37 VFQ 8 618     -35.435 126.891   6.438  1.00 57.14     0.020 C 
HETATM   40  C38 VFQ 8 618     -32.087 130.375   6.384  1.00 65.36     0.044 C 
HETATM   41  C39 VFQ 8 618     -35.551 130.693  10.431  1.00 13.13     0.048 C 
HETATM   42  C40 VFQ 8 618     -38.627 134.771  11.397  1.00 13.13     0.048 C 
HETATM   43  O23 VFQ 8 618     -32.944 126.284   3.792  1.00 51.54    -0.395 OA
ATOM     44  H23 VFQ 8 618     -32.556 126.681   3.022  1.00  0.00     0.210 HD
ENDROOT
TORSDOF 12
