REMARK VINA RESULT:    -9.063      1.048     16.587
REMARK INTER + INTRA:         -11.261
REMARK INTER:                 -10.965
REMARK INTRA:                  -0.296
REMARK UNBOUND:                -2.198
REMARK  0 active torsions:
REMARK  status: ('A' for Active; 'I' for Inactive)
REMARK       I    between atoms: C3_3  and  O3_21 
REMARK       I    between atoms: C6_6  and  C7_7 
REMARK       I    between atoms: C8_8  and  C9_9 
REMARK       I    between atoms: C10_10  and  C11_11 
REMARK       I    between atoms: C12_12  and  C13_13 
REMARK       I    between atoms: C14_14  and  C15_15 
REMARK       I    between atoms: C23_25  and  O23_43 
REMARK       I    between atoms: C26_28  and  C27_29 
REMARK       I    between atoms: C28_30  and  C29_31 
REMARK       I    between atoms: C30_32  and  C31_33 
REMARK       I    between atoms: C32_34  and  C33_35 
REMARK       I    between atoms: C34_36  and  C35_37 
ROOT
HETATM    1  C1  VFQ 8 619     -50.357 145.069  10.639  1.00 35.06    -0.018 C 
HETATM    2  C2  VFQ 8 619     -50.897 144.679  12.015  1.00 35.06     0.045 C 
HETATM    3  C3  VFQ 8 619     -50.260 145.394  13.201  1.00 35.06     0.123 C 
HETATM    4  C4  VFQ 8 619     -49.593 146.680  12.747  1.00 35.06     0.066 C 
HETATM    5  C5  VFQ 8 619     -48.543 146.260  11.763  1.00 35.06    -0.074 C 
HETATM    6  C6  VFQ 8 619     -48.940 145.585  10.682  1.00 35.06    -0.048 C 
HETATM    7  C7  VFQ 8 619     -48.000 145.173   9.624  1.00 35.06     0.009 C 
HETATM    8  C8  VFQ 8 619     -46.813 144.730  10.037  1.00 35.06     0.007 C 
HETATM    9  C9  VFQ 8 619     -45.880 144.102   9.082  1.00 35.06    -0.062 C 
HETATM   10  C10 VFQ 8 619     -44.945 143.288   9.592  1.00 35.06     0.007 C 
HETATM   11  C11 VFQ 8 619     -44.026 142.496   8.787  1.00 35.06     0.001 C 
HETATM   12  C12 VFQ 8 619     -43.255 141.609   9.399  1.00 35.06     0.007 C 
HETATM   13  C13 VFQ 8 619     -42.361 140.715   8.654  1.00 35.06    -0.062 C 
HETATM   14  C14 VFQ 8 619     -41.809 139.709   9.346  1.00 35.06     0.007 C 
HETATM   15  C15 VFQ 8 619     -40.930 138.694   8.779  1.00 35.06     0.001 C 
HETATM   16  C16 VFQ 8 619     -51.198 146.212  10.081  1.00 35.06     0.020 C 
HETATM   17  C17 VFQ 8 619     -50.440 143.882   9.692  1.00 35.06     0.020 C 
HETATM   18  C18 VFQ 8 619     -47.330 147.156  11.794  1.00 35.06     0.044 C 
HETATM   19  C19 VFQ 8 619     -46.058 144.352   7.613  1.00 35.06     0.048 C 
HETATM   20  C20 VFQ 8 619     -42.150 140.962   7.192  1.00 35.06     0.048 C 
HETATM   21  O3  VFQ 8 619     -51.263 145.712  14.173  1.00 35.06    -0.395 OA
ATOM     22  H3  VFQ 8 619     -50.866 146.158  14.911  1.00  0.00     0.210 HD
HETATM   23  C21 VFQ 8 619     -34.058 128.221   7.135  1.00 73.63    -0.018 C 
HETATM   24  C22 VFQ 8 619     -33.202 127.559   6.061  1.00 75.58     0.045 C 
HETATM   25  C23 VFQ 8 619     -31.737 127.960   6.068  1.00 77.85     0.123 C 
HETATM   26  C24 VFQ 8 619     -31.620 129.475   6.035  1.00 76.46     0.066 C 
HETATM   27  C25 VFQ 8 619     -32.388 130.090   7.178  1.00 74.82    -0.074 C 
HETATM   28  C26 VFQ 8 619     -33.520 129.547   7.645  1.00 72.89    -0.048 C 
HETATM   29  C27 VFQ 8 619     -34.301 130.235   8.701  1.00 69.76     0.009 C 
HETATM   30  C28 VFQ 8 619     -35.112 131.251   8.395  1.00 67.74     0.007 C 
HETATM   31  C29 VFQ 8 619     -35.924 131.950   9.401  1.00 35.06    -0.062 C 
HETATM   32  C30 VFQ 8 619     -36.688 132.947   8.936  1.00 35.06     0.007 C 
HETATM   33  C31 VFQ 8 619     -37.561 133.785   9.742  1.00 35.06     0.001 C 
HETATM   34  C32 VFQ 8 619     -38.198 134.761   9.109  1.00 35.06     0.007 C 
HETATM   35  C33 VFQ 8 619     -39.085 135.708   9.799  1.00 35.06    -0.062 C 
HETATM   36  C34 VFQ 8 619     -39.603 136.702   9.059  1.00 35.06     0.007 C 
HETATM   37  C35 VFQ 8 619     -40.483 137.741   9.583  1.00 35.06     0.001 C 
HETATM   38  C36 VFQ 8 619     -34.150 127.277   8.326  1.00 75.09     0.020 C 
HETATM   39  C37 VFQ 8 619     -35.454 128.432   6.557  1.00 73.62     0.020 C 
HETATM   40  C38 VFQ 8 619     -31.831 131.346   7.782  1.00 74.16     0.044 C 
HETATM   41  C39 VFQ 8 619     -35.872 131.521  10.836  1.00 35.06     0.048 C 
HETATM   42  C40 VFQ 8 619     -39.326 135.524  11.266  1.00 35.06     0.048 C 
HETATM   43  O23 VFQ 8 619     -31.101 127.411   4.907  1.00 79.25    -0.395 OA
ATOM     44  H23 VFQ 8 619     -31.174 126.464   4.927  1.00  0.00     0.210 HD
ENDROOT
TORSDOF 12
