REMARK VINA RESULT:   -12.677      0.000      0.000
REMARK INTER + INTRA:         -12.653
REMARK INTER:                 -12.677
REMARK INTRA:                   0.024
REMARK UNBOUND:                 0.024
REMARK  0 active torsions:
REMARK  status: ('A' for Active; 'I' for Inactive)
REMARK       I    between atoms: C3_3  and  O3_21 
REMARK       I    between atoms: C6_6  and  C7_7 
REMARK       I    between atoms: C8_8  and  C9_9 
REMARK       I    between atoms: C10_10  and  C11_11 
REMARK       I    between atoms: C12_12  and  C13_13 
REMARK       I    between atoms: C14_14  and  C15_15 
REMARK       I    between atoms: C23_25  and  O23_43 
REMARK       I    between atoms: C26_28  and  C27_29 
REMARK       I    between atoms: C28_30  and  C29_31 
REMARK       I    between atoms: C30_32  and  C31_33 
REMARK       I    between atoms: C32_34  and  C33_35 
REMARK       I    between atoms: C34_36  and  C35_37 
ROOT
HETATM    1  C1  VFQ G1620     -50.291 144.670  11.130  1.00 59.27    -0.018 C 
HETATM    2  C2  VFQ G1620     -51.208 145.229  12.206  1.00 64.60     0.045 C 
HETATM    3  C3  VFQ G1620     -50.513 146.030  13.285  1.00 63.28     0.123 C 
HETATM    4  C4  VFQ G1620     -49.694 147.130  12.662  1.00 61.00     0.066 C 
HETATM    5  C5  VFQ G1620     -48.720 146.553  11.674  1.00 64.87    -0.074 C 
HETATM    6  C6  VFQ G1620     -48.998 145.453  10.946  1.00 63.96    -0.048 C 
HETATM    7  C7  VFQ G1620     -48.061 144.984   9.890  1.00 64.82     0.009 C 
HETATM    8  C8  VFQ G1620     -47.014 144.195  10.151  1.00 58.91     0.007 C 
HETATM    9  C9  VFQ G1620     -46.100 143.724   9.109  1.00 59.76    -0.062 C 
HETATM   10  C10 VFQ G1620     -45.153 142.874   9.514  1.00 59.44     0.007 C 
HETATM   11  C11 VFQ G1620     -44.142 142.262   8.673  1.00 53.66     0.001 C 
HETATM   12  C12 VFQ G1620     -43.452 141.321   9.297  1.00 59.47     0.007 C 
HETATM   13  C13 VFQ G1620     -42.394 140.534   8.656  1.00 64.69    -0.062 C 
HETATM   14  C14 VFQ G1620     -41.896 139.505   9.346  1.00 66.67     0.007 C 
HETATM   15  C15 VFQ G1620     -40.869 138.630   8.801  1.00 73.65     0.001 C 
HETATM   16  C16 VFQ G1620     -51.137 144.613   9.863  1.00 56.55     0.020 C 
HETATM   17  C17 VFQ G1620     -49.892 143.255  11.522  1.00 59.14     0.020 C 
HETATM   18  C18 VFQ G1620     -47.493 147.396  11.460  1.00 61.00     0.044 C 
HETATM   19  C19 VFQ G1620     -46.234 144.200   7.694  1.00 55.95     0.048 C 
HETATM   20  C20 VFQ G1620     -41.914 140.873   7.279  1.00 67.83     0.048 C 
HETATM   21  O3  VFQ G1620     -51.497 146.611  14.143  1.00 73.40    -0.395 OA
ATOM     22  H3  VFQ G1620     -51.061 147.114  14.821  1.00  0.00     0.210 HD
HETATM   23  C21 VFQ G1620     -34.014 128.065   7.349  1.00 21.58    -0.018 C 
HETATM   24  C22 VFQ G1620     -33.221 127.205   6.342  1.00 21.20     0.045 C 
HETATM   25  C23 VFQ G1620     -31.912 127.727   5.744  1.00 20.61     0.123 C 
HETATM   26  C24 VFQ G1620     -31.588 129.199   6.048  1.00 19.82     0.066 C 
HETATM   27  C25 VFQ G1620     -32.310 129.954   7.121  1.00 19.81    -0.074 C 
HETATM   28  C26 VFQ G1620     -33.442 129.480   7.751  1.00 19.95    -0.048 C 
HETATM   29  C27 VFQ G1620     -34.183 130.213   8.819  1.00 17.10     0.009 C 
HETATM   30  C28 VFQ G1620     -35.070 131.206   8.588  1.00 17.58     0.007 C 
HETATM   31  C29 VFQ G1620     -35.827 131.979   9.536  1.00 93.82    -0.062 C 
HETATM   32  C30 VFQ G1620     -36.661 132.884   9.028  1.00 83.29     0.007 C 
HETATM   33  C31 VFQ G1620     -37.533 133.734   9.814  1.00 75.18     0.001 C 
HETATM   34  C32 VFQ G1620     -38.151 134.670   9.116  1.00 71.38     0.007 C 
HETATM   35  C33 VFQ G1620     -39.105 135.599   9.729  1.00 70.67    -0.062 C 
HETATM   36  C34 VFQ G1620     -39.605 136.578   8.967  1.00 74.09     0.007 C 
HETATM   37  C35 VFQ G1620     -40.589 137.521   9.475  1.00 74.87     0.001 C 
HETATM   38  C36 VFQ G1620     -34.218 127.193   8.610  1.00 19.38     0.020 C 
HETATM   39  C37 VFQ G1620     -35.382 128.209   6.644  1.00 19.65     0.020 C 
HETATM   40  C38 VFQ G1620     -31.582 131.226   7.367  1.00 20.06     0.044 C 
HETATM   41  C39 VFQ G1620     -35.680 131.753  11.010  1.00 99.93     0.048 C 
HETATM   42  C40 VFQ G1620     -39.515 135.418  11.155  1.00 65.73     0.048 C 
HETATM   43  O23 VFQ G1620     -31.887 127.501   4.343  1.00 18.88    -0.395 OA
ATOM     44  H23 VFQ G1620     -31.074 127.825   3.971  1.00  0.00     0.210 HD
ENDROOT
TORSDOF 12
