REMARK VINA RESULT:    -9.192      0.000      0.000
REMARK INTER + INTRA:         -12.152
REMARK INTER:                  -9.192
REMARK INTRA:                  -2.960
REMARK UNBOUND:                -2.960
REMARK  0 active torsions:
REMARK  status: ('A' for Active; 'I' for Inactive)
REMARK       I    between atoms: C3_3  and  O3_21 
REMARK       I    between atoms: C6_6  and  C7_7 
REMARK       I    between atoms: C8_8  and  C9_9 
REMARK       I    between atoms: C10_10  and  C11_11 
REMARK       I    between atoms: C12_12  and  C13_13 
REMARK       I    between atoms: C14_14  and  C15_15 
REMARK       I    between atoms: C23_25  and  O23_43 
REMARK       I    between atoms: C26_28  and  C27_29 
REMARK       I    between atoms: C28_30  and  C29_31 
REMARK       I    between atoms: C30_32  and  C31_33 
REMARK       I    between atoms: C32_34  and  C33_35 
REMARK       I    between atoms: C34_36  and  C35_37 
ROOT
HETATM    1  C1  VFQ Y1621     -47.688 145.695  12.822  1.00 26.19    -0.018 C 
HETATM    2  C2  VFQ Y1621     -48.396 146.304  14.026  1.00 26.65     0.045 C 
HETATM    3  C3  VFQ Y1621     -47.547 147.088  15.007  1.00 28.07     0.123 C 
HETATM    4  C4  VFQ Y1621     -46.502 147.913  14.301  1.00 30.07     0.066 C 
HETATM    5  C5  VFQ Y1621     -45.665 147.012  13.452  1.00 28.83    -0.074 C 
HETATM    6  C6  VFQ Y1621     -46.245 146.135  12.626  1.00 27.49    -0.048 C 
HETATM    7  C7  VFQ Y1621     -45.516 145.551  11.472  1.00 29.45     0.009 C 
HETATM    8  C8  VFQ Y1621     -44.572 144.619  11.617  1.00 27.83     0.007 C 
HETATM    9  C9  VFQ Y1621     -43.879 144.010  10.477  1.00 26.06    -0.062 C 
HETATM   10  C10 VFQ Y1621     -43.215 142.889  10.742  1.00 25.01     0.007 C 
HETATM   11  C11 VFQ Y1621     -42.510 142.096   9.758  1.00 25.09     0.001 C 
HETATM   12  C12 VFQ Y1621     -41.952 141.002  10.240  1.00 26.01     0.007 C 
HETATM   13  C13 VFQ Y1621     -41.256 140.025   9.402  1.00 26.36    -0.062 C 
HETATM   14  C14 VFQ Y1621     -40.814 138.910   9.990  1.00 27.67     0.007 C 
HETATM   15  C15 VFQ Y1621     -40.147 137.870   9.224  1.00 28.38     0.001 C 
HETATM   16  C16 VFQ Y1621     -48.537 146.088  11.627  1.00 26.46     0.020 C 
HETATM   17  C17 VFQ Y1621     -47.681 144.181  12.967  1.00 26.61     0.020 C 
HETATM   18  C18 VFQ Y1621     -44.451 147.801  13.087  1.00 29.43     0.044 C 
HETATM   19  C19 VFQ Y1621     -43.935 144.606   9.106  1.00 26.07     0.048 C 
HETATM   20  C20 VFQ Y1621     -41.106 140.254   7.929  1.00 25.83     0.048 C 
HETATM   21  O3  VFQ Y1621     -48.394 147.961  15.751  1.00 27.44    -0.395 OA
ATOM     22  H3  VFQ Y1621     -47.862 148.452  16.366  1.00  0.00     0.210 HD
HETATM   23  C21 VFQ Y1621     -34.394 126.725   6.371  1.00 19.07    -0.018 C 
HETATM   24  C22 VFQ Y1621     -33.799 125.924   5.197  1.00 18.69     0.045 C 
HETATM   25  C23 VFQ Y1621     -32.449 126.382   4.651  1.00 19.88     0.123 C 
HETATM   26  C24 VFQ Y1621     -32.263 127.909   4.659  1.00 19.59     0.066 C 
HETATM   27  C25 VFQ Y1621     -32.886 128.684   5.778  1.00 18.61    -0.074 C 
HETATM   28  C26 VFQ Y1621     -33.875 128.172   6.592  1.00 18.29    -0.048 C 
HETATM   29  C27 VFQ Y1621     -34.463 128.971   7.688  1.00 19.20     0.009 C 
HETATM   30  C28 VFQ Y1621     -35.385 129.962   7.600  1.00 18.47     0.007 C 
HETATM   31  C29 VFQ Y1621     -35.812 130.831   8.660  1.00 29.73    -0.062 C 
HETATM   32  C30 VFQ Y1621     -36.887 131.579   8.431  1.00 28.64     0.007 C 
HETATM   33  C31 VFQ Y1621     -37.445 132.508   9.391  1.00 27.79     0.001 C 
HETATM   34  C32 VFQ Y1621     -37.999 133.583   8.858  1.00 27.11     0.007 C 
HETATM   35  C33 VFQ Y1621     -38.620 134.628   9.669  1.00 25.78    -0.062 C 
HETATM   36  C34 VFQ Y1621     -39.114 135.715   9.073  1.00 26.10     0.007 C 
HETATM   37  C35 VFQ Y1621     -39.758 136.768   9.842  1.00 27.22     0.001 C 
HETATM   38  C36 VFQ Y1621     -34.211 125.895   7.656  1.00 17.04     0.020 C 
HETATM   39  C37 VFQ Y1621     -35.890 126.748   6.010  1.00 20.18     0.020 C 
HETATM   40  C38 VFQ Y1621     -32.234 130.017   5.806  1.00 19.93     0.044 C 
HETATM   41  C39 VFQ Y1621     -35.062 130.856   9.949  1.00 32.37     0.048 C 
HETATM   42  C40 VFQ Y1621     -38.695 134.448  11.142  1.00 25.14     0.048 C 
HETATM   43  O23 VFQ Y1621     -32.238 125.863   3.346  1.00 19.51    -0.395 OA
ATOM     44  H23 VFQ Y1621     -31.398 126.148   3.006  1.00  0.00     0.210 HD
ENDROOT
TORSDOF 12
