REMARK VINA RESULT:    -7.280      1.429     16.606
REMARK INTER + INTRA:          -9.904
REMARK INTER:                  -5.541
REMARK INTRA:                  -4.363
REMARK UNBOUND:                -2.624
REMARK  0 active torsions:
REMARK  status: ('A' for Active; 'I' for Inactive)
REMARK       I    between atoms: C3_3  and  O3_21 
REMARK       I    between atoms: C6_6  and  C7_7 
REMARK       I    between atoms: C8_8  and  C9_9 
REMARK       I    between atoms: C10_10  and  C11_11 
REMARK       I    between atoms: C12_12  and  C13_13 
REMARK       I    between atoms: C14_14  and  C15_15 
REMARK       I    between atoms: C23_25  and  O23_43 
REMARK       I    between atoms: C26_28  and  C27_29 
REMARK       I    between atoms: C28_30  and  C29_31 
REMARK       I    between atoms: C30_32  and  C31_33 
REMARK       I    between atoms: C32_34  and  C33_35 
REMARK       I    between atoms: C34_36  and  C35_37 
ROOT
HETATM    1  C1  VFQ s1620     -48.169 145.055  12.236  1.00 51.12    -0.018 C 
HETATM    2  C2  VFQ s1620     -48.847 145.315  13.574  1.00 51.12     0.045 C 
HETATM    3  C3  VFQ s1620     -48.225 146.309  14.545  1.00 51.12     0.123 C 
HETATM    4  C4  VFQ s1620     -47.197 147.210  13.896  1.00 51.12     0.066 C 
HETATM    5  C5  VFQ s1620     -46.255 146.385  13.082  1.00 51.12    -0.074 C 
HETATM    6  C6  VFQ s1620     -46.742 145.552  12.169  1.00 51.12    -0.048 C 
HETATM    7  C7  VFQ s1620     -45.905 145.099  11.042  1.00 51.12     0.009 C 
HETATM    8  C8  VFQ s1620     -45.033 144.116  11.212  1.00 51.12     0.007 C 
HETATM    9  C9  VFQ s1620     -44.215 143.630  10.105  1.00 51.12    -0.062 C 
HETATM   10  C10 VFQ s1620     -43.354 142.661  10.409  1.00 51.12     0.007 C 
HETATM   11  C11 VFQ s1620     -42.464 141.996   9.479  1.00 51.12     0.001 C 
HETATM   12  C12 VFQ s1620     -41.980 140.874   9.982  1.00 51.12     0.007 C 
HETATM   13  C13 VFQ s1620     -41.084 139.971   9.264  1.00 51.12    -0.062 C 
HETATM   14  C14 VFQ s1620     -40.783 138.819   9.864  1.00 51.12     0.007 C 
HETATM   15  C15 VFQ s1620     -39.943 137.819   9.231  1.00 51.12     0.001 C 
HETATM   16  C16 VFQ s1620     -49.045 145.659  11.144  1.00 51.12     0.020 C 
HETATM   17  C17 VFQ s1620     -48.127 143.553  12.021  1.00 51.12     0.020 C 
HETATM   18  C18 VFQ s1620     -45.073 147.266  12.822  1.00 51.12     0.044 C 
HETATM   19  C19 VFQ s1620     -44.372 144.198   8.730  1.00 51.12     0.048 C 
HETATM   20  C20 VFQ s1620     -40.554 140.328   7.917  1.00 51.12     0.048 C 
HETATM   21  O3  VFQ s1620     -49.262 147.153  15.053  1.00 51.12    -0.395 OA
ATOM     22  H3  VFQ s1620     -49.907 146.586  15.460  1.00  0.00     0.210 HD
HETATM   23  C21 VFQ s1620     -34.827 127.485   5.162  1.00 56.99    -0.018 C 
HETATM   24  C22 VFQ s1620     -34.143 126.409   4.320  1.00 56.99     0.045 C 
HETATM   25  C23 VFQ s1620     -32.622 126.344   4.346  1.00 56.99     0.123 C 
HETATM   26  C24 VFQ s1620     -32.006 127.711   4.576  1.00 56.99     0.066 C 
HETATM   27  C25 VFQ s1620     -32.584 128.300   5.829  1.00 56.99    -0.074 C 
HETATM   28  C26 VFQ s1620     -33.892 128.249   6.078  1.00 56.99    -0.048 C 
HETATM   29  C27 VFQ s1620     -34.440 128.934   7.279  1.00 56.99     0.009 C 
HETATM   30  C28 VFQ s1620     -34.925 130.175   7.214  1.00 56.99     0.007 C 
HETATM   31  C29 VFQ s1620     -35.474 130.884   8.364  1.00 51.12    -0.062 C 
HETATM   32  C30 VFQ s1620     -36.409 131.809   8.137  1.00 51.12     0.007 C 
HETATM   33  C31 VFQ s1620     -37.068 132.570   9.185  1.00 51.12     0.001 C 
HETATM   34  C32 VFQ s1620     -37.719 133.651   8.785  1.00 51.12     0.007 C 
HETATM   35  C33 VFQ s1620     -38.472 134.531   9.688  1.00 51.12    -0.062 C 
HETATM   36  C34 VFQ s1620     -38.920 135.672   9.163  1.00 51.12     0.007 C 
HETATM   37  C35 VFQ s1620     -39.722 136.667   9.855  1.00 51.12     0.001 C 
HETATM   38  C36 VFQ s1620     -35.841 126.790   6.046  1.00 56.99     0.020 C 
HETATM   39  C37 VFQ s1620     -35.581 128.419   4.217  1.00 56.99     0.020 C 
HETATM   40  C38 VFQ s1620     -31.623 128.927   6.789  1.00 56.99     0.044 C 
HETATM   41  C39 VFQ s1620     -34.999 130.570   9.747  1.00 51.12     0.048 C 
HETATM   42  C40 VFQ s1620     -38.740 134.141  11.108  1.00 51.12     0.048 C 
HETATM   43  O23 VFQ s1620     -32.160 125.850   3.086  1.00 56.99    -0.395 OA
ATOM     44  H23 VFQ s1620     -31.211 125.810   3.102  1.00  0.00     0.210 HD
ENDROOT
TORSDOF 12
