REMARK VINA RESULT:    -8.700      0.000      0.000
REMARK INTER + INTRA:         -10.938
REMARK INTER:                  -8.700
REMARK INTRA:                  -2.238
REMARK UNBOUND:                -2.238
REMARK  0 active torsions:
REMARK  status: ('A' for Active; 'I' for Inactive)
REMARK       I    between atoms: C3_3  and  O3_21 
REMARK       I    between atoms: C6_6  and  C7_7 
REMARK       I    between atoms: C8_8  and  C9_9 
REMARK       I    between atoms: C10_10  and  C11_11 
REMARK       I    between atoms: C12_12  and  C13_13 
REMARK       I    between atoms: C14_14  and  C15_15 
REMARK       I    between atoms: C23_25  and  O23_43 
REMARK       I    between atoms: C26_28  and  C27_29 
REMARK       I    between atoms: C28_30  and  C29_31 
REMARK       I    between atoms: C30_32  and  C31_33 
REMARK       I    between atoms: C32_34  and  C33_35 
REMARK       I    between atoms: C34_36  and  C35_37 
ROOT
HETATM    1  C1  VFQ F5620     -34.527 127.206   6.351  1.00 19.30    -0.018 C 
HETATM    2  C2  VFQ F5620     -33.990 126.591   5.045  1.00 17.68     0.045 C 
HETATM    3  C3  VFQ F5620     -32.741 127.193   4.408  1.00 17.79     0.123 C 
HETATM    4  C4  VFQ F5620     -31.857 128.017   5.346  1.00 18.50     0.066 C 
HETATM    5  C5  VFQ F5620     -32.498 128.767   6.468  1.00 19.40    -0.074 C 
HETATM    6  C6  VFQ F5620     -33.741 128.414   6.955  1.00 19.02    -0.048 C 
HETATM    7  C7  VFQ F5620     -34.381 129.163   8.048  1.00 18.60     0.009 C 
HETATM    8  C8  VFQ F5620     -35.004 130.356   7.953  1.00 18.09     0.007 C 
HETATM    9  C9  VFQ F5620     -35.539 131.164   9.053  1.00 18.23    -0.062 C 
HETATM   10  C10 VFQ F5620     -36.222 132.285   8.734  1.00 15.81     0.007 C 
HETATM   11  C11 VFQ F5620     -36.841 133.204   9.649  1.00 18.00     0.001 C 
HETATM   12  C12 VFQ F5620     -37.639 134.175   9.176  1.00 18.12     0.007 C 
HETATM   13  C13 VFQ F5620     -38.406 135.178   9.903  1.00 18.88    -0.062 C 
HETATM   14  C14 VFQ F5620     -39.221 135.975   9.181  1.00 21.10     0.007 C 
HETATM   15  C15 VFQ F5620     -40.138 136.973   9.665  1.00 24.06     0.001 C 
HETATM   16  C16 VFQ F5620     -34.500 126.025   7.337  1.00 17.17     0.020 C 
HETATM   17  C17 VFQ F5620     -36.004 127.584   6.100  1.00 16.95     0.020 C 
HETATM   18  C18 VFQ F5620     -31.587 129.874   6.891  1.00 19.80     0.044 C 
HETATM   19  C19 VFQ F5620     -35.334 130.659  10.463  1.00 17.09     0.048 C 
HETATM   20  C20 VFQ F5620     -38.295 135.207  11.396  1.00 16.35     0.048 C 
HETATM   21  O3  VFQ F5620     -31.973 126.179   3.786  1.00 17.38    -0.395 OA
ATOM     22  H3  VFQ F5620     -31.195 126.554   3.389  1.00  0.00     0.210 HD
HETATM   23  C21 VFQ F5620     -50.034 144.994  11.413  1.00 27.53    -0.018 C 
HETATM   24  C22 VFQ F5620     -50.762 145.481  12.664  1.00 27.53     0.045 C 
HETATM   25  C23 VFQ F5620     -49.869 146.358  13.519  1.00 27.53     0.123 C 
HETATM   26  C24 VFQ F5620     -48.725 145.474  13.959  1.00 27.53     0.066 C 
HETATM   27  C25 VFQ F5620     -47.901 145.262  12.721  1.00 27.53    -0.074 C 
HETATM   28  C26 VFQ F5620     -48.515 145.047  11.533  1.00 27.53    -0.048 C 
HETATM   29  C27 VFQ F5620     -47.734 144.651  10.343  1.00 27.53     0.009 C 
HETATM   30  C28 VFQ F5620     -46.842 143.680  10.557  1.00 27.53     0.007 C 
HETATM   31  C29 VFQ F5620     -46.100 143.010   9.439  1.00 26.61    -0.062 C 
HETATM   32  C30 VFQ F5620     -45.228 142.043   9.792  1.00 25.24     0.007 C 
HETATM   33  C31 VFQ F5620     -44.445 141.230   8.908  1.00 26.40     0.001 C 
HETATM   34  C32 VFQ F5620     -43.570 140.322   9.379  1.00 26.29     0.007 C 
HETATM   35  C33 VFQ F5620     -42.688 139.425   8.625  1.00 26.99    -0.062 C 
HETATM   36  C34 VFQ F5620     -41.862 138.623   9.331  1.00 26.65     0.007 C 
HETATM   37  C35 VFQ F5620     -40.911 137.673   8.827  1.00 25.43     0.001 C 
HETATM   38  C36 VFQ F5620     -50.539 145.811  10.227  1.00 27.53     0.020 C 
HETATM   39  C37 VFQ F5620     -50.388 143.524  11.201  1.00 27.53     0.020 C 
HETATM   40  C38 VFQ F5620     -46.415 145.473  12.895  1.00 27.53     0.044 C 
HETATM   41  C39 VFQ F5620     -46.353 143.439   8.015  1.00 26.87     0.048 C 
HETATM   42  C40 VFQ F5620     -42.746 139.480   7.127  1.00 24.17     0.048 C 
HETATM   43  O23 VFQ F5620     -50.562 146.878  14.657  1.00 27.53    -0.395 OA
ATOM     44  H23 VFQ F5620     -51.282 147.434  14.380  1.00  0.00     0.210 HD
ENDROOT
TORSDOF 12
