REMARK VINA RESULT:    -8.508      0.000      0.000
REMARK INTER + INTRA:         -10.585
REMARK INTER:                  -8.508
REMARK INTRA:                  -2.077
REMARK UNBOUND:                -2.077
REMARK  0 active torsions:
REMARK  status: ('A' for Active; 'I' for Inactive)
REMARK       I    between atoms: C3_3  and  O3_21 
REMARK       I    between atoms: C6_6  and  C7_7 
REMARK       I    between atoms: C8_8  and  C9_9 
REMARK       I    between atoms: C10_10  and  C11_11 
REMARK       I    between atoms: C12_12  and  C13_13 
REMARK       I    between atoms: C14_14  and  C15_15 
REMARK       I    between atoms: C23_25  and  O23_43 
REMARK       I    between atoms: C26_28  and  C27_29 
REMARK       I    between atoms: C28_30  and  C29_31 
REMARK       I    between atoms: C30_32  and  C31_33 
REMARK       I    between atoms: C32_34  and  C33_35 
REMARK       I    between atoms: C34_36  and  C35_37 
ROOT
HETATM    1  C1  VFQ 8 618     -47.543 145.641  12.621  1.00 13.13    -0.018 C 
HETATM    2  C2  VFQ 8 618     -48.522 146.248  13.617  1.00 13.13     0.045 C 
HETATM    3  C3  VFQ 8 618     -47.895 146.785  14.882  1.00 13.13     0.123 C 
HETATM    4  C4  VFQ 8 618     -46.777 147.733  14.529  1.00 13.13     0.066 C 
HETATM    5  C5  VFQ 8 618     -45.766 147.068  13.637  1.00 13.13    -0.074 C 
HETATM    6  C6  VFQ 8 618     -46.118 146.165  12.706  1.00 13.13    -0.048 C 
HETATM    7  C7  VFQ 8 618     -45.154 145.679  11.678  1.00 13.13     0.009 C 
HETATM    8  C8  VFQ 8 618     -44.241 144.719  11.879  1.00 13.13     0.007 C 
HETATM    9  C9  VFQ 8 618     -43.324 144.264  10.818  1.00 13.13    -0.062 C 
HETATM   10  C10 VFQ 8 618     -42.768 143.060  10.966  1.00 13.13     0.007 C 
HETATM   11  C11 VFQ 8 618     -41.861 142.435  10.011  1.00 13.13     0.001 C 
HETATM   12  C12 VFQ 8 618     -41.677 141.143  10.239  1.00 13.13     0.007 C 
HETATM   13  C13 VFQ 8 618     -40.857 140.198   9.468  1.00 13.13    -0.062 C 
HETATM   14  C14 VFQ 8 618     -40.600 139.001  10.017  1.00 13.13     0.007 C 
HETATM   15  C15 VFQ 8 618     -39.833 137.989   9.311  1.00 13.13     0.001 C 
HETATM   16  C16 VFQ 8 618     -48.145 145.912  11.252  1.00 13.13     0.020 C 
HETATM   17  C17 VFQ 8 618     -47.475 144.143  12.872  1.00 13.13     0.020 C 
HETATM   18  C18 VFQ 8 618     -44.431 147.747  13.647  1.00 13.13     0.044 C 
HETATM   19  C19 VFQ 8 618     -43.026 145.115   9.622  1.00 13.13     0.048 C 
HETATM   20  C20 VFQ 8 618     -40.356 140.533   8.101  1.00 13.13     0.048 C 
HETATM   21  O3  VFQ 8 618     -48.889 147.513  15.603  1.00 13.13    -0.395 OA
ATOM     22  H3  VFQ 8 618     -49.594 146.916  15.826  1.00  0.00     0.210 HD
HETATM   23  C21 VFQ 8 618     -34.313 126.724   6.463  1.00 47.88    -0.018 C 
HETATM   24  C22 VFQ 8 618     -34.083 126.208   5.056  1.00 47.88     0.045 C 
HETATM   25  C23 VFQ 8 618     -32.704 126.607   4.571  1.00 47.88     0.123 C 
HETATM   26  C24 VFQ 8 618     -32.647 128.118   4.444  1.00 47.88     0.066 C 
HETATM   27  C25 VFQ 8 618     -33.041 128.760   5.747  1.00 47.88    -0.074 C 
HETATM   28  C26 VFQ 8 618     -33.906 128.179   6.588  1.00 47.88    -0.048 C 
HETATM   29  C27 VFQ 8 618     -34.477 128.963   7.702  1.00 47.88     0.009 C 
HETATM   30  C28 VFQ 8 618     -35.472 129.822   7.499  1.00 47.88     0.007 C 
HETATM   31  C29 VFQ 8 618     -36.037 130.584   8.635  1.00 13.13    -0.062 C 
HETATM   32  C30 VFQ 8 618     -36.825 131.607   8.300  1.00 13.13     0.007 C 
HETATM   33  C31 VFQ 8 618     -37.502 132.478   9.245  1.00 13.13     0.001 C 
HETATM   34  C32 VFQ 8 618     -37.735 133.718   8.840  1.00 13.13     0.007 C 
HETATM   35  C33 VFQ 8 618     -38.435 134.684   9.694  1.00 13.13    -0.062 C 
HETATM   36  C34 VFQ 8 618     -38.919 135.789   9.121  1.00 13.13     0.007 C 
HETATM   37  C35 VFQ 8 618     -39.657 136.796   9.864  1.00 13.13     0.001 C 
HETATM   38  C36 VFQ 8 618     -33.486 125.907   7.445  1.00 47.88     0.020 C 
HETATM   39  C37 VFQ 8 618     -35.788 126.540   6.801  1.00 47.88     0.020 C 
HETATM   40  C38 VFQ 8 618     -32.413 130.086   6.065  1.00 47.88     0.044 C 
HETATM   41  C39 VFQ 8 618     -35.763 130.218  10.060  1.00 13.13     0.048 C 
HETATM   42  C40 VFQ 8 618     -38.603 134.432  11.155  1.00 13.13     0.048 C 
HETATM   43  O23 VFQ 8 618     -32.444 125.999   3.305  1.00 47.88    -0.395 OA
ATOM     44  H23 VFQ 8 618     -31.580 126.249   3.001  1.00  0.00     0.210 HD
ENDROOT
TORSDOF 12
