REMARK VINA RESULT:    -6.163      1.145     16.819
REMARK INTER + INTRA:          -9.258
REMARK INTER:                  -9.179
REMARK INTRA:                  -0.079
REMARK UNBOUND:                -3.095
REMARK  0 active torsions:
REMARK  status: ('A' for Active; 'I' for Inactive)
REMARK       I    between atoms: C3_3  and  O3_21 
REMARK       I    between atoms: C6_6  and  C7_7 
REMARK       I    between atoms: C8_8  and  C9_9 
REMARK       I    between atoms: C10_10  and  C11_11 
REMARK       I    between atoms: C12_12  and  C13_13 
REMARK       I    between atoms: C14_14  and  C15_15 
REMARK       I    between atoms: C23_25  and  O23_43 
REMARK       I    between atoms: C26_28  and  C27_29 
REMARK       I    between atoms: C28_30  and  C29_31 
REMARK       I    between atoms: C30_32  and  C31_33 
REMARK       I    between atoms: C32_34  and  C33_35 
REMARK       I    between atoms: C34_36  and  C35_37 
ROOT
HETATM    1  C1  VFQ G1621     -50.860 144.578  11.127  1.00 57.09    -0.018 C 
HETATM    2  C2  VFQ G1621     -51.560 145.013  12.408  1.00 57.09     0.045 C 
HETATM    3  C3  VFQ G1621     -50.960 146.180  13.169  1.00 57.09     0.123 C 
HETATM    4  C4  VFQ G1621     -50.409 147.213  12.211  1.00 57.09     0.066 C 
HETATM    5  C5  VFQ G1621     -49.382 146.556  11.336  1.00 57.09    -0.074 C 
HETATM    6  C6  VFQ G1621     -49.652 145.397  10.725  1.00 57.09    -0.048 C 
HETATM    7  C7  VFQ G1621     -48.797 144.881   9.622  1.00 57.09     0.009 C 
HETATM    8  C8  VFQ G1621     -47.652 144.233   9.860  1.00 57.09     0.007 C 
HETATM    9  C9  VFQ G1621     -46.781 143.687   8.806  1.00 57.09    -0.062 C 
HETATM   10  C10 VFQ G1621     -45.960 142.705   9.187  1.00 57.09     0.007 C 
HETATM   11  C11 VFQ G1621     -45.022 141.975   8.345  1.00 57.09     0.001 C 
HETATM   12  C12 VFQ G1621     -44.360 141.006   8.969  1.00 57.09     0.007 C 
HETATM   13  C13 VFQ G1621     -43.395 140.109   8.319  1.00 57.09    -0.062 C 
HETATM   14  C14 VFQ G1621     -42.723 139.231   9.076  1.00 57.09     0.007 C 
HETATM   15  C15 VFQ G1621     -41.789 138.278   8.491  1.00 57.09     0.001 C 
HETATM   16  C16 VFQ G1621     -51.908 144.581  10.025  1.00 57.09     0.020 C 
HETATM   17  C17 VFQ G1621     -50.371 143.163  11.342  1.00 57.09     0.020 C 
HETATM   18  C18 VFQ G1621     -48.405 147.550  10.781  1.00 57.09     0.044 C 
HETATM   19  C19 VFQ G1621     -46.816 144.203   7.400  1.00 57.09     0.048 C 
HETATM   20  C20 VFQ G1621     -43.214 140.151   6.834  1.00 57.09     0.048 C 
HETATM   21  O3  VFQ G1621     -52.002 146.778  13.941  1.00 57.09    -0.395 OA
ATOM     22  H3  VFQ G1621     -52.348 146.129  14.543  1.00  0.00     0.210 HD
HETATM   23  C21 VFQ G1621     -34.055 128.300   7.419  1.00 40.88    -0.018 C 
HETATM   24  C22 VFQ G1621     -33.004 127.336   6.866  1.00 40.88     0.045 C 
HETATM   25  C23 VFQ G1621     -31.703 127.924   6.331  1.00 40.88     0.123 C 
HETATM   26  C24 VFQ G1621     -31.912 129.310   5.751  1.00 40.88     0.066 C 
HETATM   27  C25 VFQ G1621     -32.531 130.165   6.823  1.00 40.88    -0.074 C 
HETATM   28  C26 VFQ G1621     -33.575 129.732   7.539  1.00 40.88    -0.048 C 
HETATM   29  C27 VFQ G1621     -34.262 130.651   8.491  1.00 40.88     0.009 C 
HETATM   30  C28 VFQ G1621     -35.338 131.359   8.151  1.00 40.88     0.007 C 
HETATM   31  C29 VFQ G1621     -36.032 132.266   9.076  1.00 57.09    -0.062 C 
HETATM   32  C30 VFQ G1621     -37.200 132.760   8.662  1.00 57.09     0.007 C 
HETATM   33  C31 VFQ G1621     -38.015 133.673   9.447  1.00 57.09     0.001 C 
HETATM   34  C32 VFQ G1621     -38.689 134.587   8.763  1.00 57.09     0.007 C 
HETATM   35  C33 VFQ G1621     -39.554 135.570   9.416  1.00 57.09    -0.062 C 
HETATM   36  C34 VFQ G1621     -40.315 136.382   8.678  1.00 57.09     0.007 C 
HETATM   37  C35 VFQ G1621     -41.215 137.367   9.267  1.00 57.09     0.001 C 
HETATM   38  C36 VFQ G1621     -34.420 127.845   8.822  1.00 40.88     0.020 C 
HETATM   39  C37 VFQ G1621     -35.298 128.189   6.540  1.00 40.88     0.020 C 
HETATM   40  C38 VFQ G1621     -31.909 131.500   7.083  1.00 40.88     0.044 C 
HETATM   41  C39 VFQ G1621     -35.448 132.624  10.407  1.00 57.09     0.048 C 
HETATM   42  C40 VFQ G1621     -39.538 135.640  10.898  1.00 57.09     0.048 C 
HETATM   43  O23 VFQ G1621     -31.205 127.064   5.300  1.00 40.88    -0.395 OA
ATOM     44  H23 VFQ G1621     -30.394 127.430   4.967  1.00  0.00     0.210 HD
ENDROOT
TORSDOF 12
