REMARK VINA RESULT:   -11.233      0.000      0.000
REMARK INTER + INTRA:         -11.579
REMARK INTER:                 -11.233
REMARK INTRA:                  -0.346
REMARK UNBOUND:                -0.346
REMARK  0 active torsions:
REMARK  status: ('A' for Active; 'I' for Inactive)
REMARK       I    between atoms: C3_3  and  O3_21 
REMARK       I    between atoms: C6_6  and  C7_7 
REMARK       I    between atoms: C8_8  and  C9_9 
REMARK       I    between atoms: C10_10  and  C11_11 
REMARK       I    between atoms: C12_12  and  C13_13 
REMARK       I    between atoms: C14_14  and  C15_15 
REMARK       I    between atoms: C23_25  and  O23_43 
REMARK       I    between atoms: C26_28  and  C27_29 
REMARK       I    between atoms: C28_30  and  C29_31 
REMARK       I    between atoms: C30_32  and  C31_33 
REMARK       I    between atoms: C32_34  and  C33_35 
REMARK       I    between atoms: C34_36  and  C35_37 
ROOT
HETATM    1  C1  VFQ 4 616     -34.195 128.076   6.938  1.00 72.69    -0.018 C 
HETATM    2  C2  VFQ 4 616     -33.517 127.652   5.636  1.00 72.50     0.045 C 
HETATM    3  C3  VFQ 4 616     -32.190 128.312   5.273  1.00 72.53     0.123 C 
HETATM    4  C4  VFQ 4 616     -31.410 128.753   6.499  1.00 73.67     0.066 C 
HETATM    5  C5  VFQ 4 616     -32.284 129.611   7.372  1.00 74.71    -0.074 C 
HETATM    6  C6  VFQ 4 616     -33.533 129.239   7.646  1.00 74.26    -0.048 C 
HETATM    7  C7  VFQ 4 616     -34.332 129.980   8.648  1.00 75.37     0.009 C 
HETATM    8  C8  VFQ 4 616     -34.961 131.100   8.291  1.00 77.10     0.007 C 
HETATM    9  C9  VFQ 4 616     -35.786 131.876   9.237  1.00 78.39    -0.062 C 
HETATM   10  C10 VFQ 4 616     -36.426 132.965   8.783  1.00 81.08     0.007 C 
HETATM   11  C11 VFQ 4 616     -37.283 133.797   9.628  1.00 84.31     0.001 C 
HETATM   12  C12 VFQ 4 616     -38.031 134.708   9.011  1.00 87.06     0.007 C 
HETATM   13  C13 VFQ 4 616     -38.968 135.611   9.707  1.00 89.04    -0.062 C 
HETATM   14  C14 VFQ 4 616     -39.743 136.406   8.950  1.00 90.91     0.007 C 
HETATM   15  C15 VFQ 4 616     -40.734 137.325   9.504  1.00 91.21     0.001 C 
HETATM   16  C16 VFQ 4 616     -34.216 126.877   7.877  1.00 72.40     0.020 C 
HETATM   17  C17 VFQ 4 616     -35.627 128.492   6.628  1.00 73.92     0.020 C 
HETATM   18  C18 VFQ 4 616     -31.576 130.621   8.225  1.00 74.98     0.044 C 
HETATM   19  C19 VFQ 4 616     -35.910 131.445  10.668  1.00 77.08     0.048 C 
HETATM   20  C20 VFQ 4 616     -39.062 135.629  11.204  1.00 88.60     0.048 C 
HETATM   21  O3  VFQ 4 616     -31.399 127.364   4.549  1.00 71.08    -0.395 OA
ATOM     22  H3  VFQ 4 616     -31.887 127.088   3.781  1.00  0.00     0.210 HD
HETATM   23  C21 VFQ 4 616     -50.901 144.667  10.189  1.00 57.79    -0.018 C 
HETATM   24  C22 VFQ 4 616     -51.825 145.332  11.194  1.00 59.26     0.045 C 
HETATM   25  C23 VFQ 4 616     -51.719 146.840  11.201  1.00 62.25     0.123 C 
HETATM   26  C24 VFQ 4 616     -50.308 147.231  11.558  1.00 57.83     0.066 C 
HETATM   27  C25 VFQ 4 616     -49.306 146.551  10.667  1.00 54.66    -0.074 C 
HETATM   28  C26 VFQ 4 616     -49.558 145.378  10.043  1.00 55.29    -0.048 C 
HETATM   29  C27 VFQ 4 616     -48.537 144.774   9.146  1.00 55.61     0.009 C 
HETATM   30  C28 VFQ 4 616     -47.552 143.994   9.593  1.00 56.19     0.007 C 
HETATM   31  C29 VFQ 4 616     -46.554 143.398   8.706  1.00 94.55    -0.062 C 
HETATM   32  C30 VFQ 4 616     -45.840 142.357   9.155  1.00 95.44     0.007 C 
HETATM   33  C31 VFQ 4 616     -44.828 141.660   8.362  1.00 95.37     0.001 C 
HETATM   34  C32 VFQ 4 616     -44.163 140.694   8.989  1.00 94.20     0.007 C 
HETATM   35  C33 VFQ 4 616     -43.120 139.851   8.377  1.00 92.43    -0.062 C 
HETATM   36  C34 VFQ 4 616     -42.451 139.002   9.174  1.00 91.40     0.007 C 
HETATM   37  C35 VFQ 4 616     -41.425 138.099   8.666  1.00 91.41     0.001 C 
HETATM   38  C36 VFQ 4 616     -51.570 144.685   8.824  1.00 58.39     0.020 C 
HETATM   39  C37 VFQ 4 616     -50.785 143.214  10.638  1.00 64.45     0.020 C 
HETATM   40  C38 VFQ 4 616     -48.012 147.302  10.548  1.00 58.11     0.044 C 
HETATM   41  C39 VFQ 4 616     -46.339 143.945   7.325  1.00 93.92     0.048 C 
HETATM   42  C40 VFQ 4 616     -42.832 139.929   6.908  1.00 91.99     0.048 C 
HETATM   43  O23 VFQ 4 616     -52.596 147.382  12.189  1.00 65.91    -0.395 OA
ATOM     44  H23 VFQ 4 616     -53.486 147.136  11.964  1.00  0.00     0.210 HD
ENDROOT
TORSDOF 12
