REMARK VINA RESULT:    -6.967      0.000      0.000
REMARK INTER + INTRA:         -13.513
REMARK INTER:                  -6.967
REMARK INTRA:                  -6.546
REMARK UNBOUND:                -6.546
REMARK  0 active torsions:
REMARK  status: ('A' for Active; 'I' for Inactive)
REMARK       I    between atoms: C3_3  and  O3_21 
REMARK       I    between atoms: C6_6  and  C7_7 
REMARK       I    between atoms: C8_8  and  C9_9 
REMARK       I    between atoms: C10_10  and  C11_11 
REMARK       I    between atoms: C12_12  and  C13_13 
REMARK       I    between atoms: C14_14  and  C15_15 
REMARK       I    between atoms: C23_25  and  O23_43 
REMARK       I    between atoms: C26_28  and  C27_29 
REMARK       I    between atoms: C28_30  and  C29_31 
REMARK       I    between atoms: C30_32  and  C31_33 
REMARK       I    between atoms: C32_34  and  C33_35 
REMARK       I    between atoms: C34_36  and  C35_37 
ROOT
HETATM    1  C1  VFQ 1 617     -49.620 149.989   7.390  1.00 38.90    -0.018 C 
HETATM    2  C2  VFQ 1 617     -50.105 149.655   5.980  1.00 38.90     0.045 C 
HETATM    3  C3  VFQ 1 617     -51.393 148.841   5.905  1.00 38.90     0.123 C 
HETATM    4  C4  VFQ 1 617     -52.187 148.989   7.189  1.00 38.90     0.066 C 
HETATM    5  C5  VFQ 1 617     -51.307 148.450   8.279  1.00 38.90    -0.074 C 
HETATM    6  C6  VFQ 1 617     -50.103 149.010   8.434  1.00 38.90    -0.048 C 
HETATM    7  C7  VFQ 1 617     -49.164 148.527   9.461  1.00 38.90     0.009 C 
HETATM    8  C8  VFQ 1 617     -49.049 147.200   9.473  1.00 38.90     0.007 C 
HETATM    9  C9  VFQ 1 617     -48.021 146.520  10.282  1.00 38.90    -0.062 C 
HETATM   10  C10 VFQ 1 617     -47.749 145.256   9.934  1.00 38.90     0.007 C 
HETATM   11  C11 VFQ 1 617     -46.684 144.452  10.523  1.00 38.90     0.001 C 
HETATM   12  C12 VFQ 1 617     -46.366 143.300   9.947  1.00 38.90     0.007 C 
HETATM   13  C13 VFQ 1 617     -45.251 142.465  10.424  1.00 38.90    -0.062 C 
HETATM   14  C14 VFQ 1 617     -44.918 141.423   9.648  1.00 38.90     0.007 C 
HETATM   15  C15 VFQ 1 617     -43.828 140.492   9.916  1.00 38.90     0.001 C 
HETATM   16  C16 VFQ 1 617     -50.181 151.350   7.795  1.00 38.90     0.020 C 
HETATM   17  C17 VFQ 1 617     -48.098 150.043   7.419  1.00 38.90     0.020 C 
HETATM   18  C18 VFQ 1 617     -52.042 147.737   9.388  1.00 38.90     0.044 C 
HETATM   19  C19 VFQ 1 617     -47.314 147.250  11.388  1.00 38.90     0.048 C 
HETATM   20  C20 VFQ 1 617     -44.548 142.830  11.697  1.00 38.90     0.048 C 
HETATM   21  O3  VFQ 1 617     -52.195 149.291   4.810  1.00 38.90    -0.395 OA
ATOM     22  H3  VFQ 1 617     -52.997 148.784   4.763  1.00  0.00     0.210 HD
HETATM   23  C21 VFQ 1 617     -35.265 130.955   8.188  1.00 22.20    -0.018 C 
HETATM   24  C22 VFQ 1 617     -34.119 130.242   8.895  1.00 22.20     0.045 C 
HETATM   25  C23 VFQ 1 617     -33.989 130.467  10.386  1.00 22.20     0.123 C 
HETATM   26  C24 VFQ 1 617     -34.628 131.780  10.765  1.00 22.20     0.066 C 
HETATM   27  C25 VFQ 1 617     -36.060 131.672  10.357  1.00 22.20    -0.074 C 
HETATM   28  C26 VFQ 1 617     -36.351 131.468   9.087  1.00 22.20    -0.048 C 
HETATM   29  C27 VFQ 1 617     -37.608 131.908   8.465  1.00 22.20     0.009 C 
HETATM   30  C28 VFQ 1 617     -38.171 133.038   8.880  1.00 22.20     0.007 C 
HETATM   31  C29 VFQ 1 617     -39.298 133.625   8.107  1.00 38.90    -0.062 C 
HETATM   32  C30 VFQ 1 617     -39.744 134.781   8.613  1.00 38.90     0.007 C 
HETATM   33  C31 VFQ 1 617     -40.837 135.579   8.078  1.00 38.90     0.001 C 
HETATM   34  C32 VFQ 1 617     -41.158 136.667   8.767  1.00 38.90     0.007 C 
HETATM   35  C33 VFQ 1 617     -42.263 137.559   8.386  1.00 38.90    -0.062 C 
HETATM   36  C34 VFQ 1 617     -42.540 138.566   9.233  1.00 38.90     0.007 C 
HETATM   37  C35 VFQ 1 617     -43.614 139.531   9.029  1.00 38.90     0.001 C 
HETATM   38  C36 VFQ 1 617     -35.822 130.012   7.149  1.00 22.20     0.020 C 
HETATM   39  C37 VFQ 1 617     -34.731 132.185   7.478  1.00 22.20     0.020 C 
HETATM   40  C38 VFQ 1 617     -37.109 131.655  11.411  1.00 22.20     0.044 C 
HETATM   41  C39 VFQ 1 617     -39.829 132.970   6.866  1.00 38.90     0.048 C 
HETATM   42  C40 VFQ 1 617     -43.014 137.276   7.120  1.00 38.90     0.048 C 
HETATM   43  O23 VFQ 1 617     -32.598 130.503  10.674  1.00 22.20    -0.395 OA
ATOM     44  H23 VFQ 1 617     -32.516 130.644  11.610  1.00  0.00     0.210 HD
ENDROOT
TORSDOF 12
