REMARK VINA RESULT:    -8.432      0.531     16.672
REMARK INTER + INTRA:          -9.202
REMARK INTER:                  -8.869
REMARK INTRA:                  -0.333
REMARK UNBOUND:                -0.770
REMARK  0 active torsions:
REMARK  status: ('A' for Active; 'I' for Inactive)
REMARK       I    between atoms: C3_3  and  O3_21 
REMARK       I    between atoms: C6_6  and  C7_7 
REMARK       I    between atoms: C8_8  and  C9_9 
REMARK       I    between atoms: C10_10  and  C11_11 
REMARK       I    between atoms: C12_12  and  C13_13 
REMARK       I    between atoms: C14_14  and  C15_15 
REMARK       I    between atoms: C23_25  and  O23_43 
REMARK       I    between atoms: C26_28  and  C27_29 
REMARK       I    between atoms: C28_30  and  C29_31 
REMARK       I    between atoms: C30_32  and  C31_33 
REMARK       I    between atoms: C32_34  and  C33_35 
REMARK       I    between atoms: C34_36  and  C35_37 
ROOT
HETATM    1  C1  VFQ A 620     -34.265 128.258   6.645  1.00 22.96    -0.018 C 
HETATM    2  C2  VFQ A 620     -33.300 127.625   5.617  1.00 23.40     0.045 C 
HETATM    3  C3  VFQ A 620     -31.951 128.296   5.363  1.00 22.69     0.123 C 
HETATM    4  C4  VFQ A 620     -31.394 129.054   6.566  1.00 22.06     0.066 C 
HETATM    5  C5  VFQ A 620     -32.347 129.719   7.503  1.00 21.38    -0.074 C 
HETATM    6  C6  VFQ A 620     -33.681 129.374   7.567  1.00 22.58    -0.048 C 
HETATM    7  C7  VFQ A 620     -34.598 130.040   8.514  1.00 22.00     0.009 C 
HETATM    8  C8  VFQ A 620     -35.163 131.258   8.397  1.00 20.93     0.007 C 
HETATM    9  C9  VFQ A 620     -35.956 131.946   9.418  1.00 21.87    -0.062 C 
HETATM   10  C10 VFQ A 620     -36.541 133.119   9.086  1.00 20.24     0.007 C 
HETATM   11  C11 VFQ A 620     -37.367 133.939   9.936  1.00 21.04     0.001 C 
HETATM   12  C12 VFQ A 620     -38.047 134.974   9.421  1.00 22.18     0.007 C 
HETATM   13  C13 VFQ A 620     -38.974 135.914  10.068  1.00 24.17    -0.062 C 
HETATM   14  C14 VFQ A 620     -39.609 136.795   9.265  1.00 25.88     0.007 C 
HETATM   15  C15 VFQ A 620     -40.616 137.762   9.605  1.00 26.51     0.001 C 
HETATM   16  C16 VFQ A 620     -34.730 127.059   7.493  1.00 20.65     0.020 C 
HETATM   17  C17 VFQ A 620     -35.486 128.784   5.867  1.00 21.73     0.020 C 
HETATM   18  C18 VFQ A 620     -31.578 130.724   8.286  1.00 21.05     0.044 C 
HETATM   19  C19 VFQ A 620     -36.109 131.270  10.753  1.00 19.19     0.048 C 
HETATM   20  C20 VFQ A 620     -39.211 135.784  11.543  1.00 21.80     0.048 C 
HETATM   21  O3  VFQ A 620     -31.002 127.344   4.904  1.00 22.00    -0.395 OA
ATOM     22  H3  VFQ A 620     -30.163 127.761   4.746  1.00  0.00     0.210 HD
HETATM   23  C21 VFQ A 620     -49.969 144.816  10.730  1.00 32.37    -0.018 C 
HETATM   24  C22 VFQ A 620     -50.884 145.512  11.726  1.00 32.37     0.045 C 
HETATM   25  C23 VFQ A 620     -50.785 147.021  11.721  1.00 32.37     0.123 C 
HETATM   26  C24 VFQ A 620     -49.334 147.374  11.961  1.00 32.37     0.066 C 
HETATM   27  C25 VFQ A 620     -48.490 146.810  10.847  1.00 32.37    -0.074 C 
HETATM   28  C26 VFQ A 620     -48.954 145.785  10.124  1.00 32.37    -0.048 C 
HETATM   29  C27 VFQ A 620     -48.280 145.379   8.885  1.00 32.37     0.009 C 
HETATM   30  C28 VFQ A 620     -47.409 144.409   9.192  1.00 32.37     0.007 C 
HETATM   31  C29 VFQ A 620     -46.473 143.767   8.213  1.00 37.91    -0.062 C 
HETATM   32  C30 VFQ A 620     -45.649 142.806   8.685  1.00 37.54     0.007 C 
HETATM   33  C31 VFQ A 620     -44.673 142.048   7.944  1.00 35.36     0.001 C 
HETATM   34  C32 VFQ A 620     -43.899 141.137   8.568  1.00 32.59     0.007 C 
HETATM   35  C33 VFQ A 620     -42.838 140.272   8.031  1.00 30.48    -0.062 C 
HETATM   36  C34 VFQ A 620     -42.207 139.452   8.899  1.00 28.06     0.007 C 
HETATM   37  C35 VFQ A 620     -41.155 138.513   8.632  1.00 27.79     0.001 C 
HETATM   38  C36 VFQ A 620     -50.863 144.304   9.601  1.00 32.37     0.020 C 
HETATM   39  C37 VFQ A 620     -49.395 143.618  11.485  1.00 32.37     0.020 C 
HETATM   40  C38 VFQ A 620     -47.134 147.427  10.626  1.00 32.37     0.044 C 
HETATM   41  C39 VFQ A 620     -46.493 144.224   6.784  1.00 38.40     0.048 C 
HETATM   42  C40 VFQ A 620     -42.525 140.364   6.561  1.00 28.72     0.048 C 
HETATM   43  O23 VFQ A 620     -51.597 147.499  12.801  1.00 32.37    -0.395 OA
ATOM     44  H23 VFQ A 620     -51.534 148.447  12.798  1.00  0.00     0.210 HD
ENDROOT
TORSDOF 12
