REMARK VINA RESULT:    -8.787      1.185     16.669
REMARK INTER + INTRA:         -11.210
REMARK INTER:                 -10.999
REMARK INTRA:                  -0.211
REMARK UNBOUND:                -2.423
REMARK  0 active torsions:
REMARK  status: ('A' for Active; 'I' for Inactive)
REMARK       I    between atoms: C3_3  and  O3_21 
REMARK       I    between atoms: C6_6  and  C7_7 
REMARK       I    between atoms: C8_8  and  C9_9 
REMARK       I    between atoms: C10_10  and  C11_11 
REMARK       I    between atoms: C12_12  and  C13_13 
REMARK       I    between atoms: C14_14  and  C15_15 
REMARK       I    between atoms: C23_25  and  O23_43 
REMARK       I    between atoms: C26_28  and  C27_29 
REMARK       I    between atoms: C28_30  and  C29_31 
REMARK       I    between atoms: C30_32  and  C31_33 
REMARK       I    between atoms: C32_34  and  C33_35 
REMARK       I    between atoms: C34_36  and  C35_37 
ROOT
HETATM    1  C1  VFQ V1621     -49.608 145.627  11.244  1.00 16.22    -0.018 C 
HETATM    2  C2  VFQ V1621     -50.239 145.488  12.612  1.00 16.22     0.045 C 
HETATM    3  C3  VFQ V1621     -49.383 145.971  13.747  1.00 16.22     0.123 C 
HETATM    4  C4  VFQ V1621     -48.792 147.287  13.319  1.00 16.22     0.066 C 
HETATM    5  C5  VFQ V1621     -47.818 146.947  12.238  1.00 16.22    -0.074 C 
HETATM    6  C6  VFQ V1621     -48.225 146.208  11.211  1.00 16.22    -0.048 C 
HETATM    7  C7  VFQ V1621     -47.333 145.715  10.152  1.00 16.22     0.009 C 
HETATM    8  C8  VFQ V1621     -46.167 145.230  10.564  1.00 16.22     0.007 C 
HETATM    9  C9  VFQ V1621     -45.319 144.483   9.618  1.00 16.22    -0.062 C 
HETATM   10  C10 VFQ V1621     -44.498 143.558  10.133  1.00 16.22     0.007 C 
HETATM   11  C11 VFQ V1621     -43.709 142.636   9.325  1.00 16.22     0.001 C 
HETATM   12  C12 VFQ V1621     -43.066 141.635   9.916  1.00 16.22     0.007 C 
HETATM   13  C13 VFQ V1621     -42.311 140.638   9.138  1.00 16.22    -0.062 C 
HETATM   14  C14 VFQ V1621     -41.787 139.592   9.796  1.00 16.22     0.007 C 
HETATM   15  C15 VFQ V1621     -41.029 138.518   9.158  1.00 16.22     0.001 C 
HETATM   16  C16 VFQ V1621     -50.438 146.605  10.431  1.00 16.22     0.020 C 
HETATM   17  C17 VFQ V1621     -49.616 144.251  10.640  1.00 16.22     0.020 C 
HETATM   18  C18 VFQ V1621     -46.602 147.812  12.191  1.00 16.22     0.044 C 
HETATM   19  C19 VFQ V1621     -45.471 144.700   8.140  1.00 16.22     0.048 C 
HETATM   20  C20 VFQ V1621     -42.188 140.828   7.658  1.00 16.22     0.048 C 
HETATM   21  O3  VFQ V1621     -50.247 146.115  14.868  1.00 16.22    -0.395 OA
ATOM     22  H3  VFQ V1621     -49.705 146.420  15.587  1.00  0.00     0.210 HD
HETATM   23  C21 VFQ V1621     -34.025 128.013   7.158  1.00 71.46    -0.018 C 
HETATM   24  C22 VFQ V1621     -33.151 127.306   6.137  1.00 75.98     0.045 C 
HETATM   25  C23 VFQ V1621     -31.756 127.847   5.913  1.00 84.37     0.123 C 
HETATM   26  C24 VFQ V1621     -31.774 129.344   5.786  1.00 79.68     0.066 C 
HETATM   27  C25 VFQ V1621     -32.432 129.944   6.990  1.00 81.86    -0.074 C 
HETATM   28  C26 VFQ V1621     -33.535 129.406   7.536  1.00 72.92    -0.048 C 
HETATM   29  C27 VFQ V1621     -34.287 130.161   8.567  1.00 76.42     0.009 C 
HETATM   30  C28 VFQ V1621     -35.190 131.080   8.228  1.00 69.46     0.007 C 
HETATM   31  C29 VFQ V1621     -35.945 131.838   9.227  1.00 16.22    -0.062 C 
HETATM   32  C30 VFQ V1621     -36.860 132.706   8.769  1.00 16.22     0.007 C 
HETATM   33  C31 VFQ V1621     -37.674 133.564   9.618  1.00 16.22     0.001 C 
HETATM   34  C32 VFQ V1621     -38.421 134.504   9.057  1.00 16.22     0.007 C 
HETATM   35  C33 VFQ V1621     -39.201 135.448   9.872  1.00 16.22    -0.062 C 
HETATM   36  C34 VFQ V1621     -39.790 136.472   9.238  1.00 16.22     0.007 C 
HETATM   37  C35 VFQ V1621     -40.555 137.528   9.892  1.00 16.22     0.001 C 
HETATM   38  C36 VFQ V1621     -34.077 127.168   8.419  1.00 75.59     0.020 C 
HETATM   39  C37 VFQ V1621     -35.426 128.011   6.565  1.00 74.59     0.020 C 
HETATM   40  C38 VFQ V1621     -31.762 131.161   7.551  1.00 90.73     0.044 C 
HETATM   41  C39 VFQ V1621     -35.684 131.564  10.672  1.00 16.22     0.048 C 
HETATM   42  C40 VFQ V1621     -39.254 135.240  11.354  1.00 16.22     0.048 C 
HETATM   43  O23 VFQ V1621     -31.256 127.310   4.689  1.00 94.57    -0.395 OA
ATOM     44  H23 VFQ V1621     -30.380 127.650   4.548  1.00  0.00     0.210 HD
ENDROOT
TORSDOF 12
