REMARK VINA RESULT:    -9.256      0.228      0.919
REMARK INTER + INTRA:         -12.129
REMARK INTER:                  -8.854
REMARK INTRA:                  -3.275
REMARK UNBOUND:                -2.872
REMARK  0 active torsions:
REMARK  status: ('A' for Active; 'I' for Inactive)
REMARK       I    between atoms: C3_3  and  O3_21 
REMARK       I    between atoms: C6_6  and  C7_7 
REMARK       I    between atoms: C8_8  and  C9_9 
REMARK       I    between atoms: C10_10  and  C11_11 
REMARK       I    between atoms: C12_12  and  C13_13 
REMARK       I    between atoms: C14_14  and  C15_15 
REMARK       I    between atoms: C23_25  and  O23_43 
REMARK       I    between atoms: C26_28  and  C27_29 
REMARK       I    between atoms: C28_30  and  C29_31 
REMARK       I    between atoms: C30_32  and  C31_33 
REMARK       I    between atoms: C32_34  and  C33_35 
REMARK       I    between atoms: C34_36  and  C35_37 
ROOT
HETATM    1  C1  VFQ 61621     -34.247 127.381   6.343  1.00 90.34    -0.018 C 
HETATM    2  C2  VFQ 61621     -33.669 126.872   5.027  1.00 90.34     0.045 C 
HETATM    3  C3  VFQ 61621     -32.392 127.520   4.516  1.00 90.34     0.123 C 
HETATM    4  C4  VFQ 61621     -31.498 127.964   5.655  1.00 90.34     0.066 C 
HETATM    5  C5  VFQ 61621     -32.298 128.889   6.526  1.00 90.34    -0.074 C 
HETATM    6  C6  VFQ 61621     -33.494 128.527   6.984  1.00 90.34    -0.048 C 
HETATM    7  C7  VFQ 61621     -34.124 129.210   8.141  1.00 90.34     0.009 C 
HETATM    8  C8  VFQ 61621     -34.754 130.378   7.992  1.00 90.34     0.007 C 
HETATM    9  C9  VFQ 61621     -35.427 131.105   9.076  1.00 90.34    -0.062 C 
HETATM   10  C10 VFQ 61621     -36.260 132.069   8.688  1.00 90.34     0.007 C 
HETATM   11  C11 VFQ 61621     -37.074 132.924   9.536  1.00 90.34     0.001 C 
HETATM   12  C12 VFQ 61621     -37.808 133.809   8.869  1.00 90.34     0.007 C 
HETATM   13  C13 VFQ 61621     -38.724 134.738   9.540  1.00 90.34    -0.062 C 
HETATM   14  C14 VFQ 61621     -39.452 135.568   8.788  1.00 90.34     0.007 C 
HETATM   15  C15 VFQ 61621     -40.411 136.491   9.383  1.00 90.34     0.001 C 
HETATM   16  C16 VFQ 61621     -34.325 126.181   7.278  1.00 90.34     0.020 C 
HETATM   17  C17 VFQ 61621     -35.650 127.891   6.074  1.00 90.34     0.020 C 
HETATM   18  C18 VFQ 61621     -31.349 129.704   7.348  1.00 90.34     0.044 C 
HETATM   19  C19 VFQ 61621     -35.202 130.775  10.520  1.00 90.34     0.048 C 
HETATM   20  C20 VFQ 61621     -38.848 134.736  11.033  1.00 90.34     0.048 C 
HETATM   21  O3  VFQ 61621     -31.684 126.554   3.741  1.00 90.34    -0.395 OA
ATOM     22  H3  VFQ 61621     -32.244 126.275   3.026  1.00  0.00     0.210 HD
HETATM   23  C21 VFQ 61621     -50.268 144.281  10.514  1.00 21.49    -0.018 C 
HETATM   24  C22 VFQ 61621     -51.268 145.207  11.197  1.00 21.49     0.045 C 
HETATM   25  C23 VFQ 61621     -50.717 146.383  11.988  1.00 21.49     0.123 C 
HETATM   26  C24 VFQ 61621     -49.413 146.044  12.674  1.00 21.49     0.066 C 
HETATM   27  C25 VFQ 61621     -48.427 145.509  11.673  1.00 21.49    -0.074 C 
HETATM   28  C26 VFQ 61621     -48.813 144.692  10.683  1.00 21.49    -0.048 C 
HETATM   29  C27 VFQ 61621     -47.807 144.181   9.713  1.00 21.49     0.009 C 
HETATM   30  C28 VFQ 61621     -47.212 142.999   9.882  1.00 21.49     0.007 C 
HETATM   31  C29 VFQ 61621     -46.214 142.456   8.955  1.00 90.34    -0.062 C 
HETATM   32  C30 VFQ 61621     -45.808 141.213   9.203  1.00 90.34     0.007 C 
HETATM   33  C31 VFQ 61621     -44.847 140.467   8.405  1.00 90.34     0.001 C 
HETATM   34  C32 VFQ 61621     -44.035 139.657   9.075  1.00 90.34     0.007 C 
HETATM   35  C33 VFQ 61621     -43.034 138.816   8.411  1.00 90.34    -0.062 C 
HETATM   36  C34 VFQ 61621     -42.170 138.122   9.167  1.00 90.34     0.007 C 
HETATM   37  C35 VFQ 61621     -41.173 137.231   8.584  1.00 90.34     0.001 C 
HETATM   38  C36 VFQ 61621     -50.578 144.290   9.025  1.00 21.49     0.020 C 
HETATM   39  C37 VFQ 61621     -50.528 142.878  11.060  1.00 21.49     0.020 C 
HETATM   40  C38 VFQ 61621     -47.000 145.944  11.841  1.00 21.49     0.044 C 
HETATM   41  C39 VFQ 61621     -45.700 143.242   7.789  1.00 90.34     0.048 C 
HETATM   42  C40 VFQ 61621     -43.018 138.729   6.919  1.00 90.34     0.048 C 
HETATM   43  O23 VFQ 61621     -51.671 146.724  12.999  1.00 21.49    -0.395 OA
ATOM     44  H23 VFQ 61621     -52.490 146.936  12.567  1.00  0.00     0.210 HD
ENDROOT
TORSDOF 12
