REMARK VINA RESULT:    -9.372      0.000      0.000
REMARK INTER + INTRA:         -11.916
REMARK INTER:                  -9.372
REMARK INTRA:                  -2.544
REMARK UNBOUND:                -2.544
REMARK  0 active torsions:
REMARK  status: ('A' for Active; 'I' for Inactive)
REMARK       I    between atoms: C3_3  and  O3_21 
REMARK       I    between atoms: C6_6  and  C7_7 
REMARK       I    between atoms: C8_8  and  C9_9 
REMARK       I    between atoms: C10_10  and  C11_11 
REMARK       I    between atoms: C12_12  and  C13_13 
REMARK       I    between atoms: C14_14  and  C15_15 
REMARK       I    between atoms: C23_25  and  O23_43 
REMARK       I    between atoms: C26_28  and  C27_29 
REMARK       I    between atoms: C28_30  and  C29_31 
REMARK       I    between atoms: C30_32  and  C31_33 
REMARK       I    between atoms: C32_34  and  C33_35 
REMARK       I    between atoms: C34_36  and  C35_37 
ROOT
HETATM    1  C1  VFQ 1 316     -34.443 126.946   6.391  1.00 73.24    -0.018 C 
HETATM    2  C2  VFQ 1 316     -34.011 126.349   5.050  1.00 72.84     0.045 C 
HETATM    3  C3  VFQ 1 316     -32.934 127.103   4.280  1.00 72.53     0.123 C 
HETATM    4  C4  VFQ 1 316     -31.853 127.583   5.229  1.00 72.61     0.066 C 
HETATM    5  C5  VFQ 1 316     -32.470 128.470   6.278  1.00 72.68    -0.074 C 
HETATM    6  C6  VFQ 1 316     -33.621 128.134   6.862  1.00 72.79    -0.048 C 
HETATM    7  C7  VFQ 1 316     -34.126 128.940   8.000  1.00 71.90     0.009 C 
HETATM    8  C8  VFQ 1 316     -34.822 130.058   7.781  1.00 71.51     0.007 C 
HETATM    9  C9  VFQ 1 316     -35.354 130.899   8.874  1.00 70.48    -0.062 C 
HETATM   10  C10 VFQ 1 316     -36.092 131.970   8.544  1.00 69.46     0.007 C 
HETATM   11  C11 VFQ 1 316     -36.694 132.895   9.503  1.00 69.85     0.001 C 
HETATM   12  C12 VFQ 1 316     -37.422 133.887   8.991  1.00 72.15     0.007 C 
HETATM   13  C13 VFQ 1 316     -38.123 134.911   9.794  1.00 73.74    -0.062 C 
HETATM   14  C14 VFQ 1 316     -39.019 135.693   9.164  1.00 74.04     0.007 C 
HETATM   15  C15 VFQ 1 316     -39.799 136.726   9.842  1.00 74.62     0.001 C 
HETATM   16  C16 VFQ 1 316     -34.355 125.850   7.445  1.00 72.68     0.020 C 
HETATM   17  C17 VFQ 1 316     -35.890 127.407   6.265  1.00 73.05     0.020 C 
HETATM   18  C18 VFQ 1 316     -31.592 129.533   6.873  1.00 72.13     0.044 C 
HETATM   19  C19 VFQ 1 316     -35.070 130.567  10.309  1.00 70.45     0.048 C 
HETATM   20  C20 VFQ 1 316     -37.841 135.074  11.261  1.00 72.89     0.048 C 
HETATM   21  O3  VFQ 1 316     -32.350 126.232   3.301  1.00 71.04    -0.395 OA
ATOM     22  H3  VFQ 1 316     -33.028 125.932   2.707  1.00  0.00     0.210 HD
HETATM   23  C21 VFQ 1 316     -49.470 144.857  12.110  1.00 20.77    -0.018 C 
HETATM   24  C22 VFQ 1 316     -50.271 145.794  13.028  1.00 19.21     0.045 C 
HETATM   25  C23 VFQ 1 316     -49.599 147.004  13.672  1.00 20.68     0.123 C 
HETATM   26  C24 VFQ 1 316     -48.124 147.216  13.312  1.00 17.77     0.066 C 
HETATM   27  C25 VFQ 1 316     -47.461 146.412  12.241  1.00 19.05    -0.074 C 
HETATM   28  C26 VFQ 1 316     -48.045 145.308  11.651  1.00 19.48    -0.048 C 
HETATM   29  C27 VFQ 1 316     -47.415 144.473  10.591  1.00 16.56     0.009 C 
HETATM   30  C28 VFQ 1 316     -46.482 143.508  10.806  1.00 15.55     0.007 C 
HETATM   31  C29 VFQ 1 316     -45.808 142.697   9.821  1.00 94.72    -0.062 C 
HETATM   32  C30 VFQ 1 316     -44.921 141.776  10.225  1.00 91.32     0.007 C 
HETATM   33  C31 VFQ 1 316     -44.198 140.888   9.318  1.00 87.88     0.001 C 
HETATM   34  C32 VFQ 1 316     -43.271 140.110   9.870  1.00 84.19     0.007 C 
HETATM   35  C33 VFQ 1 316     -42.461 139.130   9.125  1.00 80.79    -0.062 C 
HETATM   36  C34 VFQ 1 316     -41.520 138.437   9.792  1.00 78.84     0.007 C 
HETATM   37  C35 VFQ 1 316     -40.696 137.422   9.140  1.00 76.79     0.001 C 
HETATM   38  C36 VFQ 1 316     -50.374 144.587  10.888  1.00 20.67     0.020 C 
HETATM   39  C37 VFQ 1 316     -49.370 143.544  12.924  1.00 19.98     0.020 C 
HETATM   40  C38 VFQ 1 316     -46.129 147.011  11.952  1.00 17.40     0.044 C 
HETATM   41  C39 VFQ 1 316     -46.121 142.887   8.367  1.00 95.37     0.048 C 
HETATM   42  C40 VFQ 1 316     -42.706 138.901   7.664  1.00 90.13     0.048 C 
HETATM   43  O23 VFQ 1 316     -49.770 146.976  15.085  1.00 20.33    -0.395 OA
ATOM     44  H23 VFQ 1 316     -49.352 147.729  15.485  1.00  0.00     0.210 HD
ENDROOT
TORSDOF 12
