REMARK VINA RESULT:    -8.052      1.212     16.734
REMARK INTER + INTRA:         -10.228
REMARK INTER:                  -9.931
REMARK INTRA:                  -0.297
REMARK UNBOUND:                -2.176
REMARK  0 active torsions:
REMARK  status: ('A' for Active; 'I' for Inactive)
REMARK       I    between atoms: C3_3  and  O3_21 
REMARK       I    between atoms: C6_6  and  C7_7 
REMARK       I    between atoms: C8_8  and  C9_9 
REMARK       I    between atoms: C10_10  and  C11_11 
REMARK       I    between atoms: C12_12  and  C13_13 
REMARK       I    between atoms: C14_14  and  C15_15 
REMARK       I    between atoms: C23_25  and  O23_43 
REMARK       I    between atoms: C26_28  and  C27_29 
REMARK       I    between atoms: C28_30  and  C29_31 
REMARK       I    between atoms: C30_32  and  C31_33 
REMARK       I    between atoms: C32_34  and  C33_35 
REMARK       I    between atoms: C34_36  and  C35_37 
ROOT
HETATM    1  C1  VFQ B1620     -34.174 128.093   6.773  1.00 19.90    -0.018 C 
HETATM    2  C2  VFQ B1620     -33.254 127.483   5.697  1.00 19.41     0.045 C 
HETATM    3  C3  VFQ B1620     -31.981 128.234   5.305  1.00 19.05     0.123 C 
HETATM    4  C4  VFQ B1620     -31.358 129.004   6.457  1.00 17.84     0.066 C 
HETATM    5  C5  VFQ B1620     -32.266 129.656   7.446  1.00 19.18    -0.074 C 
HETATM    6  C6  VFQ B1620     -33.577 129.260   7.619  1.00 19.92    -0.048 C 
HETATM    7  C7  VFQ B1620     -34.446 129.925   8.608  1.00 19.37     0.009 C 
HETATM    8  C8  VFQ B1620     -35.038 131.126   8.467  1.00 19.11     0.007 C 
HETATM    9  C9  VFQ B1620     -35.798 131.861   9.472  1.00 19.13    -0.062 C 
HETATM   10  C10 VFQ B1620     -36.406 133.004   9.083  1.00 19.42     0.007 C 
HETATM   11  C11 VFQ B1620     -37.232 133.868   9.895  1.00 18.74     0.001 C 
HETATM   12  C12 VFQ B1620     -37.935 134.874   9.340  1.00 16.12     0.007 C 
HETATM   13  C13 VFQ B1620     -38.868 135.789  10.009  1.00 17.85    -0.062 C 
HETATM   14  C14 VFQ B1620     -39.552 136.651   9.226  1.00 17.76     0.007 C 
HETATM   15  C15 VFQ B1620     -40.579 137.574   9.616  1.00 19.16     0.001 C 
HETATM   16  C16 VFQ B1620     -34.500 126.888   7.673  1.00 18.85     0.020 C 
HETATM   17  C17 VFQ B1620     -35.480 128.546   6.095  1.00 18.57     0.020 C 
HETATM   18  C18 VFQ B1620     -31.495 130.725   8.142  1.00 19.26     0.044 C 
HETATM   19  C19 VFQ B1620     -35.903 131.261  10.851  1.00 17.89     0.048 C 
HETATM   20  C20 VFQ B1620     -39.060 135.652  11.500  1.00 13.12     0.048 C 
HETATM   21  O3  VFQ B1620     -31.029 127.343   4.743  1.00 18.20    -0.395 OA
ATOM     22  H3  VFQ B1620     -30.239 127.809   4.499  1.00  0.00     0.210 HD
HETATM   23  C21 VFQ B1620     -50.671 144.945  10.115  1.00 45.52    -0.018 C 
HETATM   24  C22 VFQ B1620     -51.643 145.755  10.970  1.00 45.52     0.045 C 
HETATM   25  C23 VFQ B1620     -50.979 146.530  12.102  1.00 45.52     0.123 C 
HETATM   26  C24 VFQ B1620     -49.773 145.761  12.608  1.00 45.52     0.066 C 
HETATM   27  C25 VFQ B1620     -48.784 145.724  11.479  1.00 45.52    -0.074 C 
HETATM   28  C26 VFQ B1620     -49.242 145.397  10.264  1.00 45.52    -0.048 C 
HETATM   29  C27 VFQ B1620     -48.320 145.175   9.148  1.00 45.52     0.009 C 
HETATM   30  C28 VFQ B1620     -47.481 144.189   9.471  1.00 45.52     0.007 C 
HETATM   31  C29 VFQ B1620     -46.498 143.577   8.517  1.00 26.15    -0.062 C 
HETATM   32  C30 VFQ B1620     -45.712 142.586   8.992  1.00 25.30     0.007 C 
HETATM   33  C31 VFQ B1620     -44.733 141.835   8.251  1.00 24.49     0.001 C 
HETATM   34  C32 VFQ B1620     -43.960 140.900   8.824  1.00 22.91     0.007 C 
HETATM   35  C33 VFQ B1620     -42.909 140.071   8.215  1.00 24.18    -0.062 C 
HETATM   36  C34 VFQ B1620     -42.236 139.225   9.024  1.00 22.61     0.007 C 
HETATM   37  C35 VFQ B1620     -41.174 138.330   8.682  1.00 22.05     0.001 C 
HETATM   38  C36 VFQ B1620     -51.053 145.043   8.645  1.00 45.52     0.020 C 
HETATM   39  C37 VFQ B1620     -50.711 143.484  10.550  1.00 45.52     0.020 C 
HETATM   40  C38 VFQ B1620     -47.370 146.165  11.774  1.00 45.52     0.044 C 
HETATM   41  C39 VFQ B1620     -46.430 144.094   7.109  1.00 22.70     0.048 C 
HETATM   42  C40 VFQ B1620     -42.641 140.241   6.747  1.00 23.56     0.048 C 
HETATM   43  O23 VFQ B1620     -51.904 146.712  13.179  1.00 45.52    -0.395 OA
ATOM     44  H23 VFQ B1620     -52.659 147.194  12.863  1.00  0.00     0.210 HD
ENDROOT
TORSDOF 12
