REMARK VINA RESULT:   -12.039      0.000      0.000
REMARK INTER + INTRA:         -14.670
REMARK INTER:                 -12.039
REMARK INTRA:                  -2.631
REMARK UNBOUND:                -2.631
REMARK  0 active torsions:
REMARK  status: ('A' for Active; 'I' for Inactive)
REMARK       I    between atoms: C3_3  and  O3_21 
REMARK       I    between atoms: C6_6  and  C7_7 
REMARK       I    between atoms: C8_8  and  C9_9 
REMARK       I    between atoms: C10_10  and  C11_11 
REMARK       I    between atoms: C12_12  and  C13_13 
REMARK       I    between atoms: C14_14  and  C15_15 
REMARK       I    between atoms: C23_25  and  O23_43 
REMARK       I    between atoms: C26_28  and  C27_29 
REMARK       I    between atoms: C28_30  and  C29_31 
REMARK       I    between atoms: C30_32  and  C31_33 
REMARK       I    between atoms: C32_34  and  C33_35 
REMARK       I    between atoms: C34_36  and  C35_37 
ROOT
HETATM    1  C1  VFQ S1621     -34.317 127.000   6.460  1.00 56.99    -0.018 C 
HETATM    2  C2  VFQ S1621     -34.027 126.522   5.039  1.00 56.99     0.045 C 
HETATM    3  C3  VFQ S1621     -32.929 127.233   4.260  1.00 56.99     0.123 C 
HETATM    4  C4  VFQ S1621     -31.843 127.763   5.174  1.00 56.99     0.066 C 
HETATM    5  C5  VFQ S1621     -32.473 128.638   6.219  1.00 56.99    -0.074 C 
HETATM    6  C6  VFQ S1621     -33.584 128.268   6.855  1.00 56.99    -0.048 C 
HETATM    7  C7  VFQ S1621     -34.102 129.096   7.976  1.00 56.99     0.009 C 
HETATM    8  C8  VFQ S1621     -35.027 130.037   7.780  1.00 56.99     0.007 C 
HETATM    9  C9  VFQ S1621     -35.585 130.889   8.847  1.00 56.99    -0.062 C 
HETATM   10  C10 VFQ S1621     -36.493 131.798   8.486  1.00 56.99     0.007 C 
HETATM   11  C11 VFQ S1621     -37.146 132.722   9.401  1.00 56.99     0.001 C 
HETATM   12  C12 VFQ S1621     -37.788 133.728   8.821  1.00 56.99     0.007 C 
HETATM   13  C13 VFQ S1621     -38.541 134.750   9.561  1.00 56.99    -0.062 C 
HETATM   14  C14 VFQ S1621     -39.275 135.605   8.842  1.00 56.99     0.007 C 
HETATM   15  C15 VFQ S1621     -40.103 136.639   9.439  1.00 56.99     0.001 C 
HETATM   16  C16 VFQ S1621     -34.016 125.850   7.419  1.00 56.99     0.020 C 
HETATM   17  C17 VFQ S1621     -35.799 127.305   6.542  1.00 56.99     0.020 C 
HETATM   18  C18 VFQ S1621     -31.655 129.803   6.677  1.00 56.99     0.044 C 
HETATM   19  C19 VFQ S1621     -35.156 130.765  10.274  1.00 56.99     0.048 C 
HETATM   20  C20 VFQ S1621     -38.497 134.821  11.056  1.00 56.99     0.048 C 
HETATM   21  O3  VFQ S1621     -32.334 126.302   3.351  1.00 56.99    -0.395 OA
ATOM     22  H3  VFQ S1621     -33.014 125.969   2.777  1.00  0.00     0.210 HD
HETATM   23  C21 VFQ S1621     -49.687 145.076   9.735  1.00 71.46    -0.018 C 
HETATM   24  C22 VFQ S1621     -50.551 145.835  10.726  1.00 75.98     0.045 C 
HETATM   25  C23 VFQ S1621     -49.885 146.911  11.555  1.00 84.37     0.123 C 
HETATM   26  C24 VFQ S1621     -48.576 146.429  12.112  1.00 79.68     0.066 C 
HETATM   27  C25 VFQ S1621     -47.702 145.945  10.996  1.00 81.86    -0.074 C 
HETATM   28  C26 VFQ S1621     -48.189 145.218   9.978  1.00 72.92    -0.048 C 
HETATM   29  C27 VFQ S1621     -47.257 144.560   9.033  1.00 76.42     0.009 C 
HETATM   30  C28 VFQ S1621     -46.716 143.374   9.308  1.00 69.46     0.007 C 
HETATM   31  C29 VFQ S1621     -45.787 142.693   8.394  1.00 56.99    -0.062 C 
HETATM   32  C30 VFQ S1621     -45.279 141.564   8.873  1.00 56.99     0.007 C 
HETATM   33  C31 VFQ S1621     -44.369 140.677   8.172  1.00 56.99     0.001 C 
HETATM   34  C32 VFQ S1621     -43.491 140.032   8.923  1.00 56.99     0.007 C 
HETATM   35  C33 VFQ S1621     -42.559 139.064   8.343  1.00 56.99    -0.062 C 
HETATM   36  C34 VFQ S1621     -41.717 138.411   9.154  1.00 56.99     0.007 C 
HETATM   37  C35 VFQ S1621     -40.821 137.397   8.621  1.00 56.99     0.001 C 
HETATM   38  C36 VFQ S1621     -49.993 145.588   8.336  1.00 75.59     0.020 C 
HETATM   39  C37 VFQ S1621     -50.171 143.635   9.795  1.00 74.59     0.020 C 
HETATM   40  C38 VFQ S1621     -46.263 146.351  11.084  1.00 90.73     0.044 C 
HETATM   41  C39 VFQ S1621     -45.444 143.211   7.032  1.00 56.99     0.048 C 
HETATM   42  C40 VFQ S1621     -42.599 138.793   6.872  1.00 56.99     0.048 C 
HETATM   43  O23 VFQ S1621     -50.739 147.225  12.655  1.00 94.57    -0.395 OA
ATOM     44  H23 VFQ S1621     -50.321 147.900  13.175  1.00  0.00     0.210 HD
ENDROOT
TORSDOF 12
