REMARK VINA RESULT:    -9.777      1.577      1.883
REMARK INTER + INTRA:         -10.044
REMARK INTER:                  -7.569
REMARK INTRA:                  -2.475
REMARK UNBOUND:                -0.267
REMARK  0 active torsions:
REMARK  status: ('A' for Active; 'I' for Inactive)
REMARK       I    between atoms: C3_3  and  O3_21 
REMARK       I    between atoms: C6_6  and  C7_7 
REMARK       I    between atoms: C8_8  and  C9_9 
REMARK       I    between atoms: C10_10  and  C11_11 
REMARK       I    between atoms: C12_12  and  C13_13 
REMARK       I    between atoms: C14_14  and  C15_15 
REMARK       I    between atoms: C23_25  and  O23_43 
REMARK       I    between atoms: C26_28  and  C27_29 
REMARK       I    between atoms: C28_30  and  C29_31 
REMARK       I    between atoms: C30_32  and  C31_33 
REMARK       I    between atoms: C32_34  and  C33_35 
REMARK       I    between atoms: C34_36  and  C35_37 
ROOT
HETATM    1  C1  VFQ A 621     -48.517 145.866  12.324  1.00 21.58    -0.018 C 
HETATM    2  C2  VFQ A 621     -49.121 146.538  13.575  1.00 21.20     0.045 C 
HETATM    3  C3  VFQ A 621     -48.383 147.690  14.264  1.00 20.61     0.123 C 
HETATM    4  C4  VFQ A 621     -47.161 148.237  13.509  1.00 19.82     0.066 C 
HETATM    5  C5  VFQ A 621     -46.539 147.483  12.374  1.00 19.81    -0.074 C 
HETATM    6  C6  VFQ A 621     -47.127 146.383  11.782  1.00 19.95    -0.048 C 
HETATM    7  C7  VFQ A 621     -46.543 145.630  10.634  1.00 17.10     0.009 C 
HETATM    8  C8  VFQ A 621     -45.572 144.698  10.748  1.00 17.58     0.007 C 
HETATM    9  C9  VFQ A 621     -44.904 143.892   9.719  1.00 19.11    -0.062 C 
HETATM   10  C10 VFQ A 621     -44.050 142.929  10.134  1.00 18.37     0.007 C 
HETATM   11  C11 VFQ A 621     -43.377 141.977   9.295  1.00 18.85     0.001 C 
HETATM   12  C12 VFQ A 621     -42.614 140.977   9.775  1.00 19.83     0.007 C 
HETATM   13  C13 VFQ A 621     -41.984 139.902   8.980  1.00 21.26    -0.062 C 
HETATM   14  C14 VFQ A 621     -41.290 138.949   9.642  1.00 20.79     0.007 C 
HETATM   15  C15 VFQ A 621     -40.639 137.784   9.092  1.00 20.26     0.001 C 
HETATM   16  C16 VFQ A 621     -49.628 146.085  11.272  1.00 19.38     0.020 C 
HETATM   17  C17 VFQ A 621     -48.441 144.353  12.630  1.00 19.65     0.020 C 
HETATM   18  C18 VFQ A 621     -45.269 148.159  12.005  1.00 20.06     0.044 C 
HETATM   19  C19 VFQ A 621     -45.275 144.130   8.282  1.00 17.70     0.048 C 
HETATM   20  C20 VFQ A 621     -42.195 139.917   7.493  1.00 18.78     0.048 C 
HETATM   21  O3  VFQ A 621     -49.285 148.745  14.560  1.00 18.88    -0.395 OA
ATOM     22  H3  VFQ A 621     -50.040 148.407  15.028  1.00  0.00     0.210 HD
HETATM   23  C21 VFQ A 621     -34.383 127.110   6.487  1.00 40.88    -0.018 C 
HETATM   24  C22 VFQ A 621     -33.602 126.114   5.628  1.00 40.88     0.045 C 
HETATM   25  C23 VFQ A 621     -32.345 126.610   4.919  1.00 40.88     0.123 C 
HETATM   26  C24 VFQ A 621     -32.451 128.080   4.557  1.00 40.88     0.066 C 
HETATM   27  C25 VFQ A 621     -32.736 128.842   5.822  1.00 40.88    -0.074 C 
HETATM   28  C26 VFQ A 621     -33.685 128.441   6.675  1.00 40.88    -0.048 C 
HETATM   29  C27 VFQ A 621     -34.047 129.292   7.844  1.00 40.88     0.009 C 
HETATM   30  C28 VFQ A 621     -35.052 130.168   7.807  1.00 40.88     0.007 C 
HETATM   31  C29 VFQ A 621     -35.454 131.038   8.959  1.00 26.46    -0.062 C 
HETATM   32  C30 VFQ A 621     -36.466 131.915   8.768  1.00 24.31     0.007 C 
HETATM   33  C31 VFQ A 621     -37.008 132.846   9.731  1.00 21.85     0.001 C 
HETATM   34  C32 VFQ A 621     -37.886 133.793   9.323  1.00 20.83     0.007 C 
HETATM   35  C33 VFQ A 621     -38.530 134.888  10.070  1.00 21.05    -0.062 C 
HETATM   36  C34 VFQ A 621     -39.292 135.758   9.373  1.00 19.63     0.007 C 
HETATM   37  C35 VFQ A 621     -39.962 136.930   9.880  1.00 20.78     0.001 C 
HETATM   38  C36 VFQ A 621     -34.551 126.508   7.870  1.00 40.88     0.020 C 
HETATM   39  C37 VFQ A 621     -35.766 127.277   5.862  1.00 40.88     0.020 C 
HETATM   40  C38 VFQ A 621     -31.888 130.040   6.108  1.00 40.88     0.044 C 
HETATM   41  C39 VFQ A 621     -34.660 130.937  10.231  1.00 25.84     0.048 C 
HETATM   42  C40 VFQ A 621     -38.236 135.008  11.540  1.00 18.97     0.048 C 
HETATM   43  O23 VFQ A 621     -32.173 125.851   3.717  1.00 40.88    -0.395 OA
ATOM     44  H23 VFQ A 621     -32.106 124.931   3.943  1.00  0.00     0.210 HD
ENDROOT
TORSDOF 12
