REMARK VINA RESULT:    -9.712      1.420      1.891
REMARK INTER + INTRA:         -12.301
REMARK INTER:                 -12.073
REMARK INTRA:                  -0.228
REMARK UNBOUND:                -2.589
REMARK  0 active torsions:
REMARK  status: ('A' for Active; 'I' for Inactive)
REMARK       I    between atoms: C3_3  and  O3_21 
REMARK       I    between atoms: C6_6  and  C7_7 
REMARK       I    between atoms: C8_8  and  C9_9 
REMARK       I    between atoms: C10_10  and  C11_11 
REMARK       I    between atoms: C12_12  and  C13_13 
REMARK       I    between atoms: C14_14  and  C15_15 
REMARK       I    between atoms: C23_25  and  O23_43 
REMARK       I    between atoms: C26_28  and  C27_29 
REMARK       I    between atoms: C28_30  and  C29_31 
REMARK       I    between atoms: C30_32  and  C31_33 
REMARK       I    between atoms: C32_34  and  C33_35 
REMARK       I    between atoms: C34_36  and  C35_37 
ROOT
HETATM    1  C1  VFQ X1621     -34.187 128.039   6.937  1.00 31.86    -0.018 C 
HETATM    2  C2  VFQ X1621     -33.593 127.842   5.539  1.00 31.86     0.045 C 
HETATM    3  C3  VFQ X1621     -32.312 128.603   5.219  1.00 31.86     0.123 C 
HETATM    4  C4  VFQ X1621     -31.600 129.068   6.482  1.00 31.86     0.066 C 
HETATM    5  C5  VFQ X1621     -32.596 129.872   7.263  1.00 31.86    -0.074 C 
HETATM    6  C6  VFQ X1621     -33.724 129.286   7.660  1.00 31.86    -0.048 C 
HETATM    7  C7  VFQ X1621     -34.640 129.904   8.641  1.00 31.86     0.009 C 
HETATM    8  C8  VFQ X1621     -34.744 131.235   8.687  1.00 31.86     0.007 C 
HETATM    9  C9  VFQ X1621     -35.829 131.830   9.500  1.00 31.86    -0.062 C 
HETATM   10  C10 VFQ X1621     -36.255 133.058   9.140  1.00 31.86     0.007 C 
HETATM   11  C11 VFQ X1621     -37.423 133.708   9.731  1.00 31.86     0.001 C 
HETATM   12  C12 VFQ X1621     -37.937 134.785   9.140  1.00 31.86     0.007 C 
HETATM   13  C13 VFQ X1621     -39.171 135.428   9.645  1.00 31.86    -0.062 C 
HETATM   14  C14 VFQ X1621     -39.698 136.422   8.899  1.00 31.86     0.007 C 
HETATM   15  C15 VFQ X1621     -40.925 137.143   9.243  1.00 31.86     0.001 C 
HETATM   16  C16 VFQ X1621     -33.755 126.879   7.831  1.00 31.86     0.020 C 
HETATM   17  C17 VFQ X1621     -35.702 128.004   6.813  1.00 31.86     0.020 C 
HETATM   18  C18 VFQ X1621     -31.751 130.695   8.197  1.00 31.86     0.044 C 
HETATM   19  C19 VFQ X1621     -36.470 131.026  10.608  1.00 31.86     0.048 C 
HETATM   20  C20 VFQ X1621     -39.783 134.925  10.928  1.00 31.86     0.048 C 
HETATM   21  O3  VFQ X1621     -31.479 127.699   4.496  1.00 31.86    -0.395 OA
ATOM     22  H3  VFQ X1621     -30.680 128.174   4.297  1.00  0.00     0.210 HD
HETATM   23  C21 VFQ X1621     -50.497 144.494   9.934  1.00 32.37    -0.018 C 
HETATM   24  C22 VFQ X1621     -51.620 145.084  10.773  1.00 32.37     0.045 C 
HETATM   25  C23 VFQ X1621     -51.337 146.466  11.320  1.00 32.37     0.123 C 
HETATM   26  C24 VFQ X1621     -50.045 146.380  12.104  1.00 32.37     0.066 C 
HETATM   27  C25 VFQ X1621     -48.927 145.962  11.184  1.00 32.37    -0.074 C 
HETATM   28  C26 VFQ X1621     -49.216 145.321  10.046  1.00 32.37    -0.048 C 
HETATM   29  C27 VFQ X1621     -48.187 145.127   9.016  1.00 32.37     0.009 C 
HETATM   30  C28 VFQ X1621     -47.623 143.930   9.224  1.00 32.37     0.007 C 
HETATM   31  C29 VFQ X1621     -46.500 143.420   8.418  1.00 31.86    -0.062 C 
HETATM   32  C30 VFQ X1621     -45.982 142.227   8.781  1.00 31.86     0.007 C 
HETATM   33  C31 VFQ X1621     -44.835 141.597   8.128  1.00 31.86     0.001 C 
HETATM   34  C32 VFQ X1621     -44.321 140.488   8.656  1.00 31.86     0.007 C 
HETATM   35  C33 VFQ X1621     -43.115 139.845   8.094  1.00 31.86    -0.062 C 
HETATM   36  C34 VFQ X1621     -42.591 138.821   8.799  1.00 31.86     0.007 C 
HETATM   37  C35 VFQ X1621     -41.372 138.097   8.433  1.00 31.86     0.001 C 
HETATM   38  C36 VFQ X1621     -50.965 144.547   8.481  1.00 32.37     0.020 C 
HETATM   39  C37 VFQ X1621     -50.401 143.033  10.368  1.00 32.37     0.020 C 
HETATM   40  C38 VFQ X1621     -47.519 146.272  11.621  1.00 32.37     0.044 C 
HETATM   41  C39 VFQ X1621     -46.008 144.244   7.255  1.00 31.86     0.048 C 
HETATM   42  C40 VFQ X1621     -42.514 140.386   6.824  1.00 31.86     0.048 C 
HETATM   43  O23 VFQ X1621     -52.422 146.805  12.191  1.00 32.37    -0.395 OA
ATOM     44  H23 VFQ X1621     -53.234 146.859  11.699  1.00  0.00     0.210 HD
ENDROOT
TORSDOF 12
