REMARK VINA RESULT:    -8.234      1.345     16.779
REMARK INTER + INTRA:         -11.432
REMARK INTER:                 -11.072
REMARK INTRA:                  -0.360
REMARK UNBOUND:                -3.199
REMARK  0 active torsions:
REMARK  status: ('A' for Active; 'I' for Inactive)
REMARK       I    between atoms: C3_3  and  O3_21 
REMARK       I    between atoms: C6_6  and  C7_7 
REMARK       I    between atoms: C8_8  and  C9_9 
REMARK       I    between atoms: C10_10  and  C11_11 
REMARK       I    between atoms: C12_12  and  C13_13 
REMARK       I    between atoms: C14_14  and  C15_15 
REMARK       I    between atoms: C23_25  and  O23_43 
REMARK       I    between atoms: C26_28  and  C27_29 
REMARK       I    between atoms: C28_30  and  C29_31 
REMARK       I    between atoms: C30_32  and  C31_33 
REMARK       I    between atoms: C32_34  and  C33_35 
REMARK       I    between atoms: C34_36  and  C35_37 
ROOT
HETATM    1  C1  VFQ 21621     -49.758 145.434  11.349  1.00 90.34    -0.018 C 
HETATM    2  C2  VFQ 21621     -50.648 145.676  12.564  1.00 90.34     0.045 C 
HETATM    3  C3  VFQ 21621     -50.108 146.562  13.674  1.00 90.34     0.123 C 
HETATM    4  C4  VFQ 21621     -49.200 147.645  13.129  1.00 90.34     0.066 C 
HETATM    5  C5  VFQ 21621     -48.105 146.974  12.353  1.00 90.34    -0.074 C 
HETATM    6  C6  VFQ 21621     -48.392 146.084  11.405  1.00 90.34    -0.048 C 
HETATM    7  C7  VFQ 21621     -47.402 145.710  10.364  1.00 90.34     0.009 C 
HETATM    8  C8  VFQ 21621     -46.433 144.829  10.622  1.00 90.34     0.007 C 
HETATM    9  C9  VFQ 21621     -45.433 144.383   9.642  1.00 90.34    -0.062 C 
HETATM   10  C10 VFQ 21621     -44.756 143.284   9.975  1.00 90.34     0.007 C 
HETATM   11  C11 VFQ 21621     -43.737 142.608   9.191  1.00 90.34     0.001 C 
HETATM   12  C12 VFQ 21621     -43.225 141.532   9.781  1.00 90.34     0.007 C 
HETATM   13  C13 VFQ 21621     -42.208 140.690   9.140  1.00 90.34    -0.062 C 
HETATM   14  C14 VFQ 21621     -41.778 139.605   9.790  1.00 90.34     0.007 C 
HETATM   15  C15 VFQ 21621     -40.799 138.702   9.198  1.00 90.34     0.001 C 
HETATM   16  C16 VFQ 21621     -50.544 145.909  10.133  1.00 90.34     0.020 C 
HETATM   17  C17 VFQ 21621     -49.517 143.942  11.232  1.00 90.34     0.020 C 
HETATM   18  C18 VFQ 21621     -46.964 147.932  12.220  1.00 90.34     0.044 C 
HETATM   19  C19 VFQ 21621     -45.199 145.106   8.352  1.00 90.34     0.048 C 
HETATM   20  C20 VFQ 21621     -41.686 141.034   7.779  1.00 90.34     0.048 C 
HETATM   21  O3  VFQ 21621     -51.217 147.189  14.318  1.00 90.34    -0.395 OA
ATOM     22  H3  VFQ 21621     -50.880 147.742  15.012  1.00  0.00     0.210 HD
HETATM   23  C21 VFQ 21621     -33.947 128.098   7.251  1.00 57.09    -0.018 C 
HETATM   24  C22 VFQ 21621     -33.014 127.277   6.370  1.00 57.09     0.045 C 
HETATM   25  C23 VFQ 21621     -31.754 127.956   5.867  1.00 57.09     0.123 C 
HETATM   26  C24 VFQ 21621     -32.024 129.408   5.546  1.00 57.09     0.066 C 
HETATM   27  C25 VFQ 21621     -32.542 130.084   6.782  1.00 57.09    -0.074 C 
HETATM   28  C26 VFQ 21621     -33.533 129.534   7.493  1.00 57.09    -0.048 C 
HETATM   29  C27 VFQ 21621     -34.246 130.296   8.553  1.00 57.09     0.009 C 
HETATM   30  C28 VFQ 21621     -35.229 131.155   8.266  1.00 57.09     0.007 C 
HETATM   31  C29 VFQ 21621     -35.970 131.911   9.278  1.00 90.34    -0.062 C 
HETATM   32  C30 VFQ 21621     -36.996 132.630   8.830  1.00 90.34     0.007 C 
HETATM   33  C31 VFQ 21621     -37.883 133.436   9.656  1.00 90.34     0.001 C 
HETATM   34  C32 VFQ 21621     -38.316 134.568   9.115  1.00 90.34     0.007 C 
HETATM   35  C33 VFQ 21621     -39.241 135.473   9.808  1.00 90.34    -0.062 C 
HETATM   36  C34 VFQ 21621     -39.530 136.655   9.245  1.00 90.34     0.007 C 
HETATM   37  C35 VFQ 21621     -40.471 137.590   9.850  1.00 90.34     0.001 C 
HETATM   38  C36 VFQ 21621     -33.992 127.428   8.606  1.00 57.09     0.020 C 
HETATM   39  C37 VFQ 21621     -35.327 128.032   6.616  1.00 57.09     0.020 C 
HETATM   40  C38 VFQ 21621     -31.882 131.371   7.182  1.00 57.09     0.044 C 
HETATM   41  C39 VFQ 21621     -35.610 131.860  10.732  1.00 90.34     0.048 C 
HETATM   42  C40 VFQ 21621     -39.854 135.046  11.102  1.00 90.34     0.048 C 
HETATM   43  O23 VFQ 21621     -31.349 127.287   4.672  1.00 57.09    -0.395 OA
ATOM     44  H23 VFQ 21621     -31.179 126.375   4.874  1.00  0.00     0.210 HD
ENDROOT
TORSDOF 12
