REMARK VINA RESULT:    -8.700      0.000      0.000
REMARK INTER + INTRA:         -10.959
REMARK INTER:                  -8.700
REMARK INTRA:                  -2.259
REMARK UNBOUND:                -2.259
REMARK  0 active torsions:
REMARK  status: ('A' for Active; 'I' for Inactive)
REMARK       I    between atoms: C3_3  and  O3_21 
REMARK       I    between atoms: C6_6  and  C7_7 
REMARK       I    between atoms: C8_8  and  C9_9 
REMARK       I    between atoms: C10_10  and  C11_11 
REMARK       I    between atoms: C12_12  and  C13_13 
REMARK       I    between atoms: C14_14  and  C15_15 
REMARK       I    between atoms: C23_25  and  O23_43 
REMARK       I    between atoms: C26_28  and  C27_29 
REMARK       I    between atoms: C28_30  and  C29_31 
REMARK       I    between atoms: C30_32  and  C31_33 
REMARK       I    between atoms: C32_34  and  C33_35 
REMARK       I    between atoms: C34_36  and  C35_37 
ROOT
HETATM    1  C1  VFQ 2 619     -34.154 127.206   6.682  1.00 46.63    -0.018 C 
HETATM    2  C2  VFQ 2 619     -34.290 127.540   5.199  1.00 46.63     0.045 C 
HETATM    3  C3  VFQ 2 619     -33.305 128.583   4.686  1.00 46.63     0.123 C 
HETATM    4  C4  VFQ 2 619     -31.977 128.433   5.407  1.00 46.63     0.066 C 
HETATM    5  C5  VFQ 2 619     -32.224 128.723   6.863  1.00 46.63    -0.074 C 
HETATM    6  C6  VFQ 2 619     -33.309 128.197   7.439  1.00 46.63    -0.048 C 
HETATM    7  C7  VFQ 2 619     -33.889 128.819   8.626  1.00 46.63     0.009 C 
HETATM    8  C8  VFQ 2 619     -34.392 129.998   8.245  1.00 46.63     0.007 C 
HETATM    9  C9  VFQ 2 619     -35.194 130.852   9.154  1.00 46.63    -0.062 C 
HETATM   10  C10 VFQ 2 619     -35.867 131.883   8.611  1.00 46.63     0.007 C 
HETATM   11  C11 VFQ 2 619     -36.752 132.771   9.367  1.00 46.63     0.001 C 
HETATM   12  C12 VFQ 2 619     -37.442 133.714   8.736  1.00 46.63     0.007 C 
HETATM   13  C13 VFQ 2 619     -38.371 134.606   9.459  1.00 46.63    -0.062 C 
HETATM   14  C14 VFQ 2 619     -39.088 135.458   8.706  1.00 46.63     0.007 C 
HETATM   15  C15 VFQ 2 619     -40.070 136.414   9.210  1.00 46.63     0.001 C 
HETATM   16  C16 VFQ 2 619     -33.477 125.850   6.835  1.00 46.63     0.020 C 
HETATM   17  C17 VFQ 2 619     -35.531 127.164   7.328  1.00 46.63     0.020 C 
HETATM   18  C18 VFQ 2 619     -31.356 129.770   7.511  1.00 46.63     0.044 C 
HETATM   19  C19 VFQ 2 619     -35.263 130.530  10.622  1.00 46.63     0.048 C 
HETATM   20  C20 VFQ 2 619     -38.477 134.523  10.955  1.00 46.63     0.048 C 
HETATM   21  O3  VFQ 2 619     -33.098 128.400   3.282  1.00 46.63    -0.395 OA
ATOM     22  H3  VFQ 2 619     -32.484 129.050   2.962  1.00  0.00     0.210 HD
HETATM   23  C21 VFQ 2 619     -49.527 144.619   9.594  1.00 59.27    -0.018 C 
HETATM   24  C22 VFQ 2 619     -50.374 145.440  10.556  1.00 64.60     0.045 C 
HETATM   25  C23 VFQ 2 619     -49.920 146.871  10.742  1.00 63.28     0.123 C 
HETATM   26  C24 VFQ 2 619     -48.472 146.900  11.153  1.00 61.00     0.066 C 
HETATM   27  C25 VFQ 2 619     -47.631 146.173  10.142  1.00 64.87    -0.074 C 
HETATM   28  C26 VFQ 2 619     -48.093 145.109   9.453  1.00 63.96    -0.048 C 
HETATM   29  C27 VFQ 2 619     -47.221 144.396   8.482  1.00 64.82     0.009 C 
HETATM   30  C28 VFQ 2 619     -46.374 143.428   8.847  1.00 58.91     0.007 C 
HETATM   31  C29 VFQ 2 619     -45.526 142.720   7.889  1.00 46.63    -0.062 C 
HETATM   32  C30 VFQ 2 619     -44.797 141.735   8.426  1.00 46.63     0.007 C 
HETATM   33  C31 VFQ 2 619     -43.891 140.860   7.700  1.00 46.63     0.001 C 
HETATM   34  C32 VFQ 2 619     -43.263 139.946   8.431  1.00 46.63     0.007 C 
HETATM   35  C33 VFQ 2 619     -42.304 138.989   7.861  1.00 46.63    -0.062 C 
HETATM   36  C34 VFQ 2 619     -41.680 138.164   8.721  1.00 46.63     0.007 C 
HETATM   37  C35 VFQ 2 619     -40.688 137.173   8.315  1.00 46.63     0.001 C 
HETATM   38  C36 VFQ 2 619     -50.154 144.697   8.211  1.00 56.55     0.020 C 
HETATM   39  C37 VFQ 2 619     -49.618 143.183  10.099  1.00 59.14     0.020 C 
HETATM   40  C38 VFQ 2 619     -46.249 146.733   9.964  1.00 61.00     0.044 C 
HETATM   41  C39 VFQ 2 619     -45.551 143.072   6.432  1.00 46.63     0.048 C 
HETATM   42  C40 VFQ 2 619     -42.087 139.000   6.376  1.00 46.63     0.048 C 
HETATM   43  O23 VFQ 2 619     -50.708 147.480  11.768  1.00 73.40    -0.395 OA
ATOM     44  H23 VFQ 2 619     -51.622 147.462  11.508  1.00  0.00     0.210 HD
ENDROOT
TORSDOF 12
