REMARK VINA RESULT:    -8.339      0.000      0.000
REMARK INTER + INTRA:         -11.180
REMARK INTER:                  -8.339
REMARK INTRA:                  -2.841
REMARK UNBOUND:                -2.841
REMARK  0 active torsions:
REMARK  status: ('A' for Active; 'I' for Inactive)
REMARK       I    between atoms: C3_3  and  O3_21 
REMARK       I    between atoms: C6_6  and  C7_7 
REMARK       I    between atoms: C8_8  and  C9_9 
REMARK       I    between atoms: C10_10  and  C11_11 
REMARK       I    between atoms: C12_12  and  C13_13 
REMARK       I    between atoms: C14_14  and  C15_15 
REMARK       I    between atoms: C23_25  and  O23_43 
REMARK       I    between atoms: C26_28  and  C27_29 
REMARK       I    between atoms: C28_30  and  C29_31 
REMARK       I    between atoms: C30_32  and  C31_33 
REMARK       I    between atoms: C32_34  and  C33_35 
REMARK       I    between atoms: C34_36  and  C35_37 
ROOT
HETATM    1  C1  VFQ J9620     -34.490 126.899   6.211  1.00 17.81    -0.018 C 
HETATM    2  C2  VFQ J9620     -33.853 126.091   5.061  1.00 18.03     0.045 C 
HETATM    3  C3  VFQ J9620     -32.884 126.852   4.161  1.00 19.41     0.123 C 
HETATM    4  C4  VFQ J9620     -31.884 127.689   4.955  1.00 18.47     0.066 C 
HETATM    5  C5  VFQ J9620     -32.442 128.441   6.118  1.00 18.29    -0.074 C 
HETATM    6  C6  VFQ J9620     -33.647 128.107   6.726  1.00 18.07    -0.048 C 
HETATM    7  C7  VFQ J9620     -34.174 128.879   7.876  1.00 17.25     0.009 C 
HETATM    8  C8  VFQ J9620     -34.819 130.059   7.825  1.00 17.01     0.007 C 
HETATM    9  C9  VFQ J9620     -35.247 130.910   8.941  1.00 17.86    -0.062 C 
HETATM   10  C10 VFQ J9620     -35.979 132.008   8.651  1.00 14.07     0.007 C 
HETATM   11  C11 VFQ J9620     -36.514 132.958   9.583  1.00 13.24     0.001 C 
HETATM   12  C12 VFQ J9620     -37.372 133.888   9.144  1.00 13.26     0.007 C 
HETATM   13  C13 VFQ J9620     -38.093 134.898   9.915  1.00 14.95    -0.062 C 
HETATM   14  C14 VFQ J9620     -38.995 135.654   9.252  1.00 15.84     0.007 C 
HETATM   15  C15 VFQ J9620     -39.890 136.653   9.794  1.00 15.11     0.001 C 
HETATM   16  C16 VFQ J9620     -34.670 125.850   7.310  1.00 16.04     0.020 C 
HETATM   17  C17 VFQ J9620     -35.893 127.367   5.801  1.00 17.79     0.020 C 
HETATM   18  C18 VFQ J9620     -31.479 129.533   6.429  1.00 17.18     0.044 C 
HETATM   19  C19 VFQ J9620     -34.881 130.473  10.338  1.00 17.70     0.048 C 
HETATM   20  C20 VFQ J9620     -37.838 134.973  11.399  1.00 11.96     0.048 C 
HETATM   21  O3  VFQ J9620     -32.203 125.962   3.287  1.00 19.31    -0.395 OA
ATOM     22  H3  VFQ J9620     -31.600 126.435   2.727  1.00  0.00     0.210 HD
HETATM   23  C21 VFQ J9620     -49.522 144.453  12.631  1.00 25.46    -0.018 C 
HETATM   24  C22 VFQ J9620     -50.213 145.373  13.634  1.00 25.46     0.045 C 
HETATM   25  C23 VFQ J9620     -49.565 146.721  13.898  1.00 25.46     0.123 C 
HETATM   26  C24 VFQ J9620     -48.060 146.579  13.928  1.00 25.46     0.066 C 
HETATM   27  C25 VFQ J9620     -47.632 146.059  12.587  1.00 25.46    -0.074 C 
HETATM   28  C26 VFQ J9620     -48.215 144.977  12.061  1.00 25.46    -0.048 C 
HETATM   29  C27 VFQ J9620     -47.620 144.290  10.877  1.00 25.46     0.009 C 
HETATM   30  C28 VFQ J9620     -46.670 143.360  11.003  1.00 25.46     0.007 C 
HETATM   31  C29 VFQ J9620     -46.016 142.611   9.879  1.00 23.86    -0.062 C 
HETATM   32  C30 VFQ J9620     -45.076 141.696  10.199  1.00 20.58     0.007 C 
HETATM   33  C31 VFQ J9620     -44.350 140.832   9.296  1.00 18.13     0.001 C 
HETATM   34  C32 VFQ J9620     -43.403 139.964   9.724  1.00 14.57     0.007 C 
HETATM   35  C33 VFQ J9620     -42.575 139.041   8.924  1.00 16.93    -0.062 C 
HETATM   36  C34 VFQ J9620     -41.666 138.280   9.574  1.00 15.59     0.007 C 
HETATM   37  C35 VFQ J9620     -40.759 137.314   9.013  1.00 13.74     0.001 C 
HETATM   38  C36 VFQ J9620     -50.455 144.294  11.447  1.00 25.46     0.020 C 
HETATM   39  C37 VFQ J9620     -49.339 143.099  13.306  1.00 25.46     0.020 C 
HETATM   40  C38 VFQ J9620     -46.569 146.824  11.866  1.00 25.46     0.044 C 
HETATM   41  C39 VFQ J9620     -46.444 142.916   8.466  1.00 22.74     0.048 C 
HETATM   42  C40 VFQ J9620     -42.785 139.016   7.434  1.00 15.29     0.048 C 
HETATM   43  O23 VFQ J9620     -50.017 147.198  15.168  1.00 25.46    -0.395 OA
ATOM     44  H23 VFQ J9620     -50.963 147.287  15.150  1.00  0.00     0.210 HD
ENDROOT
TORSDOF 12
