REMARK VINA RESULT:   -12.272      0.000      0.000
REMARK INTER + INTRA:         -14.721
REMARK INTER:                 -12.272
REMARK INTRA:                  -2.449
REMARK UNBOUND:                -2.449
REMARK  0 active torsions:
REMARK  status: ('A' for Active; 'I' for Inactive)
REMARK       I    between atoms: C3_3  and  O3_21 
REMARK       I    between atoms: C6_6  and  C7_7 
REMARK       I    between atoms: C8_8  and  C9_9 
REMARK       I    between atoms: C10_10  and  C11_11 
REMARK       I    between atoms: C12_12  and  C13_13 
REMARK       I    between atoms: C14_14  and  C15_15 
REMARK       I    between atoms: C23_25  and  O23_43 
REMARK       I    between atoms: C26_28  and  C27_29 
REMARK       I    between atoms: C28_30  and  C29_31 
REMARK       I    between atoms: C30_32  and  C31_33 
REMARK       I    between atoms: C32_34  and  C33_35 
REMARK       I    between atoms: C34_36  and  C35_37 
ROOT
HETATM    1  C1  VFQ s1621     -34.225 127.200   6.677  1.00 56.84    -0.018 C 
HETATM    2  C2  VFQ s1621     -33.818 126.758   5.274  1.00 56.84     0.045 C 
HETATM    3  C3  VFQ s1621     -32.656 127.484   4.608  1.00 56.84     0.123 C 
HETATM    4  C4  VFQ s1621     -31.650 127.985   5.625  1.00 56.84     0.066 C 
HETATM    5  C5  VFQ s1621     -32.365 128.836   6.634  1.00 56.84    -0.074 C 
HETATM    6  C6  VFQ s1621     -33.525 128.452   7.165  1.00 56.84    -0.048 C 
HETATM    7  C7  VFQ s1621     -34.135 129.252   8.262  1.00 56.84     0.009 C 
HETATM    8  C8  VFQ s1621     -35.039 130.201   8.016  1.00 56.84     0.007 C 
HETATM    9  C9  VFQ s1621     -35.682 131.026   9.056  1.00 56.84    -0.062 C 
HETATM   10  C10 VFQ s1621     -36.556 131.948   8.646  1.00 56.84     0.007 C 
HETATM   11  C11 VFQ s1621     -37.280 132.848   9.529  1.00 56.84     0.001 C 
HETATM   12  C12 VFQ s1621     -37.871 133.872   8.925  1.00 56.84     0.007 C 
HETATM   13  C13 VFQ s1621     -38.682 134.877   9.628  1.00 56.84    -0.062 C 
HETATM   14  C14 VFQ s1621     -39.352 135.753   8.873  1.00 56.84     0.007 C 
HETATM   15  C15 VFQ s1621     -40.226 136.773   9.427  1.00 56.84     0.001 C 
HETATM   16  C16 VFQ s1621     -34.006 126.023   7.626  1.00 56.84     0.020 C 
HETATM   17  C17 VFQ s1621     -35.707 127.506   6.642  1.00 56.84     0.020 C 
HETATM   18  C18 VFQ s1621     -31.586 129.985   7.191  1.00 56.84     0.044 C 
HETATM   19  C19 VFQ s1621     -35.374 130.861  10.510  1.00 56.84     0.048 C 
HETATM   20  C20 VFQ s1621     -38.763 134.907  11.122  1.00 56.84     0.048 C 
HETATM   21  O3  VFQ s1621     -31.987 126.574   3.728  1.00 56.84    -0.395 OA
ATOM     22  H3  VFQ s1621     -31.263 127.027   3.314  1.00  0.00     0.210 HD
HETATM   23  C21 VFQ s1621     -49.820 145.264   9.150  1.00 32.73    -0.018 C 
HETATM   24  C22 VFQ s1621     -50.746 145.751  10.247  1.00 32.73     0.045 C 
HETATM   25  C23 VFQ s1621     -50.286 147.074  10.813  1.00 32.73     0.123 C 
HETATM   26  C24 VFQ s1621     -48.927 146.898  11.452  1.00 32.73     0.066 C 
HETATM   27  C25 VFQ s1621     -47.955 146.170  10.558  1.00 32.73    -0.074 C 
HETATM   28  C26 VFQ s1621     -48.344 145.408   9.513  1.00 32.73    -0.048 C 
HETATM   29  C27 VFQ s1621     -47.323 144.741   8.654  1.00 32.73     0.009 C 
HETATM   30  C28 VFQ s1621     -46.793 143.538   8.927  1.00 32.73     0.007 C 
HETATM   31  C29 VFQ s1621     -45.793 142.876   8.081  1.00 56.84    -0.062 C 
HETATM   32  C30 VFQ s1621     -45.328 141.732   8.568  1.00 56.84     0.007 C 
HETATM   33  C31 VFQ s1621     -44.363 140.862   7.920  1.00 56.84     0.001 C 
HETATM   34  C32 VFQ s1621     -43.552 140.193   8.723  1.00 56.84     0.007 C 
HETATM   35  C33 VFQ s1621     -42.576 139.238   8.198  1.00 56.84    -0.062 C 
HETATM   36  C34 VFQ s1621     -41.806 138.560   9.057  1.00 56.84     0.007 C 
HETATM   37  C35 VFQ s1621     -40.871 137.558   8.574  1.00 56.84     0.001 C 
HETATM   38  C36 VFQ s1621     -50.044 146.099   7.901  1.00 32.73     0.020 C 
HETATM   39  C37 VFQ s1621     -50.265 143.837   8.844  1.00 32.73     0.020 C 
HETATM   40  C38 VFQ s1621     -46.514 146.378  10.927  1.00 32.73     0.044 C 
HETATM   41  C39 VFQ s1621     -45.339 143.431   6.768  1.00 56.84     0.048 C 
HETATM   42  C40 VFQ s1621     -42.496 139.007   6.721  1.00 56.84     0.048 C 
HETATM   43  O23 VFQ s1621     -51.207 147.520  11.810  1.00 32.73    -0.395 OA
ATOM     44  H23 VFQ s1621     -50.917 148.352  12.166  1.00  0.00     0.210 HD
ENDROOT
TORSDOF 12
