REMARK VINA RESULT:    -7.609      1.936      2.575
REMARK INTER + INTRA:          -7.579
REMARK INTER:                  -3.239
REMARK INTRA:                  -4.340
REMARK UNBOUND:                 0.030
REMARK  0 active torsions:
REMARK  status: ('A' for Active; 'I' for Inactive)
REMARK       I    between atoms: C3_3  and  O3_21 
REMARK       I    between atoms: C6_6  and  C7_7 
REMARK       I    between atoms: C8_8  and  C9_9 
REMARK       I    between atoms: C10_10  and  C11_11 
REMARK       I    between atoms: C12_12  and  C13_13 
REMARK       I    between atoms: C14_14  and  C15_15 
REMARK       I    between atoms: C23_25  and  O23_43 
REMARK       I    between atoms: C26_28  and  C27_29 
REMARK       I    between atoms: C28_30  and  C29_31 
REMARK       I    between atoms: C30_32  and  C31_33 
REMARK       I    between atoms: C32_34  and  C33_35 
REMARK       I    between atoms: C34_36  and  C35_37 
ROOT
HETATM    1  C1  VFQ 6 321     -34.601 128.510   5.950  1.00 93.31    -0.018 C 
HETATM    2  C2  VFQ 6 321     -33.276 127.953   5.431  1.00 93.93     0.045 C 
HETATM    3  C3  VFQ 6 321     -32.024 128.439   6.150  1.00 93.98     0.123 C 
HETATM    4  C4  VFQ 6 321     -32.213 128.311   7.651  1.00 93.16     0.066 C 
HETATM    5  C5  VFQ 6 321     -33.417 129.109   8.074  1.00 92.19    -0.074 C 
HETATM    6  C6  VFQ 6 321     -34.524 129.148   7.326  1.00 91.50    -0.048 C 
HETATM    7  C7  VFQ 6 321     -35.734 129.824   7.852  1.00 98.60     0.009 C 
HETATM    8  C8  VFQ 6 321     -35.901 131.145   7.763  1.00 95.09     0.007 C 
HETATM    9  C9  VFQ 6 321     -37.117 131.796   8.295  1.00 91.76    -0.062 C 
HETATM   10  C10 VFQ 6 321     -37.167 133.133   8.364  1.00 98.95     0.007 C 
HETATM   11  C11 VFQ 6 321     -38.343 133.832   8.879  1.00 96.41     0.001 C 
HETATM   12  C12 VFQ 6 321     -38.328 135.162   8.929  1.00 94.60     0.007 C 
HETATM   13  C13 VFQ 6 321     -39.488 135.918   9.437  1.00 93.62    -0.062 C 
HETATM   14  C14 VFQ 6 321     -39.461 137.260   9.441  1.00 93.18     0.007 C 
HETATM   15  C15 VFQ 6 321     -40.608 138.016   9.938  1.00 93.10     0.001 C 
HETATM   16  C16 VFQ 6 321     -35.620 127.377   5.985  1.00 93.81     0.020 C 
HETATM   17  C17 VFQ 6 321     -35.083 129.582   4.978  1.00 92.50     0.020 C 
HETATM   18  C18 VFQ 6 321     -33.427 129.618   9.487  1.00 91.81     0.044 C 
HETATM   19  C19 VFQ 6 321     -38.282 130.969   8.754  1.00 91.57     0.048 C 
HETATM   20  C20 VFQ 6 321     -40.695 135.186   9.943  1.00 93.41     0.048 C 
HETATM   21  O3  VFQ 6 321     -30.904 127.642   5.748  1.00 94.06    -0.395 OA
ATOM     22  H3  VFQ 6 321     -30.124 127.946   6.197  1.00  0.00     0.210 HD
HETATM   23  C21 VFQ 6 321     -49.465 146.652  11.947  1.00 66.61    -0.018 C 
HETATM   24  C22 VFQ 6 321     -50.722 147.300  12.516  1.00 66.61     0.045 C 
HETATM   25  C23 VFQ 6 321     -50.695 147.777  13.960  1.00 66.61     0.123 C 
HETATM   26  C24 VFQ 6 321     -49.803 146.905  14.817  1.00 66.61     0.066 C 
HETATM   27  C25 VFQ 6 321     -48.434 146.848  14.204  1.00 66.61    -0.074 C 
HETATM   28  C26 VFQ 6 321     -48.276 146.650  12.891  1.00 66.61    -0.048 C 
HETATM   29  C27 VFQ 6 321     -46.923 146.438  12.318  1.00 66.61     0.009 C 
HETATM   30  C28 VFQ 6 321     -46.372 145.224  12.257  1.00 66.61     0.007 C 
HETATM   31  C29 VFQ 6 321     -45.035 144.980  11.682  1.00 92.38    -0.062 C 
HETATM   32  C30 VFQ 6 321     -44.604 143.710  11.650  1.00 92.82     0.007 C 
HETATM   33  C31 VFQ 6 321     -43.310 143.297  11.112  1.00 93.26     0.001 C 
HETATM   34  C32 VFQ 6 321     -43.078 141.987  11.083  1.00 94.43     0.007 C 
HETATM   35  C33 VFQ 6 321     -41.832 141.386  10.567  1.00 94.12    -0.062 C 
HETATM   36  C34 VFQ 6 321     -41.765 140.048  10.485  1.00 93.68     0.007 C 
HETATM   37  C35 VFQ 6 321     -40.587 139.347   9.984  1.00 93.36     0.001 C 
HETATM   38  C36 VFQ 6 321     -49.072 147.434  10.703  1.00 66.61     0.020 C 
HETATM   39  C37 VFQ 6 321     -49.830 145.233  11.529  1.00 66.61     0.020 C 
HETATM   40  C38 VFQ 6 321     -47.274 147.036  15.138  1.00 66.61     0.044 C 
HETATM   41  C39 VFQ 6 321     -44.190 146.104  11.157  1.00 91.58     0.048 C 
HETATM   42  C40 VFQ 6 321     -40.679 142.250  10.147  1.00 93.59     0.048 C 
HETATM   43  O23 VFQ 6 321     -52.026 147.719  14.481  1.00 66.61    -0.395 OA
ATOM     44  H23 VFQ 6 321     -52.010 148.016  15.383  1.00  0.00     0.210 HD
ENDROOT
TORSDOF 12
