REMARK VINA RESULT:   -11.620      0.000      0.000
REMARK INTER + INTRA:         -13.303
REMARK INTER:                 -11.620
REMARK INTRA:                  -1.683
REMARK UNBOUND:                -1.683
REMARK  0 active torsions:
REMARK  status: ('A' for Active; 'I' for Inactive)
REMARK       I    between atoms: C3_3  and  O3_21 
REMARK       I    between atoms: C6_6  and  C7_7 
REMARK       I    between atoms: C8_8  and  C9_9 
REMARK       I    between atoms: C10_10  and  C11_11 
REMARK       I    between atoms: C12_12  and  C13_13 
REMARK       I    between atoms: C14_14  and  C15_15 
REMARK       I    between atoms: C23_25  and  O23_43 
REMARK       I    between atoms: C26_28  and  C27_29 
REMARK       I    between atoms: C28_30  and  C29_31 
REMARK       I    between atoms: C30_32  and  C31_33 
REMARK       I    between atoms: C32_34  and  C33_35 
REMARK       I    between atoms: C34_36  and  C35_37 
ROOT
HETATM    1  C1  VFQ G1620     -49.251 144.190  12.261  1.00 59.27    -0.018 C 
HETATM    2  C2  VFQ G1620     -49.953 144.836  13.444  1.00 64.60     0.045 C 
HETATM    3  C3  VFQ G1620     -49.062 145.678  14.332  1.00 63.28     0.123 C 
HETATM    4  C4  VFQ G1620     -48.348 146.716  13.507  1.00 61.00     0.066 C 
HETATM    5  C5  VFQ G1620     -47.575 146.056  12.401  1.00 64.87    -0.074 C 
HETATM    6  C6  VFQ G1620     -47.998 144.923  11.803  1.00 63.96    -0.048 C 
HETATM    7  C7  VFQ G1620     -47.272 144.367  10.630  1.00 64.82     0.009 C 
HETATM    8  C8  VFQ G1620     -46.209 143.565  10.751  1.00 58.91     0.007 C 
HETATM    9  C9  VFQ G1620     -45.504 143.008   9.596  1.00 59.76    -0.062 C 
HETATM   10  C10 VFQ G1620     -44.515 142.156   9.880  1.00 59.44     0.007 C 
HETATM   11  C11 VFQ G1620     -43.680 141.468   8.914  1.00 53.66     0.001 C 
HETATM   12  C12 VFQ G1620     -42.908 140.545   9.464  1.00 59.47     0.007 C 
HETATM   13  C13 VFQ G1620     -41.995 139.692   8.697  1.00 64.69    -0.062 C 
HETATM   14  C14 VFQ G1620     -41.400 138.691   9.351  1.00 66.67     0.007 C 
HETATM   15  C15 VFQ G1620     -40.502 137.757   8.689  1.00 73.65     0.001 C 
HETATM   16  C16 VFQ G1620     -50.310 144.084  11.168  1.00 56.55     0.020 C 
HETATM   17  C17 VFQ G1620     -48.815 142.789  12.663  1.00 59.14     0.020 C 
HETATM   18  C18 VFQ G1620     -46.391 146.849  11.922  1.00 61.00     0.044 C 
HETATM   19  C19 VFQ G1620     -45.878 143.405   8.200  1.00 55.95     0.048 C 
HETATM   20  C20 VFQ G1620     -41.761 139.937   7.239  1.00 67.83     0.048 C 
HETATM   21  O3  VFQ G1620     -49.869 146.336  15.312  1.00 73.40    -0.395 OA
ATOM     22  H3  VFQ G1620     -49.310 146.865  15.870  1.00  0.00     0.210 HD
HETATM   23  C21 VFQ G1620     -34.175 126.957   6.912  1.00 57.46    -0.018 C 
HETATM   24  C22 VFQ G1620     -33.253 126.005   6.163  1.00 54.62     0.045 C 
HETATM   25  C23 VFQ G1620     -32.420 126.562   5.007  1.00 54.91     0.123 C 
HETATM   26  C24 VFQ G1620     -32.363 128.080   4.896  1.00 56.99     0.066 C 
HETATM   27  C25 VFQ G1620     -32.592 128.739   6.229  1.00 60.65    -0.074 C 
HETATM   28  C26 VFQ G1620     -33.577 128.339   7.035  1.00 60.28    -0.048 C 
HETATM   29  C27 VFQ G1620     -34.102 129.212   8.106  1.00 57.11     0.009 C 
HETATM   30  C28 VFQ G1620     -34.981 130.174   7.858  1.00 53.31     0.007 C 
HETATM   31  C29 VFQ G1620     -35.530 131.018   8.937  1.00 93.82    -0.062 C 
HETATM   32  C30 VFQ G1620     -36.425 131.915   8.530  1.00 83.29     0.007 C 
HETATM   33  C31 VFQ G1620     -37.128 132.834   9.402  1.00 75.18     0.001 C 
HETATM   34  C32 VFQ G1620     -37.844 133.746   8.767  1.00 71.38     0.007 C 
HETATM   35  C33 VFQ G1620     -38.656 134.735   9.479  1.00 70.67    -0.062 C 
HETATM   36  C34 VFQ G1620     -39.266 135.683   8.758  1.00 74.09     0.007 C 
HETATM   37  C35 VFQ G1620     -40.127 136.681   9.371  1.00 74.87     0.001 C 
HETATM   38  C36 VFQ G1620     -34.367 126.407   8.314  1.00 59.48     0.020 C 
HETATM   39  C37 VFQ G1620     -35.552 126.995   6.251  1.00 57.14     0.020 C 
HETATM   40  C38 VFQ G1620     -31.671 129.849   6.626  1.00 65.36     0.044 C 
HETATM   41  C39 VFQ G1620     -35.128 130.874  10.374  1.00 99.93     0.048 C 
HETATM   42  C40 VFQ G1620     -38.810 134.650  10.963  1.00 65.73     0.048 C 
HETATM   43  O23 VFQ G1620     -32.975 126.044   3.796  1.00 51.54    -0.395 OA
ATOM     44  H23 VFQ G1620     -33.010 125.097   3.865  1.00  0.00     0.210 HD
ENDROOT
TORSDOF 12
