REMARK VINA RESULT:   -13.328      1.039     16.403
REMARK INTER + INTRA:         -13.737
REMARK INTER:                 -11.029
REMARK INTRA:                  -2.707
REMARK UNBOUND:                -0.409
REMARK  0 active torsions:
REMARK  status: ('A' for Active; 'I' for Inactive)
REMARK       I    between atoms: C3_3  and  O3_21 
REMARK       I    between atoms: C6_6  and  C7_7 
REMARK       I    between atoms: C8_8  and  C9_9 
REMARK       I    between atoms: C10_10  and  C11_11 
REMARK       I    between atoms: C12_12  and  C13_13 
REMARK       I    between atoms: C14_14  and  C15_15 
REMARK       I    between atoms: C23_25  and  O23_43 
REMARK       I    between atoms: C26_28  and  C27_29 
REMARK       I    between atoms: C28_30  and  C29_31 
REMARK       I    between atoms: C30_32  and  C31_33 
REMARK       I    between atoms: C32_34  and  C33_35 
REMARK       I    between atoms: C34_36  and  C35_37 
ROOT
HETATM    1  C1  VFQ 1 617     -34.379 127.448   6.482  1.00 21.49    -0.018 C 
HETATM    2  C2  VFQ 1 617     -33.866 127.107   5.086  1.00 21.49     0.045 C 
HETATM    3  C3  VFQ 1 617     -32.565 127.753   4.635  1.00 21.49     0.123 C 
HETATM    4  C4  VFQ 1 617     -31.589 127.922   5.776  1.00 21.49     0.066 C 
HETATM    5  C5  VFQ 1 617     -32.241 128.667   6.906  1.00 21.49    -0.074 C 
HETATM    6  C6  VFQ 1 617     -33.520 128.448   7.240  1.00 21.49    -0.048 C 
HETATM    7  C7  VFQ 1 617     -34.120 129.183   8.386  1.00 21.49     0.009 C 
HETATM    8  C8  VFQ 1 617     -34.806 130.313   8.209  1.00 21.49     0.007 C 
HETATM    9  C9  VFQ 1 617     -35.416 131.078   9.307  1.00 21.49    -0.062 C 
HETATM   10  C10 VFQ 1 617     -36.161 132.127   8.947  1.00 21.49     0.007 C 
HETATM   11  C11 VFQ 1 617     -36.874 133.034   9.837  1.00 21.49     0.001 C 
HETATM   12  C12 VFQ 1 617     -37.534 133.972   9.176  1.00 21.49     0.007 C 
HETATM   13  C13 VFQ 1 617     -38.376 135.016   9.772  1.00 21.49    -0.062 C 
HETATM   14  C14 VFQ 1 617     -39.122 135.729   8.924  1.00 21.49     0.007 C 
HETATM   15  C15 VFQ 1 617     -40.038 136.770   9.361  1.00 21.49     0.001 C 
HETATM   16  C16 VFQ 1 617     -34.507 126.124   7.235  1.00 21.49     0.020 C 
HETATM   17  C17 VFQ 1 617     -35.764 128.056   6.324  1.00 21.49     0.020 C 
HETATM   18  C18 VFQ 1 617     -31.372 129.632   7.660  1.00 21.49     0.044 C 
HETATM   19  C19 VFQ 1 617     -35.188 130.704  10.739  1.00 21.49     0.048 C 
HETATM   20  C20 VFQ 1 617     -38.416 135.261  11.249  1.00 21.49     0.048 C 
HETATM   21  O3  VFQ 1 617     -31.960 126.896   3.661  1.00 21.49    -0.395 OA
ATOM     22  H3  VFQ 1 617     -31.148 127.300   3.379  1.00  0.00     0.210 HD
HETATM   23  C21 VFQ 1 617     -49.727 144.618   9.644  1.00 87.69    -0.018 C 
HETATM   24  C22 VFQ 1 617     -50.584 145.679  10.306  1.00 87.69     0.045 C 
HETATM   25  C23 VFQ 1 617     -50.008 146.349  11.548  1.00 87.69     0.123 C 
HETATM   26  C24 VFQ 1 617     -48.487 146.431  11.594  1.00 87.69     0.066 C 
HETATM   27  C25 VFQ 1 617     -47.826 146.047  10.296  1.00 87.69    -0.074 C 
HETATM   28  C26 VFQ 1 617     -48.288 145.047   9.548  1.00 87.69    -0.048 C 
HETATM   29  C27 VFQ 1 617     -47.413 144.356   8.575  1.00 87.69     0.009 C 
HETATM   30  C28 VFQ 1 617     -46.584 143.394   8.966  1.00 87.69     0.007 C 
HETATM   31  C29 VFQ 1 617     -45.720 142.677   8.025  1.00 21.49    -0.062 C 
HETATM   32  C30 VFQ 1 617     -45.153 141.565   8.484  1.00 21.49     0.007 C 
HETATM   33  C31 VFQ 1 617     -44.287 140.704   7.701  1.00 21.49     0.001 C 
HETATM   34  C32 VFQ 1 617     -43.515 139.927   8.443  1.00 21.49     0.007 C 
HETATM   35  C33 VFQ 1 617     -42.555 138.952   7.923  1.00 21.49    -0.062 C 
HETATM   36  C34 VFQ 1 617     -41.815 138.296   8.823  1.00 21.49     0.007 C 
HETATM   37  C35 VFQ 1 617     -40.851 137.281   8.443  1.00 21.49     0.001 C 
HETATM   38  C36 VFQ 1 617     -50.243 144.445   8.234  1.00 87.69     0.020 C 
HETATM   39  C37 VFQ 1 617     -49.861 143.282  10.368  1.00 87.69     0.020 C 
HETATM   40  C38 VFQ 1 617     -46.631 146.844   9.875  1.00 87.69     0.044 C 
HETATM   41  C39 VFQ 1 617     -45.504 143.160   6.624  1.00 21.49     0.048 C 
HETATM   42  C40 VFQ 1 617     -42.431 138.705   6.453  1.00 21.49     0.048 C 
HETATM   43  O23 VFQ 1 617     -50.445 145.594  12.676  1.00 87.69    -0.395 OA
ATOM     44  H23 VFQ 1 617     -50.085 146.012  13.449  1.00  0.00     0.210 HD
ENDROOT
TORSDOF 12
