REMARK VINA RESULT:    -8.163      1.695      2.756
REMARK INTER + INTRA:         -11.486
REMARK INTER:                  -9.004
REMARK INTRA:                  -2.482
REMARK UNBOUND:                -3.323
REMARK  0 active torsions:
REMARK  status: ('A' for Active; 'I' for Inactive)
REMARK       I    between atoms: C3_3  and  O3_21 
REMARK       I    between atoms: C6_6  and  C7_7 
REMARK       I    between atoms: C8_8  and  C9_9 
REMARK       I    between atoms: C10_10  and  C11_11 
REMARK       I    between atoms: C12_12  and  C13_13 
REMARK       I    between atoms: C14_14  and  C15_15 
REMARK       I    between atoms: C23_25  and  O23_43 
REMARK       I    between atoms: C26_28  and  C27_29 
REMARK       I    between atoms: C28_30  and  C29_31 
REMARK       I    between atoms: C30_32  and  C31_33 
REMARK       I    between atoms: C32_34  and  C33_35 
REMARK       I    between atoms: C34_36  and  C35_37 
ROOT
HETATM    1  C1  VFQ D3621     -46.870 148.343  10.137  1.00 23.41    -0.018 C 
HETATM    2  C2  VFQ D3621     -48.289 148.927  10.254  1.00 23.79     0.045 C 
HETATM    3  C3  VFQ D3621     -49.074 148.800  11.557  1.00 23.28     0.123 C 
HETATM    4  C4  VFQ D3621     -48.201 148.516  12.790  1.00 23.70     0.066 C 
HETATM    5  C5  VFQ D3621     -46.813 147.963  12.640  1.00 23.84    -0.074 C 
HETATM    6  C6  VFQ D3621     -46.151 147.867  11.432  1.00 22.99    -0.048 C 
HETATM    7  C7  VFQ D3621     -44.773 147.334  11.257  1.00 20.55     0.009 C 
HETATM    8  C8  VFQ D3621     -44.457 146.023  11.192  1.00 19.35     0.007 C 
HETATM    9  C9  VFQ D3621     -43.149 145.373  11.081  1.00 18.45    -0.062 C 
HETATM   10  C10 VFQ D3621     -43.136 144.033  10.901  1.00 18.11     0.007 C 
HETATM   11  C11 VFQ D3621     -41.987 143.202  10.678  1.00 18.44     0.001 C 
HETATM   12  C12 VFQ D3621     -42.091 141.877  10.428  1.00 19.34     0.007 C 
HETATM   13  C13 VFQ D3621     -40.979 140.969  10.089  1.00 20.12    -0.062 C 
HETATM   14  C14 VFQ D3621     -41.261 139.668   9.837  1.00 19.73     0.007 C 
HETATM   15  C15 VFQ D3621     -40.326 138.621   9.434  1.00 19.24     0.001 C 
HETATM   16  C16 VFQ D3621     -46.111 149.510   9.496  1.00 23.73     0.020 C 
HETATM   17  C17 VFQ D3621     -46.926 147.197   9.118  1.00 23.42     0.020 C 
HETATM   18  C18 VFQ D3621     -46.290 147.587  13.979  1.00 22.78     0.044 C 
HETATM   19  C19 VFQ D3621     -41.929 146.241  11.095  1.00 16.12     0.048 C 
HETATM   20  C20 VFQ D3621     -39.602 141.570  10.020  1.00 17.75     0.048 C 
HETATM   21  O3  VFQ D3621     -49.869 149.959  11.764  1.00 21.52    -0.395 OA
ATOM     22  H3  VFQ D3621     -50.358 149.881  12.574  1.00  0.00     0.210 HD
HETATM   23  C21 VFQ D3621     -34.511 127.408   5.952  1.00 38.90    -0.018 C 
HETATM   24  C22 VFQ D3621     -33.142 126.763   5.744  1.00 38.90     0.045 C 
HETATM   25  C23 VFQ D3621     -31.944 127.620   6.145  1.00 38.90     0.123 C 
HETATM   26  C24 VFQ D3621     -32.327 129.087   6.161  1.00 38.90     0.066 C 
HETATM   27  C25 VFQ D3621     -33.412 129.216   7.189  1.00 38.90    -0.074 C 
HETATM   28  C26 VFQ D3621     -34.511 128.473   7.025  1.00 38.90    -0.048 C 
HETATM   29  C27 VFQ D3621     -35.774 128.818   7.699  1.00 38.90     0.009 C 
HETATM   30  C28 VFQ D3621     -36.082 130.109   7.589  1.00 38.90     0.007 C 
HETATM   31  C29 VFQ D3621     -37.407 130.674   8.014  1.00 21.21    -0.062 C 
HETATM   32  C30 VFQ D3621     -37.584 132.013   7.902  1.00 20.08     0.007 C 
HETATM   33  C31 VFQ D3621     -38.771 132.751   8.266  1.00 17.89     0.001 C 
HETATM   34  C32 VFQ D3621     -38.811 134.105   8.328  1.00 17.64     0.007 C 
HETATM   35  C33 VFQ D3621     -39.942 134.973   8.737  1.00 17.45    -0.062 C 
HETATM   36  C34 VFQ D3621     -39.716 136.305   8.839  1.00 15.95     0.007 C 
HETATM   37  C35 VFQ D3621     -40.661 137.327   9.263  1.00 18.41     0.001 C 
HETATM   38  C36 VFQ D3621     -35.541 126.344   6.303  1.00 38.90     0.020 C 
HETATM   39  C37 VFQ D3621     -34.927 128.109   4.662  1.00 38.90     0.020 C 
HETATM   40  C38 VFQ D3621     -33.155 130.061   8.415  1.00 38.90     0.044 C 
HETATM   41  C39 VFQ D3621     -38.426 129.743   8.615  1.00 22.05     0.048 C 
HETATM   42  C40 VFQ D3621     -41.246 134.301   9.086  1.00 11.49     0.048 C 
HETATM   43  O23 VFQ D3621     -30.873 127.430   5.217  1.00 38.90    -0.395 OA
ATOM     44  H23 VFQ D3621     -30.127 127.964   5.466  1.00  0.00     0.210 HD
ENDROOT
TORSDOF 12
