REMARK VINA RESULT:   -10.884      0.000      0.000
REMARK INTER + INTRA:         -13.475
REMARK INTER:                 -10.884
REMARK INTRA:                  -2.591
REMARK UNBOUND:                -2.591
REMARK  0 active torsions:
REMARK  status: ('A' for Active; 'I' for Inactive)
REMARK       I    between atoms: C3_3  and  O3_21 
REMARK       I    between atoms: C6_6  and  C7_7 
REMARK       I    between atoms: C8_8  and  C9_9 
REMARK       I    between atoms: C10_10  and  C11_11 
REMARK       I    between atoms: C12_12  and  C13_13 
REMARK       I    between atoms: C14_14  and  C15_15 
REMARK       I    between atoms: C23_25  and  O23_43 
REMARK       I    between atoms: C26_28  and  C27_29 
REMARK       I    between atoms: C28_30  and  C29_31 
REMARK       I    between atoms: C30_32  and  C31_33 
REMARK       I    between atoms: C32_34  and  C33_35 
REMARK       I    between atoms: C34_36  and  C35_37 
ROOT
HETATM    1  C1  VFQ U1620     -33.659 129.133   7.091  1.00 22.99    -0.018 C 
HETATM    2  C2  VFQ U1620     -32.850 129.811   6.005  1.00 22.99     0.045 C 
HETATM    3  C3  VFQ U1620     -32.098 131.027   6.474  1.00 22.99     0.123 C 
HETATM    4  C4  VFQ U1620     -31.206 130.554   7.586  1.00 22.99     0.066 C 
HETATM    5  C5  VFQ U1620     -32.039 130.042   8.715  1.00 22.99    -0.074 C 
HETATM    6  C6  VFQ U1620     -33.266 129.596   8.477  1.00 22.99    -0.048 C 
HETATM    7  C7  VFQ U1620     -34.343 129.899   9.411  1.00 22.99     0.009 C 
HETATM    8  C8  VFQ U1620     -34.798 131.120   9.111  1.00 22.99     0.007 C 
HETATM    9  C9  VFQ U1620     -35.898 131.784   9.834  1.00 22.99    -0.062 C 
HETATM   10  C10 VFQ U1620     -36.288 132.992   9.395  1.00 22.99     0.007 C 
HETATM   11  C11 VFQ U1620     -37.385 133.742   9.993  1.00 22.99     0.001 C 
HETATM   12  C12 VFQ U1620     -37.759 134.906   9.476  1.00 22.99     0.007 C 
HETATM   13  C13 VFQ U1620     -38.909 135.618  10.045  1.00 22.99    -0.062 C 
HETATM   14  C14 VFQ U1620     -39.341 136.695   9.383  1.00 22.99     0.007 C 
HETATM   15  C15 VFQ U1620     -40.510 137.489   9.738  1.00 22.99     0.001 C 
HETATM   16  C16 VFQ U1620     -33.471 127.646   6.862  1.00 22.99     0.020 C 
HETATM   17  C17 VFQ U1620     -35.124 129.480   6.887  1.00 22.99     0.020 C 
HETATM   18  C18 VFQ U1620     -31.681 130.918   9.872  1.00 22.99     0.044 C 
HETATM   19  C19 VFQ U1620     -36.541 131.100  11.004  1.00 22.99     0.048 C 
HETATM   20  C20 VFQ U1620     -39.573 135.056  11.259  1.00 22.99     0.048 C 
HETATM   21  O3  VFQ U1620     -31.273 131.497   5.416  1.00 22.99    -0.395 OA
ATOM     22  H3  VFQ U1620     -30.798 132.264   5.712  1.00  0.00     0.210 HD
HETATM   23  C21 VFQ U1620     -50.365 145.295   8.672  1.00 59.27    -0.018 C 
HETATM   24  C22 VFQ U1620     -51.601 145.829   9.380  1.00 64.60     0.045 C 
HETATM   25  C23 VFQ U1620     -51.415 147.165  10.066  1.00 63.28     0.123 C 
HETATM   26  C24 VFQ U1620     -50.248 147.095  11.015  1.00 61.00     0.066 C 
HETATM   27  C25 VFQ U1620     -49.010 146.664  10.284  1.00 64.87    -0.074 C 
HETATM   28  C26 VFQ U1620     -49.051 145.815   9.237  1.00 63.96    -0.048 C 
HETATM   29  C27 VFQ U1620     -47.800 145.386   8.556  1.00 64.82     0.009 C 
HETATM   30  C28 VFQ U1620     -47.055 144.363   8.988  1.00 58.91     0.007 C 
HETATM   31  C29 VFQ U1620     -45.822 143.930   8.309  1.00 22.99    -0.062 C 
HETATM   32  C30 VFQ U1620     -45.247 142.820   8.803  1.00 22.99     0.007 C 
HETATM   33  C31 VFQ U1620     -44.042 142.176   8.284  1.00 22.99     0.001 C 
HETATM   34  C32 VFQ U1620     -43.595 141.079   8.895  1.00 22.99     0.007 C 
HETATM   35  C33 VFQ U1620     -42.390 140.355   8.454  1.00 22.99    -0.062 C 
HETATM   36  C34 VFQ U1620     -42.013 139.297   9.191  1.00 22.99     0.007 C 
HETATM   37  C35 VFQ U1620     -40.842 138.474   8.914  1.00 22.99     0.001 C 
HETATM   38  C36 VFQ U1620     -50.417 145.727   7.215  1.00 56.55     0.020 C 
HETATM   39  C37 VFQ U1620     -50.483 143.775   8.743  1.00 59.14     0.020 C 
HETATM   40  C38 VFQ U1620     -47.736 147.262  10.812  1.00 61.00     0.044 C 
HETATM   41  C39 VFQ U1620     -45.316 144.680   7.111  1.00 22.99     0.048 C 
HETATM   42  C40 VFQ U1620     -41.671 140.807   7.219  1.00 22.99     0.048 C 
HETATM   43  O23 VFQ U1620     -52.600 147.476  10.803  1.00 73.40    -0.395 OA
ATOM     44  H23 VFQ U1620     -52.483 148.315  11.234  1.00  0.00     0.210 HD
ENDROOT
TORSDOF 12
