REMARK VINA RESULT:    -9.054      0.000      0.000
REMARK INTER + INTRA:         -11.614
REMARK INTER:                  -9.054
REMARK INTRA:                  -2.559
REMARK UNBOUND:                -2.559
REMARK  0 active torsions:
REMARK  status: ('A' for Active; 'I' for Inactive)
REMARK       I    between atoms: C3_3  and  O3_21 
REMARK       I    between atoms: C6_6  and  C7_7 
REMARK       I    between atoms: C8_8  and  C9_9 
REMARK       I    between atoms: C10_10  and  C11_11 
REMARK       I    between atoms: C12_12  and  C13_13 
REMARK       I    between atoms: C14_14  and  C15_15 
REMARK       I    between atoms: C23_25  and  O23_43 
REMARK       I    between atoms: C26_28  and  C27_29 
REMARK       I    between atoms: C28_30  and  C29_31 
REMARK       I    between atoms: C30_32  and  C31_33 
REMARK       I    between atoms: C32_34  and  C33_35 
REMARK       I    between atoms: C34_36  and  C35_37 
ROOT
HETATM    1  C1  VFQ S1620     -34.533 127.051   6.241  1.00 51.40    -0.018 C 
HETATM    2  C2  VFQ S1620     -34.179 126.498   4.869  1.00 51.40     0.045 C 
HETATM    3  C3  VFQ S1620     -32.915 126.984   4.172  1.00 51.40     0.123 C 
HETATM    4  C4  VFQ S1620     -31.958 127.693   5.105  1.00 51.40     0.066 C 
HETATM    5  C5  VFQ S1620     -32.706 128.695   5.921  1.00 51.40    -0.074 C 
HETATM    6  C6  VFQ S1620     -33.775 128.307   6.608  1.00 51.40    -0.048 C 
HETATM    7  C7  VFQ S1620     -34.243 129.084   7.770  1.00 51.40     0.009 C 
HETATM    8  C8  VFQ S1620     -34.977 130.172   7.591  1.00 51.40     0.007 C 
HETATM    9  C9  VFQ S1620     -35.480 130.942   8.725  1.00 51.40    -0.062 C 
HETATM   10  C10 VFQ S1620     -36.177 132.033   8.417  1.00 51.40     0.007 C 
HETATM   11  C11 VFQ S1620     -36.803 132.934   9.363  1.00 51.40     0.001 C 
HETATM   12  C12 VFQ S1620     -37.690 133.718   8.777  1.00 51.40     0.007 C 
HETATM   13  C13 VFQ S1620     -38.505 134.706   9.480  1.00 51.40    -0.062 C 
HETATM   14  C14 VFQ S1620     -39.439 135.336   8.766  1.00 51.40     0.007 C 
HETATM   15  C15 VFQ S1620     -40.343 136.299   9.364  1.00 51.40     0.001 C 
HETATM   16  C16 VFQ S1620     -34.335 125.937   7.261  1.00 51.40     0.020 C 
HETATM   17  C17 VFQ S1620     -36.008 127.412   6.230  1.00 51.40     0.020 C 
HETATM   18  C18 VFQ S1620     -31.662 129.602   6.495  1.00 51.40     0.044 C 
HETATM   19  C19 VFQ S1620     -35.219 130.495  10.130  1.00 51.40     0.048 C 
HETATM   20  C20 VFQ S1620     -38.301 134.973  10.934  1.00 51.40     0.048 C 
HETATM   21  O3  VFQ S1620     -32.226 125.850   3.642  1.00 51.40    -0.395 OA
ATOM     22  H3  VFQ S1620     -31.437 126.154   3.208  1.00  0.00     0.210 HD
HETATM   23  C21 VFQ S1620     -49.954 143.101  12.551  1.00 32.28    -0.018 C 
HETATM   24  C22 VFQ S1620     -50.884 143.850  13.490  1.00 32.10     0.045 C 
HETATM   25  C23 VFQ S1620     -50.765 145.357  13.511  1.00 30.03     0.123 C 
HETATM   26  C24 VFQ S1620     -49.335 145.818  13.515  1.00 27.01     0.066 C 
HETATM   27  C25 VFQ S1620     -48.551 145.182  12.410  1.00 26.85    -0.074 C 
HETATM   28  C26 VFQ S1620     -48.852 143.960  11.939  1.00 32.38    -0.048 C 
HETATM   29  C27 VFQ S1620     -48.102 143.421  10.778  1.00 31.45     0.009 C 
HETATM   30  C28 VFQ S1620     -47.023 142.660  10.955  1.00 30.07     0.007 C 
HETATM   31  C29 VFQ S1620     -46.248 142.106   9.858  1.00 51.40    -0.062 C 
HETATM   32  C30 VFQ S1620     -45.595 140.962  10.074  1.00 51.40     0.007 C 
HETATM   33  C31 VFQ S1620     -44.807 140.275   9.064  1.00 51.40     0.001 C 
HETATM   34  C32 VFQ S1620     -43.973 139.352   9.517  1.00 51.40     0.007 C 
HETATM   35  C33 VFQ S1620     -43.117 138.531   8.651  1.00 51.40    -0.062 C 
HETATM   36  C34 VFQ S1620     -42.206 137.774   9.266  1.00 51.40     0.007 C 
HETATM   37  C35 VFQ S1620     -41.290 136.855   8.615  1.00 51.40     0.001 C 
HETATM   38  C36 VFQ S1620     -50.785 142.538  11.407  1.00 30.09     0.020 C 
HETATM   39  C37 VFQ S1620     -49.415 141.944  13.388  1.00 35.00     0.020 C 
HETATM   40  C38 VFQ S1620     -47.410 146.008  11.900  1.00 25.72     0.044 C 
HETATM   41  C39 VFQ S1620     -46.197 142.801   8.535  1.00 51.40     0.048 C 
HETATM   42  C40 VFQ S1620     -43.289 138.531   7.165  1.00 51.40     0.048 C 
HETATM   43  O23 VFQ S1620     -51.363 145.836  14.717  1.00 33.60    -0.395 OA
ATOM     44  H23 VFQ S1620     -52.266 145.545  14.715  1.00  0.00     0.210 HD
ENDROOT
TORSDOF 12
