REMARK VINA RESULT:    -6.370      1.995     16.762
REMARK INTER + INTRA:          -9.737
REMARK INTER:                  -7.761
REMARK INTRA:                  -1.975
REMARK UNBOUND:                -3.367
REMARK  0 active torsions:
REMARK  status: ('A' for Active; 'I' for Inactive)
REMARK       I    between atoms: C3_3  and  O3_21 
REMARK       I    between atoms: C6_6  and  C7_7 
REMARK       I    between atoms: C8_8  and  C9_9 
REMARK       I    between atoms: C10_10  and  C11_11 
REMARK       I    between atoms: C12_12  and  C13_13 
REMARK       I    between atoms: C14_14  and  C15_15 
REMARK       I    between atoms: C23_25  and  O23_43 
REMARK       I    between atoms: C26_28  and  C27_29 
REMARK       I    between atoms: C28_30  and  C29_31 
REMARK       I    between atoms: C30_32  and  C31_33 
REMARK       I    between atoms: C32_34  and  C33_35 
REMARK       I    between atoms: C34_36  and  C35_37 
ROOT
HETATM    1  C1  VFQ g1621     -47.924 145.821  12.406  1.00 57.17    -0.018 C 
HETATM    2  C2  VFQ g1621     -48.960 145.960  13.514  1.00 57.17     0.045 C 
HETATM    3  C3  VFQ g1621     -48.481 146.485  14.854  1.00 57.17     0.123 C 
HETATM    4  C4  VFQ g1621     -47.421 147.546  14.662  1.00 57.17     0.066 C 
HETATM    5  C5  VFQ g1621     -46.285 146.952  13.881  1.00 57.17    -0.074 C 
HETATM    6  C6  VFQ g1621     -46.520 146.268  12.755  1.00 57.17    -0.048 C 
HETATM    7  C7  VFQ g1621     -45.427 145.941  11.800  1.00 57.17     0.009 C 
HETATM    8  C8  VFQ g1621     -44.606 144.905  11.994  1.00 57.17     0.007 C 
HETATM    9  C9  VFQ g1621     -43.523 144.528  11.072  1.00 57.17    -0.062 C 
HETATM   10  C10 VFQ g1621     -43.114 143.260  11.149  1.00 57.17     0.007 C 
HETATM   11  C11 VFQ g1621     -42.087 142.622  10.337  1.00 57.17     0.001 C 
HETATM   12  C12 VFQ g1621     -41.910 141.329  10.587  1.00 57.17     0.007 C 
HETATM   13  C13 VFQ g1621     -40.963 140.468   9.866  1.00 57.17    -0.062 C 
HETATM   14  C14 VFQ g1621     -40.810 139.200  10.272  1.00 57.17     0.007 C 
HETATM   15  C15 VFQ g1621     -39.926 138.278   9.573  1.00 57.17     0.001 C 
HETATM   16  C16 VFQ g1621     -48.453 146.589  11.205  1.00 57.17     0.020 C 
HETATM   17  C17 VFQ g1621     -47.836 144.352  12.055  1.00 57.17     0.020 C 
HETATM   18  C18 VFQ g1621     -45.000 147.685  14.125  1.00 57.17     0.044 C 
HETATM   19  C19 VFQ g1621     -42.924 145.508  10.110  1.00 57.17     0.048 C 
HETATM   20  C20 VFQ g1621     -40.227 140.993   8.673  1.00 57.17     0.048 C 
HETATM   21  O3  VFQ g1621     -49.603 147.071  15.517  1.00 57.17    -0.395 OA
ATOM     22  H3  VFQ g1621     -50.269 146.405  15.638  1.00  0.00     0.210 HD
HETATM   23  C21 VFQ g1621     -34.068 126.840   6.985  1.00 30.42    -0.018 C 
HETATM   24  C22 VFQ g1621     -33.195 126.094   5.970  1.00 30.42     0.045 C 
HETATM   25  C23 VFQ g1621     -32.750 126.871   4.737  1.00 30.42     0.123 C 
HETATM   26  C24 VFQ g1621     -33.614 128.102   4.502  1.00 30.42     0.066 C 
HETATM   27  C25 VFQ g1621     -33.569 128.907   5.767  1.00 30.42    -0.074 C 
HETATM   28  C26 VFQ g1621     -34.003 128.351   6.896  1.00 30.42    -0.048 C 
HETATM   29  C27 VFQ g1621     -34.604 129.141   7.992  1.00 30.42     0.009 C 
HETATM   30  C28 VFQ g1621     -35.299 130.243   7.696  1.00 30.42     0.007 C 
HETATM   31  C29 VFQ g1621     -36.103 130.907   8.757  1.00 57.17    -0.062 C 
HETATM   32  C30 VFQ g1621     -36.907 131.883   8.333  1.00 57.17     0.007 C 
HETATM   33  C31 VFQ g1621     -37.767 132.661   9.210  1.00 57.17     0.001 C 
HETATM   34  C32 VFQ g1621     -37.933 133.936   8.884  1.00 57.17     0.007 C 
HETATM   35  C33 VFQ g1621     -38.775 134.836   9.673  1.00 57.17    -0.062 C 
HETATM   36  C34 VFQ g1621     -39.028 136.071   9.230  1.00 57.17     0.007 C 
HETATM   37  C35 VFQ g1621     -39.876 137.007   9.956  1.00 57.17     0.001 C 
HETATM   38  C36 VFQ g1621     -33.695 126.354   8.376  1.00 30.42     0.020 C 
HETATM   39  C37 VFQ g1621     -35.534 126.491   6.734  1.00 30.42     0.020 C 
HETATM   40  C38 VFQ g1621     -32.919 130.261   5.740  1.00 30.42     0.044 C 
HETATM   41  C39 VFQ g1621     -36.010 130.529  10.202  1.00 57.17     0.048 C 
HETATM   42  C40 VFQ g1621     -39.308 134.342  10.967  1.00 57.17     0.048 C 
HETATM   43  O23 VFQ g1621     -32.870 125.974   3.635  1.00 30.42    -0.395 OA
ATOM     44  H23 VFQ g1621     -32.331 125.206   3.781  1.00  0.00     0.210 HD
ENDROOT
TORSDOF 12
