REMARK VINA RESULT:    -8.673      0.000      0.000
REMARK INTER + INTRA:         -11.338
REMARK INTER:                  -8.673
REMARK INTRA:                  -2.665
REMARK UNBOUND:                -2.665
REMARK  0 active torsions:
REMARK  status: ('A' for Active; 'I' for Inactive)
REMARK       I    between atoms: C3_3  and  O3_21 
REMARK       I    between atoms: C6_6  and  C7_7 
REMARK       I    between atoms: C8_8  and  C9_9 
REMARK       I    between atoms: C10_10  and  C11_11 
REMARK       I    between atoms: C12_12  and  C13_13 
REMARK       I    between atoms: C14_14  and  C15_15 
REMARK       I    between atoms: C23_25  and  O23_43 
REMARK       I    between atoms: C26_28  and  C27_29 
REMARK       I    between atoms: C28_30  and  C29_31 
REMARK       I    between atoms: C30_32  and  C31_33 
REMARK       I    between atoms: C32_34  and  C33_35 
REMARK       I    between atoms: C34_36  and  C35_37 
ROOT
HETATM    1  C1  VFQ 7 621     -34.270 127.458   6.554  1.00 16.14    -0.018 C 
HETATM    2  C2  VFQ 7 621     -33.559 126.831   5.356  1.00 16.14     0.045 C 
HETATM    3  C3  VFQ 7 621     -32.357 127.580   4.809  1.00 16.14     0.123 C 
HETATM    4  C4  VFQ 7 621     -31.501 128.104   5.937  1.00 16.14     0.066 C 
HETATM    5  C5  VFQ 7 621     -32.341 129.030   6.764  1.00 16.14    -0.074 C 
HETATM    6  C6  VFQ 7 621     -33.570 128.668   7.151  1.00 16.14    -0.048 C 
HETATM    7  C7  VFQ 7 621     -34.256 129.443   8.210  1.00 16.14     0.009 C 
HETATM    8  C8  VFQ 7 621     -34.962 130.552   7.972  1.00 16.14     0.007 C 
HETATM    9  C9  VFQ 7 621     -35.610 131.278   9.072  1.00 16.14    -0.062 C 
HETATM   10  C10 VFQ 7 621     -36.350 132.356   8.763  1.00 16.14     0.007 C 
HETATM   11  C11 VFQ 7 621     -37.089 133.220   9.686  1.00 16.14     0.001 C 
HETATM   12  C12 VFQ 7 621     -37.620 134.316   9.148  1.00 16.14     0.007 C 
HETATM   13  C13 VFQ 7 621     -38.448 135.298   9.872  1.00 16.14    -0.062 C 
HETATM   14  C14 VFQ 7 621     -39.262 136.050   9.120  1.00 16.14     0.007 C 
HETATM   15  C15 VFQ 7 621     -40.208 137.025   9.648  1.00 16.14     0.001 C 
HETATM   16  C16 VFQ 7 621     -34.457 126.356   7.591  1.00 16.14     0.020 C 
HETATM   17  C17 VFQ 7 621     -35.641 127.932   6.099  1.00 16.14     0.020 C 
HETATM   18  C18 VFQ 7 621     -31.504 130.012   7.531  1.00 16.14     0.044 C 
HETATM   19  C19 VFQ 7 621     -35.378 130.810  10.471  1.00 16.14     0.048 C 
HETATM   20  C20 VFQ 7 621     -38.414 135.436  11.362  1.00 16.14     0.048 C 
HETATM   21  O3  VFQ 7 621     -31.568 126.694   4.012  1.00 16.14    -0.395 OA
ATOM     22  H3  VFQ 7 621     -30.817 127.163   3.670  1.00  0.00     0.210 HD
HETATM   23  C21 VFQ 7 621     -50.220 144.718  10.436  1.00 13.13    -0.018 C 
HETATM   24  C22 VFQ 7 621     -51.140 145.439  11.411  1.00 13.13     0.045 C 
HETATM   25  C23 VFQ 7 621     -50.674 146.813  11.834  1.00 13.13     0.123 C 
HETATM   26  C24 VFQ 7 621     -49.256 146.732  12.339  1.00 13.13     0.066 C 
HETATM   27  C25 VFQ 7 621     -48.349 146.122  11.307  1.00 13.13    -0.074 C 
HETATM   28  C26 VFQ 7 621     -48.760 145.144  10.482  1.00 13.13    -0.048 C 
HETATM   29  C27 VFQ 7 621     -47.828 144.471   9.533  1.00 13.13     0.009 C 
HETATM   30  C28 VFQ 7 621     -46.990 143.478   9.859  1.00 13.13     0.007 C 
HETATM   31  C29 VFQ 7 621     -46.107 142.842   8.875  1.00 16.14    -0.062 C 
HETATM   32  C30 VFQ 7 621     -45.557 141.675   9.220  1.00 16.14     0.007 C 
HETATM   33  C31 VFQ 7 621     -44.653 140.916   8.368  1.00 16.14     0.001 C 
HETATM   34  C32 VFQ 7 621     -43.875 140.069   9.025  1.00 16.14     0.007 C 
HETATM   35  C33 VFQ 7 621     -42.867 139.194   8.411  1.00 16.14    -0.062 C 
HETATM   36  C34 VFQ 7 621     -42.115 138.461   9.243  1.00 16.14     0.007 C 
HETATM   37  C35 VFQ 7 621     -41.095 137.523   8.792  1.00 16.14     0.001 C 
HETATM   38  C36 VFQ 7 621     -50.712 144.997   9.024  1.00 13.13     0.020 C 
HETATM   39  C37 VFQ 7 621     -50.370 143.241  10.758  1.00 13.13     0.020 C 
HETATM   40  C38 VFQ 7 621     -46.967 146.698  11.259  1.00 13.13     0.044 C 
HETATM   41  C39 VFQ 7 621     -45.839 143.475   7.545  1.00 16.14     0.048 C 
HETATM   42  C40 VFQ 7 621     -42.677 139.160   6.928  1.00 16.14     0.048 C 
HETATM   43  O23 VFQ 7 621     -51.506 147.261  12.905  1.00 13.13    -0.395 OA
ATOM     44  H23 VFQ 7 621     -51.213 148.124  13.171  1.00  0.00     0.210 HD
ENDROOT
TORSDOF 12
