REMARK VINA RESULT:    -9.669      1.769     16.697
REMARK INTER + INTRA:         -11.782
REMARK INTER:                  -8.276
REMARK INTRA:                  -3.506
REMARK UNBOUND:                -2.113
REMARK  0 active torsions:
REMARK  status: ('A' for Active; 'I' for Inactive)
REMARK       I    between atoms: C3_3  and  O3_21 
REMARK       I    between atoms: C6_6  and  C7_7 
REMARK       I    between atoms: C8_8  and  C9_9 
REMARK       I    between atoms: C10_10  and  C11_11 
REMARK       I    between atoms: C12_12  and  C13_13 
REMARK       I    between atoms: C14_14  and  C15_15 
REMARK       I    between atoms: C23_25  and  O23_43 
REMARK       I    between atoms: C26_28  and  C27_29 
REMARK       I    between atoms: C28_30  and  C29_31 
REMARK       I    between atoms: C30_32  and  C31_33 
REMARK       I    between atoms: C32_34  and  C33_35 
REMARK       I    between atoms: C34_36  and  C35_37 
ROOT
HETATM    1  C1  VFQ Z 618     -34.562 126.949   5.931  1.00 27.67    -0.018 C 
HETATM    2  C2  VFQ Z 618     -34.104 126.288   4.632  1.00 27.67     0.045 C 
HETATM    3  C3  VFQ Z 618     -32.856 126.853   3.970  1.00 27.67     0.123 C 
HETATM    4  C4  VFQ Z 618     -31.836 127.267   5.007  1.00 27.67     0.066 C 
HETATM    5  C5  VFQ Z 618     -32.485 128.316   5.861  1.00 27.67    -0.074 C 
HETATM    6  C6  VFQ Z 618     -33.671 128.076   6.424  1.00 27.67    -0.048 C 
HETATM    7  C7  VFQ Z 618     -34.148 128.887   7.572  1.00 27.67     0.009 C 
HETATM    8  C8  VFQ Z 618     -34.700 130.090   7.410  1.00 27.67     0.007 C 
HETATM    9  C9  VFQ Z 618     -35.187 130.876   8.552  1.00 27.67    -0.062 C 
HETATM   10  C10 VFQ Z 618     -36.088 131.825   8.287  1.00 27.67     0.007 C 
HETATM   11  C11 VFQ Z 618     -36.718 132.692   9.274  1.00 27.67     0.001 C 
HETATM   12  C12 VFQ Z 618     -37.689 133.432   8.756  1.00 27.67     0.007 C 
HETATM   13  C13 VFQ Z 618     -38.552 134.378   9.474  1.00 27.67    -0.062 C 
HETATM   14  C14 VFQ Z 618     -39.447 135.055   8.742  1.00 27.67     0.007 C 
HETATM   15  C15 VFQ Z 618     -40.405 135.981   9.327  1.00 27.67     0.001 C 
HETATM   16  C16 VFQ Z 618     -34.686 125.850   6.981  1.00 27.67     0.020 C 
HETATM   17  C17 VFQ Z 618     -35.942 127.546   5.692  1.00 27.67     0.020 C 
HETATM   18  C18 VFQ Z 618     -31.417 129.118   6.541  1.00 27.67     0.044 C 
HETATM   19  C19 VFQ Z 618     -34.688 130.617   9.939  1.00 27.67     0.048 C 
HETATM   20  C20 VFQ Z 618     -38.457 134.552  10.958  1.00 27.67     0.048 C 
HETATM   21  O3  VFQ Z 618     -32.288 125.850   3.126  1.00 27.67    -0.395 OA
ATOM     22  H3  VFQ Z 618     -32.929 125.590   2.475  1.00  0.00     0.210 HD
HETATM   23  C21 VFQ Z 618     -50.196 144.046  10.910  1.00 22.61    -0.018 C 
HETATM   24  C22 VFQ Z 618     -51.193 144.694  11.889  1.00 23.33     0.045 C 
HETATM   25  C23 VFQ Z 618     -50.710 145.318  13.201  1.00 24.77     0.123 C 
HETATM   26  C24 VFQ Z 618     -49.223 145.117  13.538  1.00 22.10     0.066 C 
HETATM   27  C25 VFQ Z 618     -48.278 144.633  12.490  1.00 21.89    -0.074 C 
HETATM   28  C26 VFQ Z 618     -48.677 144.128  11.272  1.00 21.83    -0.048 C 
HETATM   29  C27 VFQ Z 618     -47.746 143.633  10.233  1.00 21.27     0.009 C 
HETATM   30  C28 VFQ Z 618     -47.166 142.410  10.242  1.00 20.16     0.007 C 
HETATM   31  C29 VFQ Z 618     -46.251 141.880   9.262  1.00 27.67    -0.062 C 
HETATM   32  C30 VFQ Z 618     -45.799 140.634   9.431  1.00 27.67     0.007 C 
HETATM   33  C31 VFQ Z 618     -44.876 139.960   8.529  1.00 27.67     0.001 C 
HETATM   34  C32 VFQ Z 618     -43.986 139.168   9.115  1.00 27.67     0.007 C 
HETATM   35  C33 VFQ Z 618     -42.974 138.382   8.395  1.00 27.67    -0.062 C 
HETATM   36  C34 VFQ Z 618     -42.239 137.523   9.111  1.00 27.67     0.007 C 
HETATM   37  C35 VFQ Z 618     -41.234 136.644   8.526  1.00 27.67     0.001 C 
HETATM   38  C36 VFQ Z 618     -50.459 144.659   9.518  1.00 21.21     0.020 C 
HETATM   39  C37 VFQ Z 618     -50.658 142.583  10.852  1.00 21.56     0.020 C 
HETATM   40  C38 VFQ Z 618     -46.901 144.814  12.999  1.00 21.82     0.044 C 
HETATM   41  C39 VFQ Z 618     -45.831 142.723   8.096  1.00 27.67     0.048 C 
HETATM   42  C40 VFQ Z 618     -42.766 138.540   6.922  1.00 27.67     0.048 C 
HETATM   43  O23 VFQ Z 618     -51.524 144.882  14.285  1.00 25.40    -0.395 OA
ATOM     44  H23 VFQ Z 618     -51.225 145.269  15.099  1.00  0.00     0.210 HD
ENDROOT
TORSDOF 12
