REMARK VINA RESULT:    -8.962      2.164      2.686
REMARK INTER + INTRA:         -11.813
REMARK INTER:                 -11.560
REMARK INTRA:                  -0.253
REMARK UNBOUND:                -2.850
REMARK  0 active torsions:
REMARK  status: ('A' for Active; 'I' for Inactive)
REMARK       I    between atoms: C3_3  and  O3_21 
REMARK       I    between atoms: C6_6  and  C7_7 
REMARK       I    between atoms: C8_8  and  C9_9 
REMARK       I    between atoms: C10_10  and  C11_11 
REMARK       I    between atoms: C12_12  and  C13_13 
REMARK       I    between atoms: C14_14  and  C15_15 
REMARK       I    between atoms: C23_25  and  O23_43 
REMARK       I    between atoms: C26_28  and  C27_29 
REMARK       I    between atoms: C28_30  and  C29_31 
REMARK       I    between atoms: C30_32  and  C31_33 
REMARK       I    between atoms: C32_34  and  C33_35 
REMARK       I    between atoms: C34_36  and  C35_37 
ROOT
HETATM    1  C1  VFQ J9621     -50.806 145.527   9.422  1.00 21.11    -0.018 C 
HETATM    2  C2  VFQ J9621     -51.809 145.945  10.510  1.00 20.11     0.045 C 
HETATM    3  C3  VFQ J9621     -51.522 147.166  11.383  1.00 19.41     0.123 C 
HETATM    4  C4  VFQ J9621     -50.161 147.843  11.168  1.00 18.39     0.066 C 
HETATM    5  C5  VFQ J9621     -49.113 147.249  10.288  1.00 18.34    -0.074 C 
HETATM    6  C6  VFQ J9621     -49.375 146.186   9.453  1.00 19.81    -0.048 C 
HETATM    7  C7  VFQ J9621     -48.403 145.576   8.518  1.00 19.02     0.009 C 
HETATM    8  C8  VFQ J9621     -47.460 144.677   8.862  1.00 17.97     0.007 C 
HETATM    9  C9  VFQ J9621     -46.471 144.034   7.992  1.00 18.85    -0.062 C 
HETATM   10  C10 VFQ J9621     -45.702 143.062   8.536  1.00 18.38     0.007 C 
HETATM   11  C11 VFQ J9621     -44.729 142.234   7.862  1.00 18.57     0.001 C 
HETATM   12  C12 VFQ J9621     -44.078 141.234   8.496  1.00 17.11     0.007 C 
HETATM   13  C13 VFQ J9621     -43.132 140.268   7.917  1.00 20.42    -0.062 C 
HETATM   14  C14 VFQ J9621     -42.619 139.317   8.729  1.00 20.50     0.007 C 
HETATM   15  C15 VFQ J9621     -41.719 138.253   8.353  1.00 20.22     0.001 C 
HETATM   16  C16 VFQ J9621     -51.537 145.867   8.099  1.00 19.56     0.020 C 
HETATM   17  C17 VFQ J9621     -50.700 143.991   9.526  1.00 18.49     0.020 C 
HETATM   18  C18 VFQ J9621     -47.867 148.042  10.426  1.00 16.89     0.044 C 
HETATM   19  C19 VFQ J9621     -46.436 144.447   6.547  1.00 14.61     0.048 C 
HETATM   20  C20 VFQ J9621     -42.819 140.376   6.442  1.00 17.59     0.048 C 
HETATM   21  O3  VFQ J9621     -52.567 148.115  11.255  1.00 18.27    -0.395 OA
ATOM     22  H3  VFQ J9621     -52.389 148.874  11.798  1.00  0.00     0.210 HD
HETATM   23  C21 VFQ J9621     -33.920 128.079   7.343  1.00 57.17    -0.018 C 
HETATM   24  C22 VFQ J9621     -32.939 127.269   6.506  1.00 57.17     0.045 C 
HETATM   25  C23 VFQ J9621     -31.690 127.976   6.015  1.00 57.17     0.123 C 
HETATM   26  C24 VFQ J9621     -31.998 129.412   5.654  1.00 57.17     0.066 C 
HETATM   27  C25 VFQ J9621     -32.567 130.099   6.862  1.00 57.17    -0.074 C 
HETATM   28  C26 VFQ J9621     -33.557 129.532   7.561  1.00 57.17    -0.048 C 
HETATM   29  C27 VFQ J9621     -34.319 130.294   8.587  1.00 57.17     0.009 C 
HETATM   30  C28 VFQ J9621     -35.320 131.115   8.258  1.00 57.17     0.007 C 
HETATM   31  C29 VFQ J9621     -36.136 131.891   9.233  1.00 19.55    -0.062 C 
HETATM   32  C30 VFQ J9621     -37.089 132.720   8.750  1.00 17.66     0.007 C 
HETATM   33  C31 VFQ J9621     -37.971 133.557   9.527  1.00 19.12     0.001 C 
HETATM   34  C32 VFQ J9621     -38.782 134.481   8.960  1.00 19.40     0.007 C 
HETATM   35  C33 VFQ J9621     -39.708 135.432   9.599  1.00 19.31    -0.062 C 
HETATM   36  C34 VFQ J9621     -40.336 136.328   8.807  1.00 17.72     0.007 C 
HETATM   37  C35 VFQ J9621     -41.231 137.371   9.225  1.00 19.92     0.001 C 
HETATM   38  C36 VFQ J9621     -33.980 127.437   8.711  1.00 57.17     0.020 C 
HETATM   39  C37 VFQ J9621     -35.281 127.955   6.674  1.00 57.17     0.020 C 
HETATM   40  C38 VFQ J9621     -31.958 131.415   7.246  1.00 57.17     0.044 C 
HETATM   41  C39 VFQ J9621     -35.804 131.761  10.696  1.00 18.53     0.048 C 
HETATM   42  C40 VFQ J9621     -39.840 135.387  11.098  1.00 15.86     0.048 C 
HETATM   43  O23 VFQ J9621     -31.236 127.295   4.845  1.00 57.17    -0.395 OA
ATOM     44  H23 VFQ J9621     -30.454 127.738   4.538  1.00  0.00     0.210 HD
ENDROOT
TORSDOF 12
