REMARK VINA RESULT:    -8.917      2.272     17.063
REMARK INTER + INTRA:          -9.403
REMARK INTER:                  -6.940
REMARK INTRA:                  -2.463
REMARK UNBOUND:                -0.486
REMARK  0 active torsions:
REMARK  status: ('A' for Active; 'I' for Inactive)
REMARK       I    between atoms: C3_3  and  O3_21 
REMARK       I    between atoms: C6_6  and  C7_7 
REMARK       I    between atoms: C8_8  and  C9_9 
REMARK       I    between atoms: C10_10  and  C11_11 
REMARK       I    between atoms: C12_12  and  C13_13 
REMARK       I    between atoms: C14_14  and  C15_15 
REMARK       I    between atoms: C23_25  and  O23_43 
REMARK       I    between atoms: C26_28  and  C27_29 
REMARK       I    between atoms: C28_30  and  C29_31 
REMARK       I    between atoms: C30_32  and  C31_33 
REMARK       I    between atoms: C32_34  and  C33_35 
REMARK       I    between atoms: C34_36  and  C35_37 
ROOT
HETATM    1  C1  VFQ H7621     -34.594 127.308   6.160  1.00 22.61    -0.018 C 
HETATM    2  C2  VFQ H7621     -34.119 126.658   4.848  1.00 23.33     0.045 C 
HETATM    3  C3  VFQ H7621     -32.764 127.028   4.234  1.00 24.77     0.123 C 
HETATM    4  C4  VFQ H7621     -31.870 127.949   5.081  1.00 22.10     0.066 C 
HETATM    5  C5  VFQ H7621     -32.439 128.673   6.253  1.00 21.89    -0.074 C 
HETATM    6  C6  VFQ H7621     -33.680 128.411   6.787  1.00 21.83    -0.048 C 
HETATM    7  C7  VFQ H7621     -34.248 129.119   7.957  1.00 21.27     0.009 C 
HETATM    8  C8  VFQ H7621     -34.830 130.340   7.908  1.00 20.16     0.007 C 
HETATM    9  C9  VFQ H7621     -35.404 131.105   9.005  1.00 19.98    -0.062 C 
HETATM   10  C10 VFQ H7621     -36.058 132.248   8.696  1.00 19.41     0.007 C 
HETATM   11  C11 VFQ H7621     -36.776 133.097   9.613  1.00 19.37     0.001 C 
HETATM   12  C12 VFQ H7621     -37.480 134.179   9.219  1.00 19.06     0.007 C 
HETATM   13  C13 VFQ H7621     -38.311 135.049  10.067  1.00 20.91    -0.062 C 
HETATM   14  C14 VFQ H7621     -38.971 136.068   9.474  1.00 20.64     0.007 C 
HETATM   15  C15 VFQ H7621     -39.873 136.993  10.099  1.00 20.44     0.001 C 
HETATM   16  C16 VFQ H7621     -34.731 126.114   7.116  1.00 21.21     0.020 C 
HETATM   17  C17 VFQ H7621     -36.016 127.853   5.911  1.00 21.56     0.020 C 
HETATM   18  C18 VFQ H7621     -31.429 129.650   6.719  1.00 21.82     0.044 C 
HETATM   19  C19 VFQ H7621     -35.306 130.531  10.389  1.00 18.20     0.048 C 
HETATM   20  C20 VFQ H7621     -38.406 134.723  11.538  1.00 20.18     0.048 C 
HETATM   21  O3  VFQ H7621     -32.052 125.851   3.864  1.00 25.40    -0.395 OA
ATOM     22  H3  VFQ H7621     -31.212 126.081   3.483  1.00  0.00     0.210 HD
HETATM   23  C21 VFQ H7621     -48.131 146.208  13.142  1.00 94.67    -0.018 C 
HETATM   24  C22 VFQ H7621     -48.850 147.113  14.134  1.00 94.67     0.045 C 
HETATM   25  C23 VFQ H7621     -48.003 148.146  14.846  1.00 94.67     0.123 C 
HETATM   26  C24 VFQ H7621     -46.719 147.501  15.294  1.00 94.67     0.066 C 
HETATM   27  C25 VFQ H7621     -45.974 146.979  14.105  1.00 94.67    -0.074 C 
HETATM   28  C26 VFQ H7621     -46.623 146.370  13.112  1.00 94.67    -0.048 C 
HETATM   29  C27 VFQ H7621     -45.890 145.840  11.937  1.00 94.67     0.009 C 
HETATM   30  C28 VFQ H7621     -45.396 144.604  11.933  1.00 94.67     0.007 C 
HETATM   31  C29 VFQ H7621     -44.670 144.000  10.787  1.00 24.75    -0.062 C 
HETATM   32  C30 VFQ H7621     -44.182 142.750  10.953  1.00 23.92     0.007 C 
HETATM   33  C31 VFQ H7621     -43.411 141.998  10.000  1.00 24.21     0.001 C 
HETATM   34  C32 VFQ H7621     -42.816 140.826  10.322  1.00 22.58     0.007 C 
HETATM   35  C33 VFQ H7621     -41.941 139.992   9.477  1.00 22.21    -0.062 C 
HETATM   36  C34 VFQ H7621     -41.368 138.907  10.042  1.00 21.24     0.007 C 
HETATM   37  C35 VFQ H7621     -40.444 137.989   9.419  1.00 22.03     0.001 C 
HETATM   38  C36 VFQ H7621     -48.647 146.550  11.751  1.00 94.67     0.020 C 
HETATM   39  C37 VFQ H7621     -48.527 144.782  13.512  1.00 94.67     0.020 C 
HETATM   40  C38 VFQ H7621     -44.488 147.191  14.104  1.00 94.67     0.044 C 
HETATM   41  C39 VFQ H7621     -44.457 144.834   9.555  1.00 25.35     0.048 C 
HETATM   42  C40 VFQ H7621     -41.681 140.443   8.064  1.00 19.46     0.048 C 
HETATM   43  O23 VFQ H7621     -48.704 148.593  16.006  1.00 94.67    -0.395 OA
ATOM     44  H23 VFQ H7621     -48.173 149.241  16.453  1.00  0.00     0.210 HD
ENDROOT
TORSDOF 12
