REMARK VINA RESULT:    -9.133      1.267     17.150
REMARK INTER + INTRA:          -9.915
REMARK INTER:                  -9.560
REMARK INTRA:                  -0.354
REMARK UNBOUND:                -0.781
REMARK  0 active torsions:
REMARK  status: ('A' for Active; 'I' for Inactive)
REMARK       I    between atoms: C3_3  and  O3_21 
REMARK       I    between atoms: C6_6  and  C7_7 
REMARK       I    between atoms: C8_8  and  C9_9 
REMARK       I    between atoms: C10_10  and  C11_11 
REMARK       I    between atoms: C12_12  and  C13_13 
REMARK       I    between atoms: C14_14  and  C15_15 
REMARK       I    between atoms: C23_25  and  O23_43 
REMARK       I    between atoms: C26_28  and  C27_29 
REMARK       I    between atoms: C28_30  and  C29_31 
REMARK       I    between atoms: C30_32  and  C31_33 
REMARK       I    between atoms: C32_34  and  C33_35 
REMARK       I    between atoms: C34_36  and  C35_37 
ROOT
HETATM    1  C1  VFQ B1621     -34.126 128.245   6.998  1.00 16.49    -0.018 C 
HETATM    2  C2  VFQ B1621     -33.348 127.465   5.922  1.00 14.93     0.045 C 
HETATM    3  C3  VFQ B1621     -32.091 128.071   5.305  1.00 15.86     0.123 C 
HETATM    4  C4  VFQ B1621     -31.416 129.168   6.152  1.00 14.41     0.066 C 
HETATM    5  C5  VFQ B1621     -32.202 129.916   7.194  1.00 15.44    -0.074 C 
HETATM    6  C6  VFQ B1621     -33.452 129.511   7.621  1.00 14.73    -0.048 C 
HETATM    7  C7  VFQ B1621     -34.237 130.196   8.677  1.00 14.04     0.009 C 
HETATM    8  C8  VFQ B1621     -34.998 131.300   8.488  1.00 12.72     0.007 C 
HETATM    9  C9  VFQ B1621     -35.759 132.076   9.471  1.00 12.70    -0.062 C 
HETATM   10  C10 VFQ B1621     -36.553 133.066   9.002  1.00 13.26     0.007 C 
HETATM   11  C11 VFQ B1621     -37.463 133.892   9.761  1.00 13.12     0.001 C 
HETATM   12  C12 VFQ B1621     -38.256 134.809   9.157  1.00 12.34     0.007 C 
HETATM   13  C13 VFQ B1621     -39.312 135.622   9.789  1.00 12.89    -0.062 C 
HETATM   14  C14 VFQ B1621     -40.017 136.473   9.007  1.00 12.03     0.007 C 
HETATM   15  C15 VFQ B1621     -41.121 137.320   9.410  1.00 13.59     0.001 C 
HETATM   16  C16 VFQ B1621     -34.345 127.152   8.077  1.00 14.27     0.020 C 
HETATM   17  C17 VFQ B1621     -35.496 128.627   6.384  1.00 12.26     0.020 C 
HETATM   18  C18 VFQ B1621     -31.420 131.067   7.738  1.00 13.78     0.044 C 
HETATM   19  C19 VFQ B1621     -35.661 131.673  10.913  1.00  8.79     0.048 C 
HETATM   20  C20 VFQ B1621     -39.555 135.421  11.266  1.00  8.63     0.048 C 
HETATM   21  O3  VFQ B1621     -31.161 127.048   4.981  1.00 14.46    -0.395 OA
ATOM     22  H3  VFQ B1621     -30.378 127.425   4.597  1.00  0.00     0.210 HD
HETATM   23  C21 VFQ B1621     -51.027 145.497  10.477  1.00 98.50    -0.018 C 
HETATM   24  C22 VFQ B1621     -51.905 145.814  11.671  1.00 95.05     0.045 C 
HETATM   25  C23 VFQ B1621     -51.590 147.173  12.255  1.00 91.19     0.123 C 
HETATM   26  C24 VFQ B1621     -50.147 147.240  12.708  1.00 95.39     0.066 C 
HETATM   27  C25 VFQ B1621     -49.183 146.466  11.851  1.00 94.24    -0.074 C 
HETATM   28  C26 VFQ B1621     -49.553 145.767  10.754  1.00 98.17    -0.048 C 
HETATM   29  C27 VFQ B1621     -48.559 145.276   9.754  1.00 96.30     0.009 C 
HETATM   30  C28 VFQ B1621     -47.896 144.122   9.885  1.00 99.74     0.007 C 
HETATM   31  C29 VFQ B1621     -46.923 143.571   8.914  1.00 21.33    -0.062 C 
HETATM   32  C30 VFQ B1621     -46.292 142.414   9.216  1.00 19.38     0.007 C 
HETATM   33  C31 VFQ B1621     -45.306 141.744   8.400  1.00 19.44     0.001 C 
HETATM   34  C32 VFQ B1621     -44.584 140.701   8.891  1.00 17.56     0.007 C 
HETATM   35  C33 VFQ B1621     -43.501 139.940   8.249  1.00 14.52    -0.062 C 
HETATM   36  C34 VFQ B1621     -42.859 139.008   8.988  1.00 13.82     0.007 C 
HETATM   37  C35 VFQ B1621     -41.741 138.174   8.576  1.00 15.60     0.001 C 
HETATM   38  C36 VFQ B1621     -51.412 146.369   9.299  1.00 90.00     0.020 C 
HETATM   39  C37 VFQ B1621     -51.362 144.061  10.105  1.00 93.85     0.020 C 
HETATM   40  C38 VFQ B1621     -47.776 146.527  12.358  1.00 91.76     0.044 C 
HETATM   41  C39 VFQ B1621     -46.635 144.375   7.686  1.00 21.43     0.048 C 
HETATM   42  C40 VFQ B1621     -43.140 140.297   6.844  1.00 13.28     0.048 C 
HETATM   43  O23 VFQ B1621     -52.419 147.389  13.396  1.00 92.07    -0.395 OA
ATOM     44  H23 VFQ B1621     -53.324 147.346  13.110  1.00  0.00     0.210 HD
ENDROOT
TORSDOF 12
