REMARK VINA RESULT:    -9.930      0.000      0.000
REMARK INTER + INTRA:         -12.780
REMARK INTER:                  -9.930
REMARK INTRA:                  -2.850
REMARK UNBOUND:                -2.850
REMARK  0 active torsions:
REMARK  status: ('A' for Active; 'I' for Inactive)
REMARK       I    between atoms: C3_3  and  O3_21 
REMARK       I    between atoms: C6_6  and  C7_7 
REMARK       I    between atoms: C8_8  and  C9_9 
REMARK       I    between atoms: C10_10  and  C11_11 
REMARK       I    between atoms: C12_12  and  C13_13 
REMARK       I    between atoms: C14_14  and  C15_15 
REMARK       I    between atoms: C23_25  and  O23_43 
REMARK       I    between atoms: C26_28  and  C27_29 
REMARK       I    between atoms: C28_30  and  C29_31 
REMARK       I    between atoms: C30_32  and  C31_33 
REMARK       I    between atoms: C32_34  and  C33_35 
REMARK       I    between atoms: C34_36  and  C35_37 
ROOT
HETATM    1  C1  VFQ J9621     -47.778 146.026  12.880  1.00 21.11    -0.018 C 
HETATM    2  C2  VFQ J9621     -48.476 146.478  14.174  1.00 20.11     0.045 C 
HETATM    3  C3  VFQ J9621     -47.849 147.574  15.034  1.00 19.41     0.123 C 
HETATM    4  C4  VFQ J9621     -46.474 148.084  14.580  1.00 18.39     0.066 C 
HETATM    5  C5  VFQ J9621     -45.717 147.434  13.470  1.00 18.34    -0.074 C 
HETATM    6  C6  VFQ J9621     -46.289 146.488  12.651  1.00 19.81    -0.048 C 
HETATM    7  C7  VFQ J9621     -45.620 145.837  11.502  1.00 19.02     0.009 C 
HETATM    8  C8  VFQ J9621     -44.767 144.798  11.593  1.00 17.97     0.007 C 
HETATM    9  C9  VFQ J9621     -44.073 144.106  10.503  1.00 18.85    -0.062 C 
HETATM   10  C10 VFQ J9621     -43.360 143.000  10.821  1.00 18.38     0.007 C 
HETATM   11  C11 VFQ J9621     -42.669 142.112   9.916  1.00 18.57     0.001 C 
HETATM   12  C12 VFQ J9621     -42.057 140.987  10.345  1.00 17.11     0.007 C 
HETATM   13  C13 VFQ J9621     -41.394 139.958   9.529  1.00 20.42    -0.062 C 
HETATM   14  C14 VFQ J9621     -40.873 138.883  10.164  1.00 20.50     0.007 C 
HETATM   15  C15 VFQ J9621     -40.228 137.747   9.552  1.00 20.22     0.001 C 
HETATM   16  C16 VFQ J9621     -48.699 146.568  11.758  1.00 19.56     0.020 C 
HETATM   17  C17 VFQ J9621     -47.877 144.486  12.874  1.00 18.49     0.020 C 
HETATM   18  C18 VFQ J9621     -44.367 148.045  13.392  1.00 16.89     0.044 C 
HETATM   19  C19 VFQ J9621     -44.264 144.631   9.108  1.00 14.61     0.048 C 
HETATM   20  C20 VFQ J9621     -41.366 140.147   8.030  1.00 17.59     0.048 C 
HETATM   21  O3  VFQ J9621     -48.750 148.658  15.179  1.00 18.27    -0.395 OA
ATOM     22  H3  VFQ J9621     -48.361 149.340  15.714  1.00  0.00     0.210 HD
HETATM   23  C21 VFQ J9621     -34.334 126.765   6.386  1.00 57.17    -0.018 C 
HETATM   24  C22 VFQ J9621     -33.664 125.907   5.321  1.00 57.17     0.045 C 
HETATM   25  C23 VFQ J9621     -32.448 126.484   4.622  1.00 57.17     0.123 C 
HETATM   26  C24 VFQ J9621     -32.611 127.973   4.412  1.00 57.17     0.066 C 
HETATM   27  C25 VFQ J9621     -32.825 128.625   5.748  1.00 57.17    -0.074 C 
HETATM   28  C26 VFQ J9621     -33.729 128.136   6.605  1.00 57.17    -0.048 C 
HETATM   29  C27 VFQ J9621     -34.155 128.902   7.807  1.00 57.17     0.009 C 
HETATM   30  C28 VFQ J9621     -35.073 129.870   7.738  1.00 57.17     0.007 C 
HETATM   31  C29 VFQ J9621     -35.559 130.662   8.903  1.00 19.55    -0.062 C 
HETATM   32  C30 VFQ J9621     -36.459 131.645   8.674  1.00 17.66     0.007 C 
HETATM   33  C31 VFQ J9621     -37.039 132.522   9.661  1.00 19.12     0.001 C 
HETATM   34  C32 VFQ J9621     -37.805 133.587   9.327  1.00 19.40     0.007 C 
HETATM   35  C33 VFQ J9621     -38.440 134.594  10.196  1.00 19.31    -0.062 C 
HETATM   36  C34 VFQ J9621     -39.075 135.627   9.602  1.00 17.72     0.007 C 
HETATM   37  C35 VFQ J9621     -39.710 136.739  10.253  1.00 19.92     0.001 C 
HETATM   38  C36 VFQ J9621     -34.214 126.025   7.700  1.00 57.17     0.020 C 
HETATM   39  C37 VFQ J9621     -35.803 126.876   6.008  1.00 57.17     0.020 C 
HETATM   40  C38 VFQ J9621     -31.969 129.813   6.070  1.00 57.17     0.044 C 
HETATM   41  C39 VFQ J9621     -34.967 130.368  10.256  1.00 18.53     0.048 C 
HETATM   42  C40 VFQ J9621     -38.278 134.441  11.685  1.00 15.86     0.048 C 
HETATM   43  O23 VFQ J9621     -32.337 125.850   3.348  1.00 57.17    -0.395 OA
ATOM     44  H23 VFQ J9621     -31.575 126.211   2.910  1.00  0.00     0.210 HD
ENDROOT
TORSDOF 12
