REMARK VINA RESULT:    -7.948      1.897     16.809
REMARK INTER + INTRA:         -11.315
REMARK INTER:                  -8.983
REMARK INTRA:                  -2.332
REMARK UNBOUND:                -3.367
REMARK  0 active torsions:
REMARK  status: ('A' for Active; 'I' for Inactive)
REMARK       I    between atoms: C3_3  and  O3_21 
REMARK       I    between atoms: C6_6  and  C7_7 
REMARK       I    between atoms: C8_8  and  C9_9 
REMARK       I    between atoms: C10_10  and  C11_11 
REMARK       I    between atoms: C12_12  and  C13_13 
REMARK       I    between atoms: C14_14  and  C15_15 
REMARK       I    between atoms: C23_25  and  O23_43 
REMARK       I    between atoms: C26_28  and  C27_29 
REMARK       I    between atoms: C28_30  and  C29_31 
REMARK       I    between atoms: C30_32  and  C31_33 
REMARK       I    between atoms: C32_34  and  C33_35 
REMARK       I    between atoms: C34_36  and  C35_37 
ROOT
HETATM    1  C1  VFQ g1621     -48.138 146.994   9.514  1.00 57.17    -0.018 C 
HETATM    2  C2  VFQ g1621     -49.654 147.126   9.438  1.00 57.17     0.045 C 
HETATM    3  C3  VFQ g1621     -50.438 146.918  10.721  1.00 57.17     0.123 C 
HETATM    4  C4  VFQ g1621     -49.680 147.477  11.904  1.00 57.17     0.066 C 
HETATM    5  C5  VFQ g1621     -48.340 146.804  11.977  1.00 57.17    -0.074 C 
HETATM    6  C6  VFQ g1621     -47.569 146.707  10.887  1.00 57.17    -0.048 C 
HETATM    7  C7  VFQ g1621     -46.130 146.339  10.981  1.00 57.17     0.009 C 
HETATM    8  C8  VFQ g1621     -45.733 145.070  11.103  1.00 57.17     0.007 C 
HETATM    9  C9  VFQ g1621     -44.324 144.652  11.181  1.00 57.17    -0.062 C 
HETATM   10  C10 VFQ g1621     -44.077 143.385  10.839  1.00 57.17     0.007 C 
HETATM   11  C11 VFQ g1621     -42.778 142.728  10.799  1.00 57.17     0.001 C 
HETATM   12  C12 VFQ g1621     -42.810 141.470  10.373  1.00 57.17     0.007 C 
HETATM   13  C13 VFQ g1621     -41.622 140.621  10.207  1.00 57.17    -0.062 C 
HETATM   14  C14 VFQ g1621     -41.793 139.339   9.857  1.00 57.17     0.007 C 
HETATM   15  C15 VFQ g1621     -40.658 138.455   9.628  1.00 57.17     0.001 C 
HETATM   16  C16 VFQ g1621     -47.552 148.276   8.942  1.00 57.17     0.020 C 
HETATM   17  C17 VFQ g1621     -47.744 145.832   8.631  1.00 57.17     0.020 C 
HETATM   18  C18 VFQ g1621     -47.773 146.844  13.364  1.00 57.17     0.044 C 
HETATM   19  C19 VFQ g1621     -43.241 145.591  11.615  1.00 57.17     0.048 C 
HETATM   20  C20 VFQ g1621     -40.253 141.202  10.381  1.00 57.17     0.048 C 
HETATM   21  O3  VFQ g1621     -51.675 147.620  10.593  1.00 57.17    -0.395 OA
ATOM     22  H3  VFQ g1621     -52.151 147.269   9.850  1.00  0.00     0.210 HD
HETATM   23  C21 VFQ g1621     -34.517 127.342   6.367  1.00 30.42    -0.018 C 
HETATM   24  C22 VFQ g1621     -33.149 126.724   6.062  1.00 30.42     0.045 C 
HETATM   25  C23 VFQ g1621     -31.938 127.645   6.146  1.00 30.42     0.123 C 
HETATM   26  C24 VFQ g1621     -32.338 129.113   6.077  1.00 30.42     0.066 C 
HETATM   27  C25 VFQ g1621     -33.342 129.337   7.169  1.00 30.42    -0.074 C 
HETATM   28  C26 VFQ g1621     -34.474 128.636   7.154  1.00 30.42    -0.048 C 
HETATM   29  C27 VFQ g1621     -35.740 129.157   7.710  1.00 30.42     0.009 C 
HETATM   30  C28 VFQ g1621     -35.983 130.470   7.658  1.00 30.42     0.007 C 
HETATM   31  C29 VFQ g1621     -37.341 130.976   7.991  1.00 57.17    -0.062 C 
HETATM   32  C30 VFQ g1621     -37.545 132.269   7.734  1.00 57.17     0.007 C 
HETATM   33  C31 VFQ g1621     -38.799 132.958   7.995  1.00 57.17     0.001 C 
HETATM   34  C32 VFQ g1621     -38.700 134.223   8.381  1.00 57.17     0.007 C 
HETATM   35  C33 VFQ g1621     -39.878 135.040   8.673  1.00 57.17    -0.062 C 
HETATM   36  C34 VFQ g1621     -39.739 136.346   8.919  1.00 57.17     0.007 C 
HETATM   37  C35 VFQ g1621     -40.874 137.219   9.193  1.00 57.17     0.001 C 
HETATM   38  C36 VFQ g1621     -35.361 126.295   7.074  1.00 30.42     0.020 C 
HETATM   39  C37 VFQ g1621     -35.207 127.702   5.052  1.00 30.42     0.020 C 
HETATM   40  C38 VFQ g1621     -32.979 130.248   8.308  1.00 30.42     0.044 C 
HETATM   41  C39 VFQ g1621     -38.405 130.111   8.591  1.00 57.17     0.048 C 
HETATM   42  C40 VFQ g1621     -41.203 134.372   8.706  1.00 57.17     0.048 C 
HETATM   43  O23 VFQ g1621     -31.106 127.315   5.037  1.00 30.42    -0.395 OA
ATOM     44  H23 VFQ g1621     -30.856 126.399   5.080  1.00  0.00     0.210 HD
ENDROOT
TORSDOF 12
