REMARK VINA RESULT:   -12.397      0.000      0.000
REMARK INTER + INTRA:         -12.408
REMARK INTER:                 -12.397
REMARK INTRA:                  -0.011
REMARK UNBOUND:                -0.011
REMARK  0 active torsions:
REMARK  status: ('A' for Active; 'I' for Inactive)
REMARK       I    between atoms: C3_3  and  O3_21 
REMARK       I    between atoms: C6_6  and  C7_7 
REMARK       I    between atoms: C8_8  and  C9_9 
REMARK       I    between atoms: C10_10  and  C11_11 
REMARK       I    between atoms: C12_12  and  C13_13 
REMARK       I    between atoms: C14_14  and  C15_15 
REMARK       I    between atoms: C23_25  and  O23_43 
REMARK       I    between atoms: C26_28  and  C27_29 
REMARK       I    between atoms: C28_30  and  C29_31 
REMARK       I    between atoms: C30_32  and  C31_33 
REMARK       I    between atoms: C32_34  and  C33_35 
REMARK       I    between atoms: C34_36  and  C35_37 
ROOT
HETATM    1  C1  VFQ V1620     -50.093 144.643  10.496  1.00 15.23    -0.018 C 
HETATM    2  C2  VFQ V1620     -50.460 144.407  11.948  1.00 15.23     0.045 C 
HETATM    3  C3  VFQ V1620     -49.466 144.944  12.944  1.00 15.23     0.123 C 
HETATM    4  C4  VFQ V1620     -49.118 146.343  12.533  1.00 15.23     0.066 C 
HETATM    5  C5  VFQ V1620     -48.460 146.344  11.189  1.00 15.23    -0.074 C 
HETATM    6  C6  VFQ V1620     -48.848 145.461  10.266  1.00 15.23    -0.048 C 
HETATM    7  C7  VFQ V1620     -47.960 145.037   9.180  1.00 15.23     0.009 C 
HETATM    8  C8  VFQ V1620     -46.793 144.579   9.641  1.00 15.23     0.007 C 
HETATM    9  C9  VFQ V1620     -45.820 143.908   8.757  1.00 15.23    -0.062 C 
HETATM   10  C10 VFQ V1620     -44.852 143.198   9.351  1.00 15.23     0.007 C 
HETATM   11  C11 VFQ V1620     -43.898 142.371   8.623  1.00 15.23     0.001 C 
HETATM   12  C12 VFQ V1620     -43.145 141.511   9.291  1.00 15.23     0.007 C 
HETATM   13  C13 VFQ V1620     -42.244 140.581   8.598  1.00 15.23    -0.062 C 
HETATM   14  C14 VFQ V1620     -41.690 139.607   9.327  1.00 15.23     0.007 C 
HETATM   15  C15 VFQ V1620     -40.815 138.572   8.786  1.00 15.23     0.001 C 
HETATM   16  C16 VFQ V1620     -51.214 145.474   9.902  1.00 15.23     0.020 C 
HETATM   17  C17 VFQ V1620     -49.992 143.293   9.809  1.00 15.23     0.020 C 
HETATM   18  C18 VFQ V1620     -47.185 147.132  11.125  1.00 15.23     0.044 C 
HETATM   19  C19 VFQ V1620     -45.971 144.000   7.266  1.00 15.23     0.048 C 
HETATM   20  C20 VFQ V1620     -42.028 140.735   7.130  1.00 15.23     0.048 C 
HETATM   21  O3  VFQ V1620     -50.083 145.029  14.224  1.00 15.23    -0.395 OA
ATOM     22  H3  VFQ V1620     -49.456 145.367  14.852  1.00  0.00     0.210 HD
HETATM   23  C21 VFQ V1620     -34.026 128.037   7.191  1.00 21.49    -0.018 C 
HETATM   24  C22 VFQ V1620     -33.235 127.222   6.152  1.00 20.69     0.045 C 
HETATM   25  C23 VFQ V1620     -31.818 127.630   5.755  1.00 22.34     0.123 C 
HETATM   26  C24 VFQ V1620     -31.337 128.987   6.305  1.00 20.89     0.066 C 
HETATM   27  C25 VFQ V1620     -32.131 129.736   7.334  1.00 22.34    -0.074 C 
HETATM   28  C26 VFQ V1620     -33.377 129.344   7.771  1.00 21.76    -0.048 C 
HETATM   29  C27 VFQ V1620     -34.202 130.074   8.777  1.00 21.22     0.009 C 
HETATM   30  C28 VFQ V1620     -34.988 131.168   8.534  1.00 19.00     0.007 C 
HETATM   31  C29 VFQ V1620     -35.769 131.893   9.500  1.00 15.23    -0.062 C 
HETATM   32  C30 VFQ V1620     -36.556 132.852   9.008  1.00 15.23     0.007 C 
HETATM   33  C31 VFQ V1620     -37.433 133.708   9.786  1.00 15.23     0.001 C 
HETATM   34  C32 VFQ V1620     -38.092 134.656   9.132  1.00 15.23     0.007 C 
HETATM   35  C33 VFQ V1620     -38.972 135.607   9.815  1.00 15.23    -0.062 C 
HETATM   36  C34 VFQ V1620     -39.502 136.588   9.072  1.00 15.23     0.007 C 
HETATM   37  C35 VFQ V1620     -40.372 137.629   9.599  1.00 15.23     0.001 C 
HETATM   38  C36 VFQ V1620     -34.379 127.067   8.331  1.00 20.30     0.020 C 
HETATM   39  C37 VFQ V1620     -35.334 128.370   6.436  1.00 19.22     0.020 C 
HETATM   40  C38 VFQ V1620     -31.364 130.921   7.787  1.00 22.01     0.044 C 
HETATM   41  C39 VFQ V1620     -35.693 131.506  10.943  1.00 15.23     0.048 C 
HETATM   42  C40 VFQ V1620     -39.197 135.437  11.281  1.00 15.23     0.048 C 
HETATM   43  O23 VFQ V1620     -31.663 127.580   4.339  1.00 21.61    -0.395 OA
ATOM     44  H23 VFQ V1620     -31.960 126.743   4.000  1.00  0.00     0.210 HD
ENDROOT
TORSDOF 12
