REMARK VINA RESULT:   -10.139      0.000      0.000
REMARK INTER + INTRA:         -13.206
REMARK INTER:                 -10.139
REMARK INTRA:                  -3.067
REMARK UNBOUND:                -3.067
REMARK  0 active torsions:
REMARK  status: ('A' for Active; 'I' for Inactive)
REMARK       I    between atoms: C3_3  and  O3_21 
REMARK       I    between atoms: C6_6  and  C7_7 
REMARK       I    between atoms: C8_8  and  C9_9 
REMARK       I    between atoms: C10_10  and  C11_11 
REMARK       I    between atoms: C12_12  and  C13_13 
REMARK       I    between atoms: C14_14  and  C15_15 
REMARK       I    between atoms: C23_25  and  O23_43 
REMARK       I    between atoms: C26_28  and  C27_29 
REMARK       I    between atoms: C28_30  and  C29_31 
REMARK       I    between atoms: C30_32  and  C31_33 
REMARK       I    between atoms: C32_34  and  C33_35 
REMARK       I    between atoms: C34_36  and  C35_37 
ROOT
HETATM    1  C1  VFQ A 621     -47.454 146.110  13.002  1.00 21.58    -0.018 C 
HETATM    2  C2  VFQ A 621     -48.127 146.676  14.270  1.00 21.20     0.045 C 
HETATM    3  C3  VFQ A 621     -47.366 147.645  15.180  1.00 20.61     0.123 C 
HETATM    4  C4  VFQ A 621     -46.023 148.151  14.630  1.00 19.82     0.066 C 
HETATM    5  C5  VFQ A 621     -45.353 147.487  13.466  1.00 19.81    -0.074 C 
HETATM    6  C6  VFQ A 621     -45.971 146.541  12.674  1.00 19.95    -0.048 C 
HETATM    7  C7  VFQ A 621     -45.338 145.884  11.494  1.00 17.10     0.009 C 
HETATM    8  C8  VFQ A 621     -44.475 144.846  11.570  1.00 17.58     0.007 C 
HETATM    9  C9  VFQ A 621     -43.776 144.113  10.509  1.00 19.11    -0.062 C 
HETATM   10  C10 VFQ A 621     -43.066 143.019  10.867  1.00 18.37     0.007 C 
HETATM   11  C11 VFQ A 621     -42.396 142.117   9.973  1.00 18.85     0.001 C 
HETATM   12  C12 VFQ A 621     -41.786 140.987  10.380  1.00 19.83     0.007 C 
HETATM   13  C13 VFQ A 621     -41.175 139.963   9.508  1.00 21.26    -0.062 C 
HETATM   14  C14 VFQ A 621     -40.649 138.864  10.095  1.00 20.79     0.007 C 
HETATM   15  C15 VFQ A 621     -40.052 137.717   9.454  1.00 20.26     0.001 C 
HETATM   16  C16 VFQ A 621     -48.418 146.579  11.888  1.00 19.38     0.020 C 
HETATM   17  C17 VFQ A 621     -47.553 144.570  13.101  1.00 19.65     0.020 C 
HETATM   18  C18 VFQ A 621     -43.992 148.066  13.319  1.00 20.06     0.044 C 
HETATM   19  C19 VFQ A 621     -43.964 144.572   9.090  1.00 17.70     0.048 C 
HETATM   20  C20 VFQ A 621     -41.219 140.191   8.024  1.00 18.78     0.048 C 
HETATM   21  O3  VFQ A 621     -48.193 148.743  15.532  1.00 18.88    -0.395 OA
ATOM     22  H3  VFQ A 621     -49.023 148.430  15.873  1.00  0.00     0.210 HD
HETATM   23  C21 VFQ A 621     -34.370 126.687   6.246  1.00 37.79    -0.018 C 
HETATM   24  C22 VFQ A 621     -33.909 125.972   4.987  1.00 37.79     0.045 C 
HETATM   25  C23 VFQ A 621     -32.550 126.366   4.456  1.00 37.79     0.123 C 
HETATM   26  C24 VFQ A 621     -32.468 127.866   4.357  1.00 37.79     0.066 C 
HETATM   27  C25 VFQ A 621     -32.830 128.546   5.642  1.00 37.79    -0.074 C 
HETATM   28  C26 VFQ A 621     -33.756 128.053   6.477  1.00 37.79    -0.048 C 
HETATM   29  C27 VFQ A 621     -34.181 128.805   7.688  1.00 37.79     0.009 C 
HETATM   30  C28 VFQ A 621     -35.094 129.782   7.668  1.00 37.79     0.007 C 
HETATM   31  C29 VFQ A 621     -35.531 130.530   8.887  1.00 26.46    -0.062 C 
HETATM   32  C30 VFQ A 621     -36.431 131.527   8.722  1.00 24.31     0.007 C 
HETATM   33  C31 VFQ A 621     -36.987 132.379   9.749  1.00 21.85     0.001 C 
HETATM   34  C32 VFQ A 621     -37.723 133.459   9.394  1.00 20.83     0.007 C 
HETATM   35  C33 VFQ A 621     -38.341 134.511  10.220  1.00 21.05    -0.062 C 
HETATM   36  C34 VFQ A 621     -38.937 135.540   9.580  1.00 19.63     0.007 C 
HETATM   37  C35 VFQ A 621     -39.548 136.701  10.178  1.00 20.78     0.001 C 
HETATM   38  C36 VFQ A 621     -33.979 125.850   7.441  1.00 37.79     0.020 C 
HETATM   39  C37 VFQ A 621     -35.889 126.723   6.172  1.00 37.79     0.020 C 
HETATM   40  C38 VFQ A 621     -32.069 129.807   5.915  1.00 37.79     0.044 C 
HETATM   41  C39 VFQ A 621     -34.895 130.182  10.203  1.00 25.84     0.048 C 
HETATM   42  C40 VFQ A 621     -38.200 134.409  11.713  1.00 18.97     0.048 C 
HETATM   43  O23 VFQ A 621     -32.422 125.851   3.132  1.00 37.79    -0.395 OA
ATOM     44  H23 VFQ A 621     -32.474 124.904   3.194  1.00  0.00     0.210 HD
ENDROOT
TORSDOF 12
