REMARK VINA RESULT:    -6.450      0.000      0.000
REMARK INTER + INTRA:         -11.142
REMARK INTER:                  -6.450
REMARK INTRA:                  -4.693
REMARK UNBOUND:                -4.693
REMARK  0 active torsions:
REMARK  status: ('A' for Active; 'I' for Inactive)
REMARK       I    between atoms: C3_3  and  O3_21 
REMARK       I    between atoms: C6_6  and  C7_7 
REMARK       I    between atoms: C8_8  and  C9_9 
REMARK       I    between atoms: C10_10  and  C11_11 
REMARK       I    between atoms: C12_12  and  C13_13 
REMARK       I    between atoms: C14_14  and  C15_15 
REMARK       I    between atoms: C23_25  and  O23_43 
REMARK       I    between atoms: C26_28  and  C27_29 
REMARK       I    between atoms: C28_30  and  C29_31 
REMARK       I    between atoms: C30_32  and  C31_33 
REMARK       I    between atoms: C32_34  and  C33_35 
REMARK       I    between atoms: C34_36  and  C35_37 
ROOT
HETATM    1  C1  VFQ Z 617     -34.621 127.014   5.235  1.00 32.73    -0.018 C 
HETATM    2  C2  VFQ Z 617     -33.911 126.070   4.284  1.00 32.73     0.045 C 
HETATM    3  C3  VFQ Z 617     -32.794 126.767   3.545  1.00 32.73     0.123 C 
HETATM    4  C4  VFQ Z 617     -31.752 127.231   4.536  1.00 32.73     0.066 C 
HETATM    5  C5  VFQ Z 617     -32.353 127.970   5.705  1.00 32.73    -0.074 C 
HETATM    6  C6  VFQ Z 617     -33.656 127.871   6.049  1.00 32.73    -0.048 C 
HETATM    7  C7  VFQ Z 617     -34.159 128.553   7.276  1.00 32.73     0.009 C 
HETATM    8  C8  VFQ Z 617     -34.577 129.828   7.299  1.00 32.73     0.007 C 
HETATM    9  C9  VFQ Z 617     -35.077 130.499   8.507  1.00 32.73    -0.062 C 
HETATM   10  C10 VFQ Z 617     -35.842 131.572   8.298  1.00 32.73     0.007 C 
HETATM   11  C11 VFQ Z 617     -36.464 132.385   9.330  1.00 32.73     0.001 C 
HETATM   12  C12 VFQ Z 617     -37.238 133.335   8.823  1.00 32.73     0.007 C 
HETATM   13  C13 VFQ Z 617     -38.034 134.293   9.596  1.00 32.73    -0.062 C 
HETATM   14  C14 VFQ Z 617     -38.822 135.101   8.882  1.00 32.73     0.007 C 
HETATM   15  C15 VFQ Z 617     -39.714 136.077   9.480  1.00 32.73     0.001 C 
HETATM   16  C16 VFQ Z 617     -35.549 126.132   6.067  1.00 32.73     0.020 C 
HETATM   17  C17 VFQ Z 617     -35.486 127.971   4.433  1.00 32.73     0.020 C 
HETATM   18  C18 VFQ Z 617     -31.356 128.764   6.499  1.00 32.73     0.044 C 
HETATM   19  C19 VFQ Z 617     -34.722 130.017   9.881  1.00 32.73     0.048 C 
HETATM   20  C20 VFQ Z 617     -37.995 134.339  11.094  1.00 32.73     0.048 C 
HETATM   21  O3  VFQ Z 617     -32.181 125.859   2.627  1.00 32.73    -0.395 OA
ATOM     22  H3  VFQ Z 617     -31.478 126.297   2.163  1.00  0.00     0.210 HD
HETATM   23  C21 VFQ Z 617     -49.344 143.487  11.182  1.00 32.28    -0.018 C 
HETATM   24  C22 VFQ Z 617     -50.256 144.298  12.086  1.00 32.10     0.045 C 
HETATM   25  C23 VFQ Z 617     -49.851 145.729  12.361  1.00 30.03     0.123 C 
HETATM   26  C24 VFQ Z 617     -48.379 145.861  12.640  1.00 27.01     0.066 C 
HETATM   27  C25 VFQ Z 617     -47.558 145.212  11.571  1.00 26.85    -0.074 C 
HETATM   28  C26 VFQ Z 617     -48.007 144.154  10.875  1.00 32.38    -0.048 C 
HETATM   29  C27 VFQ Z 617     -47.189 143.612   9.762  1.00 31.45     0.009 C 
HETATM   30  C28 VFQ Z 617     -46.327 142.619   9.969  1.00 30.07     0.007 C 
HETATM   31  C29 VFQ Z 617     -45.491 142.039   8.921  1.00 32.73    -0.062 C 
HETATM   32  C30 VFQ Z 617     -44.897 140.887   9.225  1.00 32.73     0.007 C 
HETATM   33  C31 VFQ Z 617     -44.037 140.120   8.342  1.00 32.73     0.001 C 
HETATM   34  C32 VFQ Z 617     -43.242 139.287   8.996  1.00 32.73     0.007 C 
HETATM   35  C33 VFQ Z 617     -42.275 138.384   8.365  1.00 32.73    -0.062 C 
HETATM   36  C34 VFQ Z 617     -41.577 137.582   9.174  1.00 32.73     0.007 C 
HETATM   37  C35 VFQ Z 617     -40.608 136.624   8.667  1.00 32.73     0.001 C 
HETATM   38  C36 VFQ Z 617     -50.060 143.266   9.859  1.00 30.09     0.020 C 
HETATM   39  C37 VFQ Z 617     -49.195 142.146  11.895  1.00 35.00     0.020 C 
HETATM   40  C38 VFQ Z 617     -46.207 145.826  11.364  1.00 25.72     0.044 C 
HETATM   41  C39 VFQ Z 617     -45.321 142.697   7.586  1.00 32.73     0.048 C 
HETATM   42  C40 VFQ Z 617     -42.079 138.377   6.880  1.00 32.73     0.048 C 
HETATM   43  O23 VFQ Z 617     -50.539 146.173  13.531  1.00 33.60    -0.395 OA
ATOM     44  H23 VFQ Z 617     -50.284 147.072  13.704  1.00  0.00     0.210 HD
ENDROOT
TORSDOF 12
