REMARK VINA RESULT:    -8.557      0.383     16.929
REMARK INTER + INTRA:         -10.825
REMARK INTER:                  -8.264
REMARK INTRA:                  -2.561
REMARK UNBOUND:                -2.269
REMARK  0 active torsions:
REMARK  status: ('A' for Active; 'I' for Inactive)
REMARK       I    between atoms: C3_3  and  O3_21 
REMARK       I    between atoms: C6_6  and  C7_7 
REMARK       I    between atoms: C8_8  and  C9_9 
REMARK       I    between atoms: C10_10  and  C11_11 
REMARK       I    between atoms: C12_12  and  C13_13 
REMARK       I    between atoms: C14_14  and  C15_15 
REMARK       I    between atoms: C23_25  and  O23_43 
REMARK       I    between atoms: C26_28  and  C27_29 
REMARK       I    between atoms: C28_30  and  C29_31 
REMARK       I    between atoms: C30_32  and  C31_33 
REMARK       I    between atoms: C32_34  and  C33_35 
REMARK       I    between atoms: C34_36  and  C35_37 
ROOT
HETATM    1  C1  VFQ I8620     -34.566 126.939   6.208  1.00 16.69    -0.018 C 
HETATM    2  C2  VFQ I8620     -34.017 126.198   4.979  1.00 15.88     0.045 C 
HETATM    3  C3  VFQ I8620     -32.910 126.859   4.168  1.00 15.19     0.123 C 
HETATM    4  C4  VFQ I8620     -31.966 127.747   4.984  1.00 16.30     0.066 C 
HETATM    5  C5  VFQ I8620     -32.535 128.511   6.135  1.00 15.97    -0.074 C 
HETATM    6  C6  VFQ I8620     -33.733 128.159   6.713  1.00 16.56    -0.048 C 
HETATM    7  C7  VFQ I8620     -34.280 128.933   7.829  1.00 18.44     0.009 C 
HETATM    8  C8  VFQ I8620     -34.912 130.116   7.742  1.00 18.42     0.007 C 
HETATM    9  C9  VFQ I8620     -35.345 130.941   8.857  1.00 20.59    -0.062 C 
HETATM   10  C10 VFQ I8620     -36.059 132.052   8.575  1.00 20.51     0.007 C 
HETATM   11  C11 VFQ I8620     -36.587 132.986   9.520  1.00 21.63     0.001 C 
HETATM   12  C12 VFQ I8620     -37.434 133.938   9.119  1.00 21.98     0.007 C 
HETATM   13  C13 VFQ I8620     -38.105 134.954   9.929  1.00 23.28    -0.062 C 
HETATM   14  C14 VFQ I8620     -39.014 135.733   9.302  1.00 23.72     0.007 C 
HETATM   15  C15 VFQ I8620     -39.862 136.739   9.876  1.00 25.53     0.001 C 
HETATM   16  C16 VFQ I8620     -34.626 125.850   7.294  1.00 15.77     0.020 C 
HETATM   17  C17 VFQ I8620     -36.015 127.351   5.886  1.00 17.40     0.020 C 
HETATM   18  C18 VFQ I8620     -31.606 129.627   6.461  1.00 16.04     0.044 C 
HETATM   19  C19 VFQ I8620     -35.011 130.472  10.250  1.00 19.43     0.048 C 
HETATM   20  C20 VFQ I8620     -37.792 135.008  11.401  1.00 18.80     0.048 C 
HETATM   21  O3  VFQ I8620     -32.169 125.876   3.473  1.00 16.64    -0.395 OA
ATOM     22  H3  VFQ I8620     -31.478 126.289   2.967  1.00  0.00     0.210 HD
HETATM   23  C21 VFQ I8620     -49.365 144.629  12.740  1.00 71.46    -0.018 C 
HETATM   24  C22 VFQ I8620     -49.901 145.438  13.908  1.00 75.98     0.045 C 
HETATM   25  C23 VFQ I8620     -49.286 146.798  14.158  1.00 84.37     0.123 C 
HETATM   26  C24 VFQ I8620     -47.787 146.732  14.081  1.00 79.68     0.066 C 
HETATM   27  C25 VFQ I8620     -47.376 146.155  12.762  1.00 81.86    -0.074 C 
HETATM   28  C26 VFQ I8620     -48.019 145.111  12.214  1.00 72.92    -0.048 C 
HETATM   29  C27 VFQ I8620     -47.434 144.423  11.039  1.00 76.42     0.009 C 
HETATM   30  C28 VFQ I8620     -46.512 143.473  11.183  1.00 69.46     0.007 C 
HETATM   31  C29 VFQ I8620     -45.889 142.749  10.035  1.00 33.65    -0.062 C 
HETATM   32  C30 VFQ I8620     -44.967 141.807  10.325  1.00 30.63     0.007 C 
HETATM   33  C31 VFQ I8620     -44.280 140.946   9.399  1.00 28.70     0.001 C 
HETATM   34  C32 VFQ I8620     -43.341 140.068   9.810  1.00 25.67     0.007 C 
HETATM   35  C33 VFQ I8620     -42.545 139.126   9.023  1.00 24.63    -0.062 C 
HETATM   36  C34 VFQ I8620     -41.631 138.377   9.675  1.00 23.98     0.007 C 
HETATM   37  C35 VFQ I8620     -40.739 137.402   9.113  1.00 25.49     0.001 C 
HETATM   38  C36 VFQ I8620     -50.373 144.697  11.603  1.00 75.59     0.020 C 
HETATM   39  C37 VFQ I8620     -49.339 143.186  13.222  1.00 74.59     0.020 C 
HETATM   40  C38 VFQ I8620     -46.220 146.836  12.094  1.00 90.73     0.044 C 
HETATM   41  C39 VFQ I8620     -46.314 143.107   8.633  1.00 33.66     0.048 C 
HETATM   42  C40 VFQ I8620     -42.779 139.070   7.548  1.00 25.13     0.048 C 
HETATM   43  O23 VFQ I8620     -49.639 147.214  15.477  1.00 94.57    -0.395 OA
ATOM     44  H23 VFQ I8620     -49.253 148.068  15.634  1.00  0.00     0.210 HD
ENDROOT
TORSDOF 12
