REMARK VINA RESULT:    -7.157      1.775     16.277
REMARK INTER + INTRA:         -10.391
REMARK INTER:                  -8.403
REMARK INTRA:                  -1.988
REMARK UNBOUND:                -3.233
REMARK  0 active torsions:
REMARK  status: ('A' for Active; 'I' for Inactive)
REMARK       I    between atoms: C3_3  and  O3_21 
REMARK       I    between atoms: C6_6  and  C7_7 
REMARK       I    between atoms: C8_8  and  C9_9 
REMARK       I    between atoms: C10_10  and  C11_11 
REMARK       I    between atoms: C12_12  and  C13_13 
REMARK       I    between atoms: C14_14  and  C15_15 
REMARK       I    between atoms: C23_25  and  O23_43 
REMARK       I    between atoms: C26_28  and  C27_29 
REMARK       I    between atoms: C28_30  and  C29_31 
REMARK       I    between atoms: C30_32  and  C31_33 
REMARK       I    between atoms: C32_34  and  C33_35 
REMARK       I    between atoms: C34_36  and  C35_37 
ROOT
HETATM    1  C1  VFQ Y1620     -47.756 146.616   9.527  1.00 32.37    -0.022 C 
HETATM    2  C2  VFQ Y1620     -48.882 145.815  10.162  1.00 32.37     0.045 C 
HETATM    3  C3  VFQ Y1620     -48.630 145.402  11.596  1.00 32.37     0.119 C 
HETATM    4  C4  VFQ Y1620     -48.336 146.663  12.378  1.00 32.37     0.040 C 
HETATM    5  C5  VFQ Y1620     -47.103 147.325  11.818  1.00 32.37     0.013 C 
HETATM    6  C6  VFQ Y1620     -46.723 147.055  10.564  1.00 32.37    -0.068 C 
HETATM    7  C7  VFQ Y1620     -45.304 146.857  10.240  1.00 32.37     0.004 C 
HETATM    8  C8  VFQ Y1620     -45.049 145.544  10.306  1.00 32.37     0.007 C 
HETATM    9  C9  VFQ Y1620     -43.699 144.960  10.103  1.00 32.37    -0.062 C 
HETATM   10  C10 VFQ Y1620     -43.605 143.614  10.210  1.00 32.37     0.007 C 
HETATM   11  C11 VFQ Y1620     -42.369 142.866  10.005  1.00 32.37     0.001 C 
HETATM   12  C12 VFQ Y1620     -42.367 141.543  10.072  1.00 32.37     0.007 C 
HETATM   13  C13 VFQ Y1620     -41.140 140.775   9.795  1.00 32.37    -0.062 C 
HETATM   14  C14 VFQ Y1620     -41.289 139.442   9.733  1.00 32.37     0.007 C 
HETATM   15  C15 VFQ Y1620     -40.226 138.490   9.405  1.00 32.37     0.001 C 
HETATM   16  C16 VFQ Y1620     -48.450 147.732   8.747  1.00 32.37     0.019 C 
HETATM   17  C17 VFQ Y1620     -47.062 145.681   8.538  1.00 32.37     0.019 C 
HETATM   18  C18 VFQ Y1620     -46.190 147.172  13.007  1.00 32.37     0.015 C 
HETATM   19  C19 VFQ Y1620     -42.516 145.848   9.778  1.00 32.37     0.048 C 
HETATM   20  C20 VFQ Y1620     -39.851 141.499   9.509  1.00 32.37     0.048 C 
HETATM   21  O3  VFQ Y1620     -49.832 144.790  12.076  1.00 32.37    -0.396 OA
ATOM     22  H3  VFQ Y1620     -49.673 144.531  12.977  1.00  0.00     0.210 HD
HETATM   23  C21 VFQ Y1620     -34.508 127.557   5.582  1.00 35.06    -0.018 C 
HETATM   24  C22 VFQ Y1620     -33.172 126.846   5.362  1.00 35.06     0.045 C 
HETATM   25  C23 VFQ Y1620     -31.939 127.586   5.868  1.00 35.06     0.123 C 
HETATM   26  C24 VFQ Y1620     -32.238 129.064   6.025  1.00 35.06     0.066 C 
HETATM   27  C25 VFQ Y1620     -33.347 129.144   7.031  1.00 35.06    -0.074 C 
HETATM   28  C26 VFQ Y1620     -34.487 128.511   6.751  1.00 35.06    -0.048 C 
HETATM   29  C27 VFQ Y1620     -35.758 128.845   7.420  1.00 35.06     0.009 C 
HETATM   30  C28 VFQ Y1620     -35.986 130.142   7.624  1.00 35.06     0.007 C 
HETATM   31  C29 VFQ Y1620     -37.316 130.625   8.100  1.00 32.37    -0.062 C 
HETATM   32  C30 VFQ Y1620     -37.428 131.970   8.161  1.00 32.37     0.007 C 
HETATM   33  C31 VFQ Y1620     -38.631 132.708   8.556  1.00 32.37     0.001 C 
HETATM   34  C32 VFQ Y1620     -38.575 134.044   8.566  1.00 32.37     0.007 C 
HETATM   35  C33 VFQ Y1620     -39.733 134.887   8.942  1.00 32.37    -0.062 C 
HETATM   36  C34 VFQ Y1620     -39.527 136.219   8.994  1.00 32.37     0.007 C 
HETATM   37  C35 VFQ Y1620     -40.554 137.202   9.342  1.00 32.37     0.001 C 
HETATM   38  C36 VFQ Y1620     -35.617 126.535   5.777  1.00 35.06     0.020 C 
HETATM   39  C37 VFQ Y1620     -34.825 128.409   4.357  1.00 35.06     0.020 C 
HETATM   40  C38 VFQ Y1620     -33.056 129.800   8.359  1.00 35.06     0.044 C 
HETATM   41  C39 VFQ Y1620     -38.440 129.668   8.416  1.00 32.37     0.048 C 
HETATM   42  C40 VFQ Y1620     -41.064 134.231   9.199  1.00 32.37     0.048 C 
HETATM   43  O23 VFQ Y1620     -30.863 127.429   4.937  1.00 35.06    -0.395 OA
ATOM     44  H23 VFQ Y1620     -30.094 127.890   5.252  1.00  0.00     0.210 HD
ENDROOT
TORSDOF 12
