REMARK VINA RESULT:   -12.386      0.000      0.000
REMARK INTER + INTRA:         -14.782
REMARK INTER:                 -12.386
REMARK INTRA:                  -2.396
REMARK UNBOUND:                -2.396
REMARK  0 active torsions:
REMARK  status: ('A' for Active; 'I' for Inactive)
REMARK       I    between atoms: C3_3  and  O3_21 
REMARK       I    between atoms: C6_6  and  C7_7 
REMARK       I    between atoms: C8_8  and  C9_9 
REMARK       I    between atoms: C10_10  and  C11_11 
REMARK       I    between atoms: C12_12  and  C13_13 
REMARK       I    between atoms: C14_14  and  C15_15 
REMARK       I    between atoms: C23_25  and  O23_43 
REMARK       I    between atoms: C26_28  and  C27_29 
REMARK       I    between atoms: C28_30  and  C29_31 
REMARK       I    between atoms: C30_32  and  C31_33 
REMARK       I    between atoms: C32_34  and  C33_35 
REMARK       I    between atoms: C34_36  and  C35_37 
ROOT
HETATM    1  C1  VFQ s1621     -34.231 127.202   6.656  1.00 56.84    -0.018 C 
HETATM    2  C2  VFQ s1621     -33.842 126.770   5.245  1.00 56.84     0.045 C 
HETATM    3  C3  VFQ s1621     -32.689 127.501   4.569  1.00 56.84     0.123 C 
HETATM    4  C4  VFQ s1621     -31.671 127.997   5.576  1.00 56.84     0.066 C 
HETATM    5  C5  VFQ s1621     -32.373 128.841   6.599  1.00 56.84    -0.074 C 
HETATM    6  C6  VFQ s1621     -33.526 128.452   7.143  1.00 56.84    -0.048 C 
HETATM    7  C7  VFQ s1621     -34.121 129.244   8.252  1.00 56.84     0.009 C 
HETATM    8  C8  VFQ s1621     -35.030 130.195   8.024  1.00 56.84     0.007 C 
HETATM    9  C9  VFQ s1621     -35.660 131.012   9.077  1.00 56.84    -0.062 C 
HETATM   10  C10 VFQ s1621     -36.540 131.936   8.685  1.00 56.84     0.007 C 
HETATM   11  C11 VFQ s1621     -37.253 132.830   9.583  1.00 56.84     0.001 C 
HETATM   12  C12 VFQ s1621     -37.852 133.858   8.993  1.00 56.84     0.007 C 
HETATM   13  C13 VFQ s1621     -38.655 134.857   9.713  1.00 56.84    -0.062 C 
HETATM   14  C14 VFQ s1621     -39.335 135.737   8.973  1.00 56.84     0.007 C 
HETATM   15  C15 VFQ s1621     -40.203 136.754   9.545  1.00 56.84     0.001 C 
HETATM   16  C16 VFQ s1621     -33.999 126.020   7.594  1.00 56.84     0.020 C 
HETATM   17  C17 VFQ s1621     -35.714 127.508   6.642  1.00 56.84     0.020 C 
HETATM   18  C18 VFQ s1621     -31.588 129.987   7.153  1.00 56.84     0.044 C 
HETATM   19  C19 VFQ s1621     -35.332 130.838  10.527  1.00 56.84     0.048 C 
HETATM   20  C20 VFQ s1621     -38.716 134.877  11.209  1.00 56.84     0.048 C 
HETATM   21  O3  VFQ s1621     -32.032 126.598   3.674  1.00 56.84    -0.395 OA
ATOM     22  H3  VFQ s1621     -32.671 126.287   3.043  1.00  0.00     0.210 HD
HETATM   23  C21 VFQ s1621     -49.617 144.378   9.926  1.00 24.23    -0.018 C 
HETATM   24  C22 VFQ s1621     -50.571 144.945  10.955  1.00 24.23     0.045 C 
HETATM   25  C23 VFQ s1621     -50.105 146.234  11.575  1.00 24.23     0.123 C 
HETATM   26  C24 VFQ s1621     -48.771 145.933  12.195  1.00 24.23     0.066 C 
HETATM   27  C25 VFQ s1621     -47.801 145.535  11.132  1.00 24.23    -0.074 C 
HETATM   28  C26 VFQ s1621     -48.248 145.021   9.994  1.00 24.23    -0.048 C 
HETATM   29  C27 VFQ s1621     -47.315 144.719   8.915  1.00 24.23     0.009 C 
HETATM   30  C28 VFQ s1621     -46.783 143.519   9.175  1.00 24.23     0.007 C 
HETATM   31  C29 VFQ s1621     -45.791 142.860   8.311  1.00 56.84    -0.062 C 
HETATM   32  C30 VFQ s1621     -45.319 141.713   8.784  1.00 56.84     0.007 C 
HETATM   33  C31 VFQ s1621     -44.362 140.849   8.118  1.00 56.84     0.001 C 
HETATM   34  C32 VFQ s1621     -43.540 140.175   8.906  1.00 56.84     0.007 C 
HETATM   35  C33 VFQ s1621     -42.571 139.224   8.362  1.00 56.84    -0.062 C 
HETATM   36  C34 VFQ s1621     -41.789 138.542   9.207  1.00 56.84     0.007 C 
HETATM   37  C35 VFQ s1621     -40.859 137.543   8.705  1.00 56.84     0.001 C 
HETATM   38  C36 VFQ s1621     -50.186 144.648   8.544  1.00 24.23     0.020 C 
HETATM   39  C37 VFQ s1621     -49.607 142.882  10.168  1.00 24.23     0.020 C 
HETATM   40  C38 VFQ s1621     -46.356 145.771  11.428  1.00 24.23     0.044 C 
HETATM   41  C39 VFQ s1621     -45.354 143.424   6.995  1.00 56.84     0.048 C 
HETATM   42  C40 VFQ s1621     -42.509 139.002   6.882  1.00 56.84     0.048 C 
HETATM   43  O23 VFQ s1621     -51.002 146.598  12.616  1.00 24.23    -0.395 OA
ATOM     44  H23 VFQ s1621     -51.846 146.788  12.224  1.00  0.00     0.210 HD
ENDROOT
TORSDOF 12
