REMARK VINA RESULT:    -8.993      2.031      2.480
REMARK INTER + INTRA:          -9.479
REMARK INTER:                  -7.025
REMARK INTRA:                  -2.454
REMARK UNBOUND:                -0.486
REMARK  0 active torsions:
REMARK  status: ('A' for Active; 'I' for Inactive)
REMARK       I    between atoms: C3_3  and  O3_21 
REMARK       I    between atoms: C6_6  and  C7_7 
REMARK       I    between atoms: C8_8  and  C9_9 
REMARK       I    between atoms: C10_10  and  C11_11 
REMARK       I    between atoms: C12_12  and  C13_13 
REMARK       I    between atoms: C14_14  and  C15_15 
REMARK       I    between atoms: C23_25  and  O23_43 
REMARK       I    between atoms: C26_28  and  C27_29 
REMARK       I    between atoms: C28_30  and  C29_31 
REMARK       I    between atoms: C30_32  and  C31_33 
REMARK       I    between atoms: C32_34  and  C33_35 
REMARK       I    between atoms: C34_36  and  C35_37 
ROOT
HETATM    1  C1  VFQ H7621     -48.097 146.021  12.732  1.00 22.61    -0.018 C 
HETATM    2  C2  VFQ H7621     -48.741 146.599  14.005  1.00 23.33     0.045 C 
HETATM    3  C3  VFQ H7621     -48.021 147.668  14.833  1.00 24.77     0.123 C 
HETATM    4  C4  VFQ H7621     -46.718 148.221  14.233  1.00 22.10     0.066 C 
HETATM    5  C5  VFQ H7621     -46.061 147.518  13.094  1.00 21.89    -0.074 C 
HETATM    6  C6  VFQ H7621     -46.655 146.507  12.372  1.00 21.83    -0.048 C 
HETATM    7  C7  VFQ H7621     -46.013 145.811  11.234  1.00 21.27     0.009 C 
HETATM    8  C8  VFQ H7621     -45.103 144.817  11.357  1.00 20.16     0.007 C 
HETATM    9  C9  VFQ H7621     -44.423 144.087  10.296  1.00 19.98    -0.062 C 
HETATM   10  C10 VFQ H7621     -43.653 143.036  10.656  1.00 19.41     0.007 C 
HETATM   11  C11 VFQ H7621     -42.975 142.128   9.763  1.00 19.37     0.001 C 
HETATM   12  C12 VFQ H7621     -42.292 141.046  10.192  1.00 19.06     0.007 C 
HETATM   13  C13 VFQ H7621     -41.648 140.020   9.356  1.00 20.91    -0.062 C 
HETATM   14  C14 VFQ H7621     -41.039 138.986   9.978  1.00 20.64     0.007 C 
HETATM   15  C15 VFQ H7621     -40.405 137.857   9.357  1.00 20.44     0.001 C 
HETATM   16  C16 VFQ H7621     -49.088 146.410  11.626  1.00 21.21     0.020 C 
HETATM   17  C17 VFQ H7621     -48.140 144.483  12.857  1.00 21.56     0.020 C 
HETATM   18  C18 VFQ H7621     -44.728 148.128  12.890  1.00 21.82     0.044 C 
HETATM   19  C19 VFQ H7621     -44.691 144.499   8.877  1.00 18.20     0.048 C 
HETATM   20  C20 VFQ H7621     -41.740 140.168   7.856  1.00 20.18     0.048 C 
HETATM   21  O3  VFQ H7621     -48.913 148.734  15.147  1.00 25.40    -0.395 OA
ATOM     22  H3  VFQ H7621     -48.466 149.397  15.660  1.00  0.00     0.210 HD
HETATM   23  C21 VFQ H7621     -34.347 127.040   6.413  1.00 94.67    -0.018 C 
HETATM   24  C22 VFQ H7621     -33.607 126.118   5.454  1.00 94.67     0.045 C 
HETATM   25  C23 VFQ H7621     -32.239 126.576   4.994  1.00 94.67     0.123 C 
HETATM   26  C24 VFQ H7621     -32.306 128.037   4.643  1.00 94.67     0.066 C 
HETATM   27  C25 VFQ H7621     -32.716 128.828   5.846  1.00 94.67    -0.074 C 
HETATM   28  C26 VFQ H7621     -33.669 128.375   6.662  1.00 94.67    -0.048 C 
HETATM   29  C27 VFQ H7621     -34.089 129.157   7.849  1.00 94.67     0.009 C 
HETATM   30  C28 VFQ H7621     -35.053 130.072   7.765  1.00 94.67     0.007 C 
HETATM   31  C29 VFQ H7621     -35.539 130.878   8.913  1.00 24.75    -0.062 C 
HETATM   32  C30 VFQ H7621     -36.491 131.805   8.660  1.00 23.92     0.007 C 
HETATM   33  C31 VFQ H7621     -37.065 132.723   9.606  1.00 24.21     0.001 C 
HETATM   34  C32 VFQ H7621     -37.882 133.733   9.223  1.00 22.58     0.007 C 
HETATM   35  C33 VFQ H7621     -38.478 134.785  10.067  1.00 22.21    -0.062 C 
HETATM   36  C34 VFQ H7621     -39.181 135.761   9.453  1.00 21.24     0.007 C 
HETATM   37  C35 VFQ H7621     -39.801 136.908  10.074  1.00 22.03     0.001 C 
HETATM   38  C36 VFQ H7621     -34.442 126.329   7.755  1.00 94.67     0.020 C 
HETATM   39  C37 VFQ H7621     -35.740 127.230   5.821  1.00 94.67     0.020 C 
HETATM   40  C38 VFQ H7621     -31.995 130.125   6.070  1.00 94.67     0.044 C 
HETATM   41  C39 VFQ H7621     -34.897 130.672  10.256  1.00 25.35     0.048 C 
HETATM   42  C40 VFQ H7621     -38.201 134.749  11.547  1.00 19.46     0.048 C 
HETATM   43  O23 VFQ H7621     -31.887 125.851   3.815  1.00 94.67    -0.395 OA
ATOM     44  H23 VFQ H7621     -31.029 126.138   3.526  1.00  0.00     0.210 HD
ENDROOT
TORSDOF 12
