REMARK VINA RESULT:    -9.474      0.801     16.593
REMARK INTER + INTRA:         -11.157
REMARK INTER:                  -8.062
REMARK INTRA:                  -3.095
REMARK UNBOUND:                -1.683
REMARK  0 active torsions:
REMARK  status: ('A' for Active; 'I' for Inactive)
REMARK       I    between atoms: C3_3  and  O3_21 
REMARK       I    between atoms: C6_6  and  C7_7 
REMARK       I    between atoms: C8_8  and  C9_9 
REMARK       I    between atoms: C10_10  and  C11_11 
REMARK       I    between atoms: C12_12  and  C13_13 
REMARK       I    between atoms: C14_14  and  C15_15 
REMARK       I    between atoms: C23_25  and  O23_43 
REMARK       I    between atoms: C26_28  and  C27_29 
REMARK       I    between atoms: C28_30  and  C29_31 
REMARK       I    between atoms: C30_32  and  C31_33 
REMARK       I    between atoms: C32_34  and  C33_35 
REMARK       I    between atoms: C34_36  and  C35_37 
ROOT
HETATM    1  C1  VFQ G1620     -34.413 126.863   6.262  1.00 59.27    -0.018 C 
HETATM    2  C2  VFQ G1620     -33.856 126.060   5.098  1.00 64.60     0.045 C 
HETATM    3  C3  VFQ G1620     -32.905 126.819   4.197  1.00 63.28     0.123 C 
HETATM    4  C4  VFQ G1620     -31.789 127.414   5.014  1.00 61.00     0.066 C 
HETATM    5  C5  VFQ G1620     -32.351 128.288   6.100  1.00 64.87    -0.074 C 
HETATM    6  C6  VFQ G1620     -33.530 128.024   6.699  1.00 63.96    -0.048 C 
HETATM    7  C7  VFQ G1620     -33.995 128.839   7.852  1.00 64.82     0.009 C 
HETATM    8  C8  VFQ G1620     -34.656 129.991   7.704  1.00 58.91     0.007 C 
HETATM    9  C9  VFQ G1620     -35.124 130.786   8.840  1.00 59.76    -0.062 C 
HETATM   10  C10 VFQ G1620     -35.843 131.868   8.530  1.00 59.44     0.007 C 
HETATM   11  C11 VFQ G1620     -36.426 132.803   9.475  1.00 53.66     0.001 C 
HETATM   12  C12 VFQ G1620     -37.241 133.673   8.902  1.00 59.47     0.007 C 
HETATM   13  C13 VFQ G1620     -37.975 134.703   9.644  1.00 64.69    -0.062 C 
HETATM   14  C14 VFQ G1620     -38.890 135.405   8.971  1.00 66.67     0.007 C 
HETATM   15  C15 VFQ G1620     -39.707 136.427   9.608  1.00 73.65     0.001 C 
HETATM   16  C16 VFQ G1620     -34.657 125.850   7.375  1.00 56.55     0.020 C 
HETATM   17  C17 VFQ G1620     -35.747 127.464   5.841  1.00 59.14     0.020 C 
HETATM   18  C18 VFQ G1620     -31.417 129.372   6.559  1.00 61.00     0.044 C 
HETATM   19  C19 VFQ G1620     -34.784 130.394  10.247  1.00 55.95     0.048 C 
HETATM   20  C20 VFQ G1620     -37.709 134.935  11.099  1.00 67.83     0.048 C 
HETATM   21  O3  VFQ G1620     -32.350 125.915   3.239  1.00 73.40    -0.395 OA
ATOM     22  H3  VFQ G1620     -31.753 126.391   2.673  1.00  0.00     0.210 HD
HETATM   23  C21 VFQ G1620     -49.630 144.101  11.181  1.00 57.46    -0.018 C 
HETATM   24  C22 VFQ G1620     -50.461 145.152  11.904  1.00 54.62     0.045 C 
HETATM   25  C23 VFQ G1620     -49.808 145.933  13.047  1.00 54.91     0.123 C 
HETATM   26  C24 VFQ G1620     -48.296 145.800  13.166  1.00 56.99     0.066 C 
HETATM   27  C25 VFQ G1620     -47.665 145.461  11.843  1.00 60.65    -0.074 C 
HETATM   28  C26 VFQ G1620     -48.183 144.517  11.055  1.00 60.28    -0.048 C 
HETATM   29  C27 VFQ G1620     -47.379 143.864  10.001  1.00 57.11     0.009 C 
HETATM   30  C28 VFQ G1620     -46.537 142.876  10.273  1.00 53.31     0.007 C 
HETATM   31  C29 VFQ G1620     -45.764 142.202   9.212  1.00 93.82    -0.062 C 
HETATM   32  C30 VFQ G1620     -44.988 141.211   9.644  1.00 83.29     0.007 C 
HETATM   33  C31 VFQ G1620     -44.162 140.379   8.792  1.00 75.18     0.001 C 
HETATM   34  C32 VFQ G1620     -43.350 139.568   9.449  1.00 71.38     0.007 C 
HETATM   35  C33 VFQ G1620     -42.468 138.622   8.760  1.00 70.67    -0.062 C 
HETATM   36  C34 VFQ G1620     -41.608 137.913   9.500  1.00 74.09     0.007 C 
HETATM   37  C35 VFQ G1620     -40.724 136.920   8.911  1.00 74.87     0.001 C 
HETATM   38  C36 VFQ G1620     -50.194 143.950   9.779  1.00 59.48     0.020 C 
HETATM   39  C37 VFQ G1620     -49.768 142.744  11.871  1.00 57.14     0.020 C 
HETATM   40  C38 VFQ G1620     -46.446 146.226  11.435  1.00 65.36     0.044 C 
HETATM   41  C39 VFQ G1620     -45.850 142.589   7.766  1.00 99.93     0.048 C 
HETATM   42  C40 VFQ G1620     -42.566 138.448   7.278  1.00 65.73     0.048 C 
HETATM   43  O23 VFQ G1620     -50.397 145.473  14.265  1.00 51.54    -0.395 OA
ATOM     44  H23 VFQ G1620     -51.341 145.555  14.190  1.00  0.00     0.210 HD
ENDROOT
TORSDOF 12
