REMARK VINA RESULT:   -10.854      1.211     16.640
REMARK INTER + INTRA:         -11.168
REMARK INTER:                  -6.324
REMARK INTRA:                  -4.845
REMARK UNBOUND:                -0.314
REMARK  0 active torsions:
REMARK  status: ('A' for Active; 'I' for Inactive)
REMARK       I    between atoms: C3_3  and  O3_21 
REMARK       I    between atoms: C6_6  and  C7_7 
REMARK       I    between atoms: C8_8  and  C9_9 
REMARK       I    between atoms: C10_10  and  C11_11 
REMARK       I    between atoms: C12_12  and  C13_13 
REMARK       I    between atoms: C14_14  and  C15_15 
REMARK       I    between atoms: C23_25  and  O23_43 
REMARK       I    between atoms: C26_28  and  C27_29 
REMARK       I    between atoms: C28_30  and  C29_31 
REMARK       I    between atoms: C30_32  and  C31_33 
REMARK       I    between atoms: C32_34  and  C33_35 
REMARK       I    between atoms: C34_36  and  C35_37 
ROOT
HETATM    1  C1  VFQ Z 617     -34.562 126.980   5.260  1.00 32.73    -0.018 C 
HETATM    2  C2  VFQ Z 617     -33.839 126.042   4.312  1.00 32.73     0.045 C 
HETATM    3  C3  VFQ Z 617     -32.738 126.754   3.562  1.00 32.73     0.123 C 
HETATM    4  C4  VFQ Z 617     -31.701 127.245   4.545  1.00 32.73     0.066 C 
HETATM    5  C5  VFQ Z 617     -32.310 127.982   5.711  1.00 32.73    -0.074 C 
HETATM    6  C6  VFQ Z 617     -33.609 127.861   6.063  1.00 32.73    -0.048 C 
HETATM    7  C7  VFQ Z 617     -34.118 128.543   7.287  1.00 32.73     0.009 C 
HETATM    8  C8  VFQ Z 617     -34.559 129.810   7.303  1.00 32.73     0.007 C 
HETATM    9  C9  VFQ Z 617     -35.066 130.480   8.508  1.00 32.73    -0.062 C 
HETATM   10  C10 VFQ Z 617     -35.852 131.537   8.295  1.00 32.73     0.007 C 
HETATM   11  C11 VFQ Z 617     -36.484 132.347   9.324  1.00 32.73     0.001 C 
HETATM   12  C12 VFQ Z 617     -37.277 133.279   8.814  1.00 32.73     0.007 C 
HETATM   13  C13 VFQ Z 617     -38.088 134.227   9.583  1.00 32.73    -0.062 C 
HETATM   14  C14 VFQ Z 617     -38.894 135.015   8.868  1.00 32.73     0.007 C 
HETATM   15  C15 VFQ Z 617     -39.801 135.979   9.462  1.00 32.73     0.001 C 
HETATM   16  C16 VFQ Z 617     -35.469 126.087   6.103  1.00 32.73     0.020 C 
HETATM   17  C17 VFQ Z 617     -35.448 127.915   4.456  1.00 32.73     0.020 C 
HETATM   18  C18 VFQ Z 617     -31.324 128.800   6.495  1.00 32.73     0.044 C 
HETATM   19  C19 VFQ Z 617     -34.696 130.016   9.884  1.00 32.73     0.048 C 
HETATM   20  C20 VFQ Z 617     -38.042 134.286  11.081  1.00 32.73     0.048 C 
HETATM   21  O3  VFQ Z 617     -32.114 125.850   2.648  1.00 32.73    -0.395 OA
ATOM     22  H3  VFQ Z 617     -31.421 126.298   2.177  1.00  0.00     0.210 HD
HETATM   23  C21 VFQ Z 617     -49.676 143.745  11.039  1.00 19.07    -0.018 C 
HETATM   24  C22 VFQ Z 617     -50.429 144.487  12.162  1.00 18.69     0.045 C 
HETATM   25  C23 VFQ Z 617     -49.861 145.828  12.615  1.00 19.88     0.123 C 
HETATM   26  C24 VFQ Z 617     -48.324 145.887  12.607  1.00 19.59     0.066 C 
HETATM   27  C25 VFQ Z 617     -47.601 145.124  11.541  1.00 18.61    -0.074 C 
HETATM   28  C26 VFQ Z 617     -48.190 144.126  10.794  1.00 18.29    -0.048 C 
HETATM   29  C27 VFQ Z 617     -47.440 143.398   9.750  1.00 19.20     0.009 C 
HETATM   30  C28 VFQ Z 617     -46.528 142.405   9.912  1.00 18.47     0.007 C 
HETATM   31  C29 VFQ Z 617     -45.690 141.829   8.888  1.00 32.73    -0.062 C 
HETATM   32  C30 VFQ Z 617     -45.074 140.690   9.198  1.00 32.73     0.007 C 
HETATM   33  C31 VFQ Z 617     -44.203 139.933   8.317  1.00 32.73     0.001 C 
HETATM   34  C32 VFQ Z 617     -43.390 139.119   8.973  1.00 32.73     0.007 C 
HETATM   35  C33 VFQ Z 617     -42.410 138.230   8.343  1.00 32.73    -0.062 C 
HETATM   36  C34 VFQ Z 617     -41.693 137.447   9.154  1.00 32.73     0.007 C 
HETATM   37  C35 VFQ Z 617     -40.709 136.503   8.650  1.00 32.73     0.001 C 
HETATM   38  C36 VFQ Z 617     -50.485 143.905   9.738  1.00 17.04     0.020 C 
HETATM   39  C37 VFQ Z 617     -49.779 142.281  11.506  1.00 20.18     0.020 C 
HETATM   40  C38 VFQ Z 617     -46.218 145.660  11.478  1.00 19.93     0.044 C 
HETATM   41  C39 VFQ Z 617     -45.539 142.480   7.548  1.00 32.73     0.048 C 
HETATM   42  C40 VFQ Z 617     -42.221 138.215   6.857  1.00 32.73     0.048 C 
HETATM   43  O23 VFQ Z 617     -50.365 146.174  13.898  1.00 19.51    -0.395 OA
ATOM     44  H23 VFQ Z 617     -50.011 147.009  14.179  1.00  0.00     0.210 HD
ENDROOT
TORSDOF 12
