REMARK VINA RESULT:    -9.248      0.000      0.000
REMARK INTER + INTRA:         -11.842
REMARK INTER:                  -9.248
REMARK INTRA:                  -2.594
REMARK UNBOUND:                -2.594
REMARK  0 active torsions:
REMARK  status: ('A' for Active; 'I' for Inactive)
REMARK       I    between atoms: C3_3  and  O3_21 
REMARK       I    between atoms: C6_6  and  C7_7 
REMARK       I    between atoms: C8_8  and  C9_9 
REMARK       I    between atoms: C10_10  and  C11_11 
REMARK       I    between atoms: C12_12  and  C13_13 
REMARK       I    between atoms: C14_14  and  C15_15 
REMARK       I    between atoms: C23_25  and  O23_43 
REMARK       I    between atoms: C26_28  and  C27_29 
REMARK       I    between atoms: C28_30  and  C29_31 
REMARK       I    between atoms: C30_32  and  C31_33 
REMARK       I    between atoms: C32_34  and  C33_35 
REMARK       I    between atoms: C34_36  and  C35_37 
ROOT
HETATM    1  C1  VFQ 8 620     -48.418 144.327  11.611  1.00 98.00    -0.022 C 
HETATM    2  C2  VFQ 8 620     -49.461 145.414  11.851  1.00 98.00     0.045 C 
HETATM    3  C3  VFQ 8 620     -48.882 146.743  12.330  1.00 98.00     0.119 C 
HETATM    4  C4  VFQ 8 620     -47.762 147.210  11.416  1.00 98.00     0.040 C 
HETATM    5  C5  VFQ 8 620     -46.757 146.096  11.318  1.00 98.00     0.013 C 
HETATM    6  C6  VFQ 8 620     -47.177 144.890  10.970  1.00 98.00    -0.068 C 
HETATM    7  C7  VFQ 8 620     -46.458 144.121   9.944  1.00 98.00     0.004 C 
HETATM    8  C8  VFQ 8 620     -45.213 143.736  10.193  1.00 98.00     0.007 C 
HETATM    9  C9  VFQ 8 620     -44.463 142.941   9.211  1.00 98.00    -0.062 C 
HETATM   10  C10 VFQ 8 620     -43.451 142.203   9.670  1.00 98.00     0.007 C 
HETATM   11  C11 VFQ 8 620     -42.652 141.346   8.809  1.00 98.00     0.001 C 
HETATM   12  C12 VFQ 8 620     -42.014 140.370   9.435  1.00 98.00     0.007 C 
HETATM   13  C13 VFQ 8 620     -41.179 139.386   8.740  1.00 98.00    -0.062 C 
HETATM   14  C14 VFQ 8 620     -40.661 138.393   9.472  1.00 98.00     0.007 C 
HETATM   15  C15 VFQ 8 620     -39.842 137.350   8.886  1.00 98.00     0.001 C 
HETATM   16  C16 VFQ 8 620     -49.027 143.241  10.734  1.00 98.00     0.019 C 
HETATM   17  C17 VFQ 8 620     -47.996 143.699  12.931  1.00 98.00     0.019 C 
HETATM   18  C18 VFQ 8 620     -46.381 147.112  10.277  1.00 98.00     0.015 C 
HETATM   19  C19 VFQ 8 620     -44.834 142.945   7.758  1.00 98.00     0.048 C 
HETATM   20  C20 VFQ 8 620     -40.940 139.483   7.262  1.00 98.00     0.048 C 
HETATM   21  O3  VFQ 8 620     -49.911 147.736  12.367  1.00 98.00    -0.396 OA
ATOM     22  H3  VFQ 8 620     -50.612 147.444  12.938  1.00  0.00     0.210 HD
HETATM   23  C21 VFQ 8 620     -34.323 126.780   6.476  1.00 45.52    -0.018 C 
HETATM   24  C22 VFQ 8 620     -33.559 125.850   5.538  1.00 45.52     0.045 C 
HETATM   25  C23 VFQ 8 620     -32.384 126.509   4.826  1.00 45.52     0.123 C 
HETATM   26  C24 VFQ 8 620     -32.698 127.972   4.572  1.00 45.52     0.066 C 
HETATM   27  C25 VFQ 8 620     -32.804 128.628   5.917  1.00 45.52    -0.074 C 
HETATM   28  C26 VFQ 8 620     -33.536 128.008   6.853  1.00 45.52    -0.048 C 
HETATM   29  C27 VFQ 8 620     -33.829 128.659   8.132  1.00 45.52     0.009 C 
HETATM   30  C28 VFQ 8 620     -34.479 129.801   7.896  1.00 45.52     0.007 C 
HETATM   31  C29 VFQ 8 620     -35.052 130.611   8.967  1.00 98.00    -0.062 C 
HETATM   32  C30 VFQ 8 620     -36.074 131.397   8.638  1.00 98.00     0.007 C 
HETATM   33  C31 VFQ 8 620     -36.750 132.261   9.589  1.00 98.00     0.001 C 
HETATM   34  C32 VFQ 8 620     -37.385 133.272   9.023  1.00 98.00     0.007 C 
HETATM   35  C33 VFQ 8 620     -38.143 134.285   9.761  1.00 98.00    -0.062 C 
HETATM   36  C34 VFQ 8 620     -38.723 135.249   9.040  1.00 98.00     0.007 C 
HETATM   37  C35 VFQ 8 620     -39.521 136.306   9.638  1.00 98.00     0.001 C 
HETATM   38  C36 VFQ 8 620     -34.705 126.046   7.752  1.00 45.52     0.020 C 
HETATM   39  C37 VFQ 8 620     -35.587 127.273   5.779  1.00 45.52     0.020 C 
HETATM   40  C38 VFQ 8 620     -31.993 129.879   6.151  1.00 45.52     0.044 C 
HETATM   41  C39 VFQ 8 620     -34.519 130.554  10.364  1.00 98.00     0.048 C 
HETATM   42  C40 VFQ 8 620     -38.249 134.242  11.253  1.00 98.00     0.048 C 
HETATM   43  O23 VFQ 8 620     -32.138 125.859   3.576  1.00 45.52    -0.395 OA
ATOM     44  H23 VFQ 8 620     -31.406 126.270   3.133  1.00  0.00     0.210 HD
ENDROOT
TORSDOF 12
