REMARK VINA RESULT:    -7.789      1.256     16.972
REMARK INTER + INTRA:         -10.630
REMARK INTER:                 -10.366
REMARK INTRA:                  -0.265
REMARK UNBOUND:                -2.841
REMARK  0 active torsions:
REMARK  status: ('A' for Active; 'I' for Inactive)
REMARK       I    between atoms: C3_3  and  O3_21 
REMARK       I    between atoms: C6_6  and  C7_7 
REMARK       I    between atoms: C8_8  and  C9_9 
REMARK       I    between atoms: C10_10  and  C11_11 
REMARK       I    between atoms: C12_12  and  C13_13 
REMARK       I    between atoms: C14_14  and  C15_15 
REMARK       I    between atoms: C23_25  and  O23_43 
REMARK       I    between atoms: C26_28  and  C27_29 
REMARK       I    between atoms: C28_30  and  C29_31 
REMARK       I    between atoms: C30_32  and  C31_33 
REMARK       I    between atoms: C32_34  and  C33_35 
REMARK       I    between atoms: C34_36  and  C35_37 
ROOT
HETATM    1  C1  VFQ J9620     -50.625 145.057  10.888  1.00 17.81    -0.018 C 
HETATM    2  C2  VFQ J9620     -51.510 145.798  11.911  1.00 18.03     0.045 C 
HETATM    3  C3  VFQ J9620     -50.781 146.701  12.902  1.00 19.41     0.123 C 
HETATM    4  C4  VFQ J9620     -49.743 147.593  12.225  1.00 18.47     0.066 C 
HETATM    5  C5  VFQ J9620     -48.902 146.935  11.180  1.00 18.29    -0.074 C 
HETATM    6  C6  VFQ J9620     -49.275 145.759  10.540  1.00 18.07    -0.048 C 
HETATM    7  C7  VFQ J9620     -48.414 145.132   9.511  1.00 17.25     0.009 C 
HETATM    8  C8  VFQ J9620     -47.326 144.368   9.728  1.00 17.01     0.007 C 
HETATM    9  C9  VFQ J9620     -46.381 143.832   8.743  1.00 17.86    -0.062 C 
HETATM   10  C10 VFQ J9620     -45.416 142.995   9.186  1.00 14.07     0.007 C 
HETATM   11  C11 VFQ J9620     -44.410 142.346   8.397  1.00 13.24     0.001 C 
HETATM   12  C12 VFQ J9620     -43.645 141.406   8.965  1.00 13.26     0.007 C 
HETATM   13  C13 VFQ J9620     -42.620 140.568   8.345  1.00 14.95    -0.062 C 
HETATM   14  C14 VFQ J9620     -42.061 139.606   9.112  1.00 15.84     0.007 C 
HETATM   15  C15 VFQ J9620     -41.098 138.601   8.718  1.00 15.11     0.001 C 
HETATM   16  C16 VFQ J9620     -51.527 144.964   9.656  1.00 16.04     0.020 C 
HETATM   17  C17 VFQ J9620     -50.368 143.622  11.368  1.00 17.79     0.020 C 
HETATM   18  C18 VFQ J9620     -47.682 147.773  11.017  1.00 17.18     0.044 C 
HETATM   19  C19 VFQ J9620     -46.582 144.212   7.296  1.00 17.70     0.048 C 
HETATM   20  C20 VFQ J9620     -42.317 140.783   6.884  1.00 11.96     0.048 C 
HETATM   21  O3  VFQ J9620     -51.706 147.489  13.641  1.00 19.31    -0.395 OA
ATOM     22  H3  VFQ J9620     -51.252 148.051  14.257  1.00  0.00     0.210 HD
HETATM   23  C21 VFQ J9620     -34.045 128.156   7.045  1.00 25.46    -0.018 C 
HETATM   24  C22 VFQ J9620     -33.075 127.352   6.183  1.00 25.46     0.045 C 
HETATM   25  C23 VFQ J9620     -31.643 127.851   6.103  1.00 25.46     0.123 C 
HETATM   26  C24 VFQ J9620     -31.620 129.362   6.044  1.00 25.46     0.066 C 
HETATM   27  C25 VFQ J9620     -32.269 129.869   7.298  1.00 25.46    -0.074 C 
HETATM   28  C26 VFQ J9620     -33.468 129.412   7.673  1.00 25.46    -0.048 C 
HETATM   29  C27 VFQ J9620     -34.244 130.100   8.747  1.00 25.46     0.009 C 
HETATM   30  C28 VFQ J9620     -35.042 131.139   8.488  1.00 25.46     0.007 C 
HETATM   31  C29 VFQ J9620     -35.864 131.889   9.495  1.00 23.86    -0.062 C 
HETATM   32  C30 VFQ J9620     -36.623 132.913   9.045  1.00 20.58     0.007 C 
HETATM   33  C31 VFQ J9620     -37.521 133.742   9.815  1.00 18.13     0.001 C 
HETATM   34  C32 VFQ J9620     -38.217 134.766   9.266  1.00 14.57     0.007 C 
HETATM   35  C33 VFQ J9620     -39.148 135.701   9.926  1.00 16.93    -0.062 C 
HETATM   36  C34 VFQ J9620     -39.713 136.670   9.172  1.00 15.59     0.007 C 
HETATM   37  C35 VFQ J9620     -40.645 137.685   9.588  1.00 13.74     0.001 C 
HETATM   38  C36 VFQ J9620     -34.461 127.268   8.201  1.00 25.46     0.020 C 
HETATM   39  C37 VFQ J9620     -35.267 128.464   6.187  1.00 25.46     0.020 C 
HETATM   40  C38 VFQ J9620     -31.502 130.862   8.111  1.00 25.46     0.044 C 
HETATM   41  C39 VFQ J9620     -35.803 131.462  10.939  1.00 22.74     0.048 C 
HETATM   42  C40 VFQ J9620     -39.399 135.526  11.400  1.00 15.29     0.048 C 
HETATM   43  O23 VFQ J9620     -31.047 127.326   4.913  1.00 25.46    -0.395 OA
ATOM     44  H23 VFQ J9620     -31.062 126.377   4.949  1.00  0.00     0.210 HD
ENDROOT
TORSDOF 12
