REMARK VINA RESULT:    -8.238      1.465     16.671
REMARK INTER + INTRA:          -9.007
REMARK INTER:                  -6.193
REMARK INTRA:                  -2.815
REMARK UNBOUND:                -0.770
REMARK  0 active torsions:
REMARK  status: ('A' for Active; 'I' for Inactive)
REMARK       I    between atoms: C3_3  and  O3_21 
REMARK       I    between atoms: C6_6  and  C7_7 
REMARK       I    between atoms: C8_8  and  C9_9 
REMARK       I    between atoms: C10_10  and  C11_11 
REMARK       I    between atoms: C12_12  and  C13_13 
REMARK       I    between atoms: C14_14  and  C15_15 
REMARK       I    between atoms: C23_25  and  O23_43 
REMARK       I    between atoms: C26_28  and  C27_29 
REMARK       I    between atoms: C28_30  and  C29_31 
REMARK       I    between atoms: C30_32  and  C31_33 
REMARK       I    between atoms: C32_34  and  C33_35 
REMARK       I    between atoms: C34_36  and  C35_37 
ROOT
HETATM    1  C1  VFQ A 620     -34.609 127.021   6.040  1.00 22.96    -0.018 C 
HETATM    2  C2  VFQ A 620     -33.959 126.277   4.852  1.00 23.40     0.045 C 
HETATM    3  C3  VFQ A 620     -32.747 126.902   4.164  1.00 22.69     0.123 C 
HETATM    4  C4  VFQ A 620     -31.888 127.771   5.081  1.00 22.06     0.066 C 
HETATM    5  C5  VFQ A 620     -32.553 128.538   6.176  1.00 21.38    -0.074 C 
HETATM    6  C6  VFQ A 620     -33.809 128.218   6.646  1.00 22.58    -0.048 C 
HETATM    7  C7  VFQ A 620     -34.435 128.987   7.740  1.00 22.00     0.009 C 
HETATM    8  C8  VFQ A 620     -35.031 130.194   7.664  1.00 20.93     0.007 C 
HETATM    9  C9  VFQ A 620     -35.518 130.991   8.792  1.00 21.87    -0.062 C 
HETATM   10  C10 VFQ A 620     -36.192 132.131   8.521  1.00 20.24     0.007 C 
HETATM   11  C11 VFQ A 620     -36.761 133.043   9.482  1.00 21.04     0.001 C 
HETATM   12  C12 VFQ A 620     -37.575 134.029   9.076  1.00 22.18     0.007 C 
HETATM   13  C13 VFQ A 620     -38.299 135.040   9.859  1.00 24.17    -0.062 C 
HETATM   14  C14 VFQ A 620     -39.149 135.844   9.182  1.00 25.88     0.007 C 
HETATM   15  C15 VFQ A 620     -40.035 136.852   9.692  1.00 26.51     0.001 C 
HETATM   16  C16 VFQ A 620     -34.799 125.920   7.101  1.00 20.65     0.020 C 
HETATM   17  C17 VFQ A 620     -36.007 127.481   5.587  1.00 21.73     0.020 C 
HETATM   18  C18 VFQ A 620     -31.612 129.608   6.607  1.00 21.05     0.044 C 
HETATM   19  C19 VFQ A 620     -35.280 130.455  10.177  1.00 19.19     0.048 C 
HETATM   20  C20 VFQ A 620     -38.112 135.063  11.347  1.00 21.80     0.048 C 
HETATM   21  O3  VFQ A 620     -31.949 125.897   3.556  1.00 22.00    -0.395 OA
ATOM     22  H3  VFQ A 620     -31.195 126.285   3.128  1.00  0.00     0.210 HD
HETATM   23  C21 VFQ A 620     -48.816 144.097  12.677  1.00 32.37    -0.018 C 
HETATM   24  C22 VFQ A 620     -49.428 144.901  13.814  1.00 32.37     0.045 C 
HETATM   25  C23 VFQ A 620     -49.359 146.401  13.631  1.00 32.37     0.123 C 
HETATM   26  C24 VFQ A 620     -47.905 146.759  13.418  1.00 32.37     0.066 C 
HETATM   27  C25 VFQ A 620     -47.397 146.075  12.175  1.00 32.37    -0.074 C 
HETATM   28  C26 VFQ A 620     -48.028 144.988  11.718  1.00 32.37    -0.048 C 
HETATM   29  C27 VFQ A 620     -47.720 144.451  10.386  1.00 32.37     0.009 C 
HETATM   30  C28 VFQ A 620     -46.782 143.506  10.532  1.00 32.37     0.007 C 
HETATM   31  C29 VFQ A 620     -46.148 142.757   9.400  1.00 37.91    -0.062 C 
HETATM   32  C30 VFQ A 620     -45.209 141.838   9.717  1.00 37.54     0.007 C 
HETATM   33  C31 VFQ A 620     -44.466 140.998   8.812  1.00 35.36     0.001 C 
HETATM   34  C32 VFQ A 620     -43.534 140.145   9.282  1.00 32.59     0.007 C 
HETATM   35  C33 VFQ A 620     -42.650 139.218   8.559  1.00 30.48    -0.062 C 
HETATM   36  C34 VFQ A 620     -41.789 138.481   9.294  1.00 28.06     0.007 C 
HETATM   37  C35 VFQ A 620     -40.838 137.508   8.839  1.00 27.79     0.001 C 
HETATM   38  C36 VFQ A 620     -49.982 143.485  11.901  1.00 32.37     0.020 C 
HETATM   39  C37 VFQ A 620     -48.034 142.975  13.357  1.00 32.37     0.020 C 
HETATM   40  C38 VFQ A 620     -46.168 146.650  11.523  1.00 32.37     0.044 C 
HETATM   41  C39 VFQ A 620     -46.574 143.068   7.995  1.00 38.40     0.048 C 
HETATM   42  C40 VFQ A 620     -42.763 139.157   7.058  1.00 28.72     0.048 C 
HETATM   43  O23 VFQ A 620     -49.844 146.995  14.841  1.00 32.37    -0.395 OA
ATOM     44  H23 VFQ A 620     -49.801 147.937  14.726  1.00  0.00     0.210 HD
ENDROOT
TORSDOF 12
