REMARK VINA RESULT:    -9.213      0.707     16.966
REMARK INTER + INTRA:          -9.691
REMARK INTER:                  -9.554
REMARK INTRA:                  -0.138
REMARK UNBOUND:                -0.478
REMARK  0 active torsions:
REMARK  status: ('A' for Active; 'I' for Inactive)
REMARK       I    between atoms: C3_3  and  O3_21 
REMARK       I    between atoms: C6_6  and  C7_7 
REMARK       I    between atoms: C8_8  and  C9_9 
REMARK       I    between atoms: C10_10  and  C11_11 
REMARK       I    between atoms: C12_12  and  C13_13 
REMARK       I    between atoms: C14_14  and  C15_15 
REMARK       I    between atoms: C23_25  and  O23_43 
REMARK       I    between atoms: C26_28  and  C27_29 
REMARK       I    between atoms: C28_30  and  C29_31 
REMARK       I    between atoms: C30_32  and  C31_33 
REMARK       I    between atoms: C32_34  and  C33_35 
REMARK       I    between atoms: C34_36  and  C35_37 
ROOT
HETATM    1  C1  VFQ E4620     -34.217 128.167   6.722  1.00 19.12    -0.018 C 
HETATM    2  C2  VFQ E4620     -33.283 127.469   5.712  1.00 18.29     0.045 C 
HETATM    3  C3  VFQ E4620     -32.039 128.233   5.257  1.00 18.54     0.123 C 
HETATM    4  C4  VFQ E4620     -31.375 129.029   6.380  1.00 18.55     0.066 C 
HETATM    5  C5  VFQ E4620     -32.259 129.709   7.374  1.00 18.97    -0.074 C 
HETATM    6  C6  VFQ E4620     -33.582 129.328   7.556  1.00 18.68    -0.048 C 
HETATM    7  C7  VFQ E4620     -34.455 129.977   8.545  1.00 18.46     0.009 C 
HETATM    8  C8  VFQ E4620     -35.063 131.165   8.456  1.00 18.89     0.007 C 
HETATM    9  C9  VFQ E4620     -35.823 131.861   9.496  1.00 19.10    -0.062 C 
HETATM   10  C10 VFQ E4620     -36.445 133.009   9.151  1.00 18.99     0.007 C 
HETATM   11  C11 VFQ E4620     -37.253 133.842   9.990  1.00 18.78     0.001 C 
HETATM   12  C12 VFQ E4620     -37.947 134.834   9.427  1.00 19.28     0.007 C 
HETATM   13  C13 VFQ E4620     -38.880 135.763  10.064  1.00 21.25    -0.062 C 
HETATM   14  C14 VFQ E4620     -39.549 136.616   9.256  1.00 20.64     0.007 C 
HETATM   15  C15 VFQ E4620     -40.569 137.551   9.627  1.00 21.49     0.001 C 
HETATM   16  C16 VFQ E4620     -34.682 127.029   7.645  1.00 19.29     0.020 C 
HETATM   17  C17 VFQ E4620     -35.453 128.675   5.958  1.00 16.00     0.020 C 
HETATM   18  C18 VFQ E4620     -31.433 130.752   8.051  1.00 17.87     0.044 C 
HETATM   19  C19 VFQ E4620     -35.905 131.224  10.858  1.00 17.60     0.048 C 
HETATM   20  C20 VFQ E4620     -39.083 135.654  11.550  1.00 16.75     0.048 C 
HETATM   21  O3  VFQ E4620     -31.100 127.343   4.668  1.00 19.42    -0.395 OA
ATOM     22  H3  VFQ E4620     -30.326 127.818   4.385  1.00  0.00     0.210 HD
HETATM   23  C21 VFQ E4620     -50.713 145.304  10.058  1.00 13.13    -0.018 C 
HETATM   24  C22 VFQ E4620     -51.689 145.942  11.036  1.00 13.13     0.045 C 
HETATM   25  C23 VFQ E4620     -51.272 147.294  11.567  1.00 13.13     0.123 C 
HETATM   26  C24 VFQ E4620     -49.875 147.207  12.126  1.00 13.13     0.066 C 
HETATM   27  C25 VFQ E4620     -48.912 146.682  11.098  1.00 13.13    -0.074 C 
HETATM   28  C26 VFQ E4620     -49.267 145.751  10.196  1.00 13.13    -0.048 C 
HETATM   29  C27 VFQ E4620     -48.280 145.160   9.248  1.00 13.13     0.009 C 
HETATM   30  C28 VFQ E4620     -47.435 144.163   9.547  1.00 13.13     0.007 C 
HETATM   31  C29 VFQ E4620     -46.464 143.570   8.567  1.00 25.99    -0.062 C 
HETATM   32  C30 VFQ E4620     -45.671 142.571   9.008  1.00 24.86     0.007 C 
HETATM   33  C31 VFQ E4620     -44.699 141.840   8.241  1.00 24.61     0.001 C 
HETATM   34  C32 VFQ E4620     -43.928 140.896   8.820  1.00 23.19     0.007 C 
HETATM   35  C33 VFQ E4620     -42.871 140.066   8.228  1.00 22.76    -0.062 C 
HETATM   36  C34 VFQ E4620     -42.217 139.211   9.045  1.00 21.16     0.007 C 
HETATM   37  C35 VFQ E4620     -41.156 138.311   8.702  1.00 21.72     0.001 C 
HETATM   38  C36 VFQ E4620     -51.150 145.663   8.648  1.00 13.13     0.020 C 
HETATM   39  C37 VFQ E4620     -50.846 143.805  10.280  1.00 13.13     0.020 C 
HETATM   40  C38 VFQ E4620     -47.543 147.286  11.148  1.00 13.13     0.044 C 
HETATM   41  C39 VFQ E4620     -46.409 144.113   7.166  1.00 26.11     0.048 C 
HETATM   42  C40 VFQ E4620     -42.571 140.243   6.762  1.00 21.07     0.048 C 
HETATM   43  O23 VFQ E4620     -52.158 147.657  12.625  1.00 13.13    -0.395 OA
ATOM     44  H23 VFQ E4620     -51.895 148.507  12.958  1.00  0.00     0.210 HD
ENDROOT
TORSDOF 12
