REMARK VINA RESULT:    -7.384      0.980     16.967
REMARK INTER + INTRA:          -9.918
REMARK INTER:                  -9.627
REMARK INTRA:                  -0.290
REMARK UNBOUND:                -2.534
REMARK  0 active torsions:
REMARK  status: ('A' for Active; 'I' for Inactive)
REMARK       I    between atoms: C3_3  and  O3_21 
REMARK       I    between atoms: C6_6  and  C7_7 
REMARK       I    between atoms: C8_8  and  C9_9 
REMARK       I    between atoms: C10_10  and  C11_11 
REMARK       I    between atoms: C12_12  and  C13_13 
REMARK       I    between atoms: C14_14  and  C15_15 
REMARK       I    between atoms: C23_25  and  O23_43 
REMARK       I    between atoms: C26_28  and  C27_29 
REMARK       I    between atoms: C28_30  and  C29_31 
REMARK       I    between atoms: C30_32  and  C31_33 
REMARK       I    between atoms: C32_34  and  C33_35 
REMARK       I    between atoms: C34_36  and  C35_37 
ROOT
HETATM    1  C1  VFQ 1 316     -50.314 144.973  12.788  1.00 73.24    -0.018 C 
HETATM    2  C2  VFQ 1 316     -50.770 145.564  14.125  1.00 72.84     0.045 C 
HETATM    3  C3  VFQ 1 316     -49.876 146.632  14.742  1.00 72.53     0.123 C 
HETATM    4  C4  VFQ 1 316     -49.386 147.586  13.670  1.00 72.61     0.066 C 
HETATM    5  C5  VFQ 1 316     -48.634 146.811  12.620  1.00 72.68    -0.074 C 
HETATM    6  C6  VFQ 1 316     -49.105 145.649  12.165  1.00 72.79    -0.048 C 
HETATM    7  C7  VFQ 1 316     -48.432 144.985  11.022  1.00 71.90     0.009 C 
HETATM    8  C8  VFQ 1 316     -47.359 144.216  11.223  1.00 71.51     0.007 C 
HETATM    9  C9  VFQ 1 316     -46.650 143.525  10.124  1.00 70.48    -0.062 C 
HETATM   10  C10 VFQ 1 316     -45.619 142.728  10.443  1.00 69.46     0.007 C 
HETATM   11  C11 VFQ 1 316     -44.822 141.972   9.479  1.00 69.85     0.001 C 
HETATM   12  C12 VFQ 1 316     -43.854 141.206   9.982  1.00 72.15     0.007 C 
HETATM   13  C13 VFQ 1 316     -42.954 140.356   9.175  1.00 73.74    -0.062 C 
HETATM   14  C14 VFQ 1 316     -42.199 139.452   9.825  1.00 74.04     0.007 C 
HETATM   15  C15 VFQ 1 316     -41.287 138.532   9.147  1.00 74.62     0.001 C 
HETATM   16  C16 VFQ 1 316     -51.478 145.069  11.810  1.00 72.68     0.020 C 
HETATM   17  C17 VFQ 1 316     -49.962 143.508  13.009  1.00 73.05     0.020 C 
HETATM   18  C18 VFQ 1 316     -47.554 147.542  11.877  1.00 72.13     0.044 C 
HETATM   19  C19 VFQ 1 316     -47.067 143.719   8.697  1.00 70.45     0.048 C 
HETATM   20  C20 VFQ 1 316     -42.883 140.502   7.681  1.00 72.89     0.048 C 
HETATM   21  O3  VFQ 1 316     -50.619 147.367  15.724  1.00 71.04    -0.395 OA
ATOM     22  H3  VFQ 1 316     -50.926 146.768  16.395  1.00  0.00     0.210 HD
HETATM   23  C21 VFQ 1 316     -33.983 128.082   7.158  1.00 23.07    -0.018 C 
HETATM   24  C22 VFQ 1 316     -33.079 127.238   6.240  1.00 21.39     0.045 C 
HETATM   25  C23 VFQ 1 316     -31.699 127.791   5.900  1.00 23.10     0.123 C 
HETATM   26  C24 VFQ 1 316     -31.609 129.319   5.891  1.00 23.25     0.066 C 
HETATM   27  C25 VFQ 1 316     -32.388 130.069   6.924  1.00 22.57    -0.074 C 
HETATM   28  C26 VFQ 1 316     -33.496 129.519   7.528  1.00 22.63    -0.048 C 
HETATM   29  C27 VFQ 1 316     -34.263 130.257   8.542  1.00 23.01     0.009 C 
HETATM   30  C28 VFQ 1 316     -35.154 131.237   8.297  1.00 21.85     0.007 C 
HETATM   31  C29 VFQ 1 316     -35.830 132.055   9.281  1.00 94.72    -0.062 C 
HETATM   32  C30 VFQ 1 316     -36.705 132.981   8.866  1.00 91.32     0.007 C 
HETATM   33  C31 VFQ 1 316     -37.461 133.850   9.765  1.00 87.88     0.001 C 
HETATM   34  C32 VFQ 1 316     -38.202 134.792   9.189  1.00 84.19     0.007 C 
HETATM   35  C33 VFQ 1 316     -39.054 135.742   9.926  1.00 80.79    -0.062 C 
HETATM   36  C34 VFQ 1 316     -39.719 136.681   9.230  1.00 78.84     0.007 C 
HETATM   37  C35 VFQ 1 316     -40.612 137.640   9.876  1.00 76.79     0.001 C 
HETATM   38  C36 VFQ 1 316     -34.243 127.255   8.438  1.00 21.40     0.020 C 
HETATM   39  C37 VFQ 1 316     -35.299 128.164   6.364  1.00 21.74     0.020 C 
HETATM   40  C38 VFQ 1 316     -31.748 131.397   7.129  1.00 21.99     0.044 C 
HETATM   41  C39 VFQ 1 316     -35.553 131.848  10.739  1.00 95.37     0.048 C 
HETATM   42  C40 VFQ 1 316     -39.189 135.638  11.416  1.00 90.13     0.048 C 
HETATM   43  O23 VFQ 1 316     -31.256 127.271   4.658  1.00 24.94    -0.395 OA
ATOM     44  H23 VFQ 1 316     -30.396 127.615   4.446  1.00  0.00     0.210 HD
ENDROOT
TORSDOF 12
