REMARK VINA RESULT:    -8.217      0.000      0.000
REMARK INTER + INTRA:         -10.781
REMARK INTER:                  -8.217
REMARK INTRA:                  -2.564
REMARK UNBOUND:                -2.564
REMARK  0 active torsions:
REMARK  status: ('A' for Active; 'I' for Inactive)
REMARK       I    between atoms: C3_3  and  O3_21 
REMARK       I    between atoms: C6_6  and  C7_7 
REMARK       I    between atoms: C8_8  and  C9_9 
REMARK       I    between atoms: C10_10  and  C11_11 
REMARK       I    between atoms: C12_12  and  C13_13 
REMARK       I    between atoms: C14_14  and  C15_15 
REMARK       I    between atoms: C23_25  and  O23_43 
REMARK       I    between atoms: C26_28  and  C27_29 
REMARK       I    between atoms: C28_30  and  C29_31 
REMARK       I    between atoms: C30_32  and  C31_33 
REMARK       I    between atoms: C32_34  and  C33_35 
REMARK       I    between atoms: C34_36  and  C35_37 
ROOT
HETATM    1  C1  VFQ I8620     -34.562 126.941   6.189  1.00 16.69    -0.018 C 
HETATM    2  C2  VFQ I8620     -34.013 126.202   4.958  1.00 15.88     0.045 C 
HETATM    3  C3  VFQ I8620     -32.907 126.864   4.148  1.00 15.19     0.123 C 
HETATM    4  C4  VFQ I8620     -31.963 127.751   4.965  1.00 16.30     0.066 C 
HETATM    5  C5  VFQ I8620     -32.532 128.514   6.118  1.00 15.97    -0.074 C 
HETATM    6  C6  VFQ I8620     -33.729 128.160   6.695  1.00 16.56    -0.048 C 
HETATM    7  C7  VFQ I8620     -34.276 128.932   7.813  1.00 18.44     0.009 C 
HETATM    8  C8  VFQ I8620     -34.909 130.115   7.729  1.00 18.42     0.007 C 
HETATM    9  C9  VFQ I8620     -35.341 130.939   8.845  1.00 20.59    -0.062 C 
HETATM   10  C10 VFQ I8620     -36.055 132.049   8.565  1.00 20.51     0.007 C 
HETATM   11  C11 VFQ I8620     -36.583 132.981   9.512  1.00 21.63     0.001 C 
HETATM   12  C12 VFQ I8620     -37.431 133.934   9.113  1.00 21.98     0.007 C 
HETATM   13  C13 VFQ I8620     -38.102 134.948   9.925  1.00 23.28    -0.062 C 
HETATM   14  C14 VFQ I8620     -39.011 135.728   9.300  1.00 23.72     0.007 C 
HETATM   15  C15 VFQ I8620     -39.859 136.733   9.875  1.00 25.53     0.001 C 
HETATM   16  C16 VFQ I8620     -34.621 125.850   7.273  1.00 15.77     0.020 C 
HETATM   17  C17 VFQ I8620     -36.012 127.353   5.868  1.00 17.40     0.020 C 
HETATM   18  C18 VFQ I8620     -31.602 129.629   6.446  1.00 16.04     0.044 C 
HETATM   19  C19 VFQ I8620     -35.006 130.467  10.237  1.00 19.43     0.048 C 
HETATM   20  C20 VFQ I8620     -37.789 135.000  11.397  1.00 18.80     0.048 C 
HETATM   21  O3  VFQ I8620     -32.166 125.883   3.451  1.00 16.64    -0.395 OA
ATOM     22  H3  VFQ I8620     -31.476 126.297   2.946  1.00  0.00     0.210 HD
HETATM   23  C21 VFQ I8620     -49.397 144.599  12.711  1.00 59.27    -0.018 C 
HETATM   24  C22 VFQ I8620     -49.990 145.404  13.859  1.00 64.60     0.045 C 
HETATM   25  C23 VFQ I8620     -49.527 146.842  13.935  1.00 63.28     0.123 C 
HETATM   26  C24 VFQ I8620     -48.023 146.894  13.973  1.00 61.00     0.066 C 
HETATM   27  C25 VFQ I8620     -47.449 146.184  12.780  1.00 64.87    -0.074 C 
HETATM   28  C26 VFQ I8620     -48.052 145.114  12.221  1.00 63.96    -0.048 C 
HETATM   29  C27 VFQ I8620     -47.438 144.418  11.059  1.00 64.82     0.009 C 
HETATM   30  C28 VFQ I8620     -46.511 143.464  11.195  1.00 58.91     0.007 C 
HETATM   31  C29 VFQ I8620     -45.888 142.741  10.047  1.00 33.65    -0.062 C 
HETATM   32  C30 VFQ I8620     -44.965 141.799  10.335  1.00 30.63     0.007 C 
HETATM   33  C31 VFQ I8620     -44.279 140.939   9.407  1.00 28.70     0.001 C 
HETATM   34  C32 VFQ I8620     -43.339 140.061   9.817  1.00 25.67     0.007 C 
HETATM   35  C33 VFQ I8620     -42.543 139.120   9.028  1.00 24.63    -0.062 C 
HETATM   36  C34 VFQ I8620     -41.629 138.370   9.678  1.00 23.98     0.007 C 
HETATM   37  C35 VFQ I8620     -40.737 137.397   9.114  1.00 25.49     0.001 C 
HETATM   38  C36 VFQ I8620     -50.350 144.670  11.529  1.00 56.55     0.020 C 
HETATM   39  C37 VFQ I8620     -49.337 143.161  13.214  1.00 59.14     0.020 C 
HETATM   40  C38 VFQ I8620     -46.164 146.769  12.267  1.00 61.00     0.044 C 
HETATM   41  C39 VFQ I8620     -46.314 143.101   8.646  1.00 33.66     0.048 C 
HETATM   42  C40 VFQ I8620     -42.778 139.067   7.553  1.00 25.13     0.048 C 
HETATM   43  O23 VFQ I8620     -50.045 147.435  15.128  1.00 73.40    -0.395 OA
ATOM     44  H23 VFQ I8620     -49.754 148.338  15.176  1.00  0.00     0.210 HD
ENDROOT
TORSDOF 12
