REMARK VINA RESULT:    -7.420      1.682     16.716
REMARK INTER + INTRA:         -10.144
REMARK INTER:                  -5.194
REMARK INTRA:                  -4.950
REMARK UNBOUND:                -2.724
REMARK  0 active torsions:
REMARK  status: ('A' for Active; 'I' for Inactive)
REMARK       I    between atoms: C3_3  and  O3_21 
REMARK       I    between atoms: C6_6  and  C7_7 
REMARK       I    between atoms: C8_8  and  C9_9 
REMARK       I    between atoms: C10_10  and  C11_11 
REMARK       I    between atoms: C12_12  and  C13_13 
REMARK       I    between atoms: C14_14  and  C15_15 
REMARK       I    between atoms: C23_25  and  O23_43 
REMARK       I    between atoms: C26_28  and  C27_29 
REMARK       I    between atoms: C28_30  and  C29_31 
REMARK       I    between atoms: C30_32  and  C31_33 
REMARK       I    between atoms: C32_34  and  C33_35 
REMARK       I    between atoms: C34_36  and  C35_37 
ROOT
HETATM    1  C1  VFQ y1621     -34.542 127.031   5.465  1.00 37.79    -0.018 C 
HETATM    2  C2  VFQ y1621     -33.871 126.215   4.373  1.00 37.79     0.045 C 
HETATM    3  C3  VFQ y1621     -32.682 126.856   3.696  1.00 37.79     0.123 C 
HETATM    4  C4  VFQ y1621     -31.723 127.359   4.742  1.00 37.79     0.066 C 
HETATM    5  C5  VFQ y1621     -32.388 128.245   5.750  1.00 37.79    -0.074 C 
HETATM    6  C6  VFQ y1621     -33.656 128.055   6.145  1.00 37.79    -0.048 C 
HETATM    7  C7  VFQ y1621     -34.226 128.808   7.295  1.00 37.79     0.009 C 
HETATM    8  C8  VFQ y1621     -34.717 130.048   7.195  1.00 37.79     0.007 C 
HETATM    9  C9  VFQ y1621     -35.285 130.762   8.341  1.00 37.79    -0.062 C 
HETATM   10  C10 VFQ y1621     -36.187 131.702   8.065  1.00 37.79     0.007 C 
HETATM   11  C11 VFQ y1621     -36.882 132.509   9.052  1.00 37.79     0.001 C 
HETATM   12  C12 VFQ y1621     -37.814 133.281   8.518  1.00 37.79     0.007 C 
HETATM   13  C13 VFQ y1621     -38.711 134.186   9.240  1.00 37.79    -0.062 C 
HETATM   14  C14 VFQ y1621     -39.488 134.998   8.520  1.00 37.79     0.007 C 
HETATM   15  C15 VFQ y1621     -40.429 135.892   9.174  1.00 37.79     0.001 C 
HETATM   16  C16 VFQ y1621     -35.136 126.022   6.436  1.00 37.79     0.020 C 
HETATM   17  C17 VFQ y1621     -35.678 127.811   4.848  1.00 37.79     0.020 C 
HETATM   18  C18 VFQ y1621     -31.421 129.115   6.494  1.00 37.79     0.044 C 
HETATM   19  C19 VFQ y1621     -34.868 130.447   9.740  1.00 37.79     0.048 C 
HETATM   20  C20 VFQ y1621     -38.772 134.184  10.734  1.00 37.79     0.048 C 
HETATM   21  O3  VFQ y1621     -31.998 125.850   2.950  1.00 37.79    -0.395 OA
ATOM     22  H3  VFQ y1621     -31.250 126.254   2.524  1.00  0.00     0.210 HD
HETATM   23  C21 VFQ y1621     -49.800 144.419  10.655  1.00 26.19    -0.018 C 
HETATM   24  C22 VFQ y1621     -50.776 145.003  11.669  1.00 26.65     0.045 C 
HETATM   25  C23 VFQ y1621     -50.184 145.727  12.863  1.00 28.07     0.123 C 
HETATM   26  C24 VFQ y1621     -48.947 145.035  13.375  1.00 30.07     0.066 C 
HETATM   27  C25 VFQ y1621     -47.958 144.917  12.261  1.00 28.83    -0.074 C 
HETATM   28  C26 VFQ y1621     -48.337 144.438  11.072  1.00 27.49    -0.048 C 
HETATM   29  C27 VFQ y1621     -47.354 143.905  10.097  1.00 29.45     0.009 C 
HETATM   30  C28 VFQ y1621     -46.752 142.724  10.255  1.00 27.83     0.007 C 
HETATM   31  C29 VFQ y1621     -45.816 142.185   9.273  1.00 37.79    -0.062 C 
HETATM   32  C30 VFQ y1621     -45.463 140.910   9.418  1.00 37.79     0.007 C 
HETATM   33  C31 VFQ y1621     -44.546 140.201   8.545  1.00 37.79     0.001 C 
HETATM   34  C32 VFQ y1621     -43.767 139.332   9.166  1.00 37.79     0.007 C 
HETATM   35  C33 VFQ y1621     -42.787 138.510   8.457  1.00 37.79    -0.062 C 
HETATM   36  C34 VFQ y1621     -42.023 137.670   9.154  1.00 37.79     0.007 C 
HETATM   37  C35 VFQ y1621     -41.059 136.818   8.476  1.00 37.79     0.001 C 
HETATM   38  C36 VFQ y1621     -49.908 145.205   9.357  1.00 26.46     0.020 C 
HETATM   39  C37 VFQ y1621     -50.276 142.994  10.428  1.00 26.61     0.020 C 
HETATM   40  C38 VFQ y1621     -46.565 145.364  12.557  1.00 29.43     0.044 C 
HETATM   41  C39 VFQ y1621     -45.290 143.038   8.165  1.00 37.79     0.048 C 
HETATM   42  C40 VFQ y1621     -42.675 138.607   6.972  1.00 37.79     0.048 C 
HETATM   43  O23 VFQ y1621     -51.155 145.764  13.905  1.00 27.44    -0.395 OA
ATOM     44  H23 VFQ y1621     -50.784 146.218  14.653  1.00  0.00     0.210 HD
ENDROOT
TORSDOF 12
