REMARK VINA RESULT:    -8.392      1.128     16.467
REMARK INTER + INTRA:         -11.456
REMARK INTER:                 -11.320
REMARK INTRA:                  -0.136
REMARK UNBOUND:                -3.064
REMARK  0 active torsions:
REMARK  status: ('A' for Active; 'I' for Inactive)
REMARK       I    between atoms: C3_3  and  O3_21 
REMARK       I    between atoms: C6_6  and  C7_7 
REMARK       I    between atoms: C8_8  and  C9_9 
REMARK       I    between atoms: C10_10  and  C11_11 
REMARK       I    between atoms: C12_12  and  C13_13 
REMARK       I    between atoms: C14_14  and  C15_15 
REMARK       I    between atoms: C23_25  and  O23_43 
REMARK       I    between atoms: C26_28  and  C27_29 
REMARK       I    between atoms: C28_30  and  C29_31 
REMARK       I    between atoms: C30_32  and  C31_33 
REMARK       I    between atoms: C32_34  and  C33_35 
REMARK       I    between atoms: C34_36  and  C35_37 
ROOT
HETATM    1  C1  VFQ g1621     -50.449 144.100  10.280  1.00 57.17    -0.018 C 
HETATM    2  C2  VFQ g1621     -51.345 144.426  11.468  1.00 57.17     0.045 C 
HETATM    3  C3  VFQ g1621     -50.869 145.502  12.427  1.00 57.17     0.123 C 
HETATM    4  C4  VFQ g1621     -50.162 146.608  11.676  1.00 57.17     0.066 C 
HETATM    5  C5  VFQ g1621     -49.010 146.014  10.919  1.00 57.17    -0.074 C 
HETATM    6  C6  VFQ g1621     -49.185 144.926  10.161  1.00 57.17    -0.048 C 
HETATM    7  C7  VFQ g1621     -48.166 144.499   9.164  1.00 57.17     0.009 C 
HETATM    8  C8  VFQ g1621     -47.080 143.805   9.517  1.00 57.17     0.007 C 
HETATM    9  C9  VFQ g1621     -46.054 143.344   8.569  1.00 57.17    -0.062 C 
HETATM   10  C10 VFQ g1621     -45.314 142.311   8.977  1.00 57.17     0.007 C 
HETATM   11  C11 VFQ g1621     -44.258 141.643   8.229  1.00 57.17     0.001 C 
HETATM   12  C12 VFQ g1621     -43.712 140.604   8.853  1.00 57.17     0.007 C 
HETATM   13  C13 VFQ g1621     -42.662 139.752   8.280  1.00 57.17    -0.062 C 
HETATM   14  C14 VFQ g1621     -42.127 138.789   9.044  1.00 57.17     0.007 C 
HETATM   15  C15 VFQ g1621     -41.117 137.877   8.524  1.00 57.17     0.001 C 
HETATM   16  C16 VFQ g1621     -51.304 144.236   9.029  1.00 57.17     0.020 C 
HETATM   17  C17 VFQ g1621     -50.013 142.660  10.428  1.00 57.17     0.020 C 
HETATM   18  C18 VFQ g1621     -47.949 147.034  10.632  1.00 57.17     0.044 C 
HETATM   19  C19 VFQ g1621     -45.858 143.993   7.234  1.00 57.17     0.048 C 
HETATM   20  C20 VFQ g1621     -42.241 139.933   6.855  1.00 57.17     0.048 C 
HETATM   21  O3  VFQ g1621     -52.019 146.047  13.074  1.00 57.17    -0.395 OA
ATOM     22  H3  VFQ g1621     -52.463 145.352  13.545  1.00  0.00     0.210 HD
HETATM   23  C21 VFQ g1621     -33.947 128.147   7.375  1.00 42.32    -0.018 C 
HETATM   24  C22 VFQ g1621     -33.035 127.199   6.603  1.00 42.32     0.045 C 
HETATM   25  C23 VFQ g1621     -31.743 127.829   6.094  1.00 42.32     0.123 C 
HETATM   26  C24 VFQ g1621     -31.976 129.279   5.709  1.00 42.32     0.066 C 
HETATM   27  C25 VFQ g1621     -32.432 130.027   6.932  1.00 42.32    -0.074 C 
HETATM   28  C26 VFQ g1621     -33.228 129.404   7.802  1.00 42.32    -0.048 C 
HETATM   29  C27 VFQ g1621     -33.745 130.102   8.983  1.00 42.32     0.009 C 
HETATM   30  C28 VFQ g1621     -34.757 130.869   8.547  1.00 42.32     0.007 C 
HETATM   31  C29 VFQ g1621     -35.584 131.699   9.433  1.00 57.17    -0.062 C 
HETATM   32  C30 VFQ g1621     -36.665 132.257   8.885  1.00 57.17     0.007 C 
HETATM   33  C31 VFQ g1621     -37.591 133.111   9.612  1.00 57.17     0.001 C 
HETATM   34  C32 VFQ g1621     -38.130 134.107   8.922  1.00 57.17     0.007 C 
HETATM   35  C33 VFQ g1621     -39.083 135.041   9.523  1.00 57.17    -0.062 C 
HETATM   36  C34 VFQ g1621     -39.708 135.939   8.757  1.00 57.17     0.007 C 
HETATM   37  C35 VFQ g1621     -40.684 136.882   9.289  1.00 57.17     0.001 C 
HETATM   38  C36 VFQ g1621     -34.436 127.452   8.637  1.00 42.32     0.020 C 
HETATM   39  C37 VFQ g1621     -35.137 128.498   6.492  1.00 42.32     0.020 C 
HETATM   40  C38 VFQ g1621     -31.933 131.431   7.113  1.00 42.32     0.044 C 
HETATM   41  C39 VFQ g1621     -35.222 131.917  10.869  1.00 57.17     0.048 C 
HETATM   42  C40 VFQ g1621     -39.306 134.968  10.988  1.00 57.17     0.048 C 
HETATM   43  O23 VFQ g1621     -31.289 127.117   4.939  1.00 42.32    -0.395 OA
ATOM     44  H23 VFQ g1621     -31.143 126.210   5.180  1.00  0.00     0.210 HD
ENDROOT
TORSDOF 12
