REMARK VINA RESULT:    -8.773      0.000      0.000
REMARK INTER + INTRA:         -11.087
REMARK INTER:                  -8.773
REMARK INTRA:                  -2.314
REMARK UNBOUND:                -2.314
REMARK  0 active torsions:
REMARK  status: ('A' for Active; 'I' for Inactive)
REMARK       I    between atoms: C3_3  and  O3_21 
REMARK       I    between atoms: C6_6  and  C7_7 
REMARK       I    between atoms: C8_8  and  C9_9 
REMARK       I    between atoms: C10_10  and  C11_11 
REMARK       I    between atoms: C12_12  and  C13_13 
REMARK       I    between atoms: C14_14  and  C15_15 
REMARK       I    between atoms: C23_25  and  O23_43 
REMARK       I    between atoms: C26_28  and  C27_29 
REMARK       I    between atoms: C28_30  and  C29_31 
REMARK       I    between atoms: C30_32  and  C31_33 
REMARK       I    between atoms: C32_34  and  C33_35 
REMARK       I    between atoms: C34_36  and  C35_37 
ROOT
HETATM    1  C1  VFQ 2 619     -34.150 127.204   6.693  1.00 46.63    -0.018 C 
HETATM    2  C2  VFQ 2 619     -34.283 127.535   5.209  1.00 46.63     0.045 C 
HETATM    3  C3  VFQ 2 619     -33.299 128.580   4.697  1.00 46.63     0.123 C 
HETATM    4  C4  VFQ 2 619     -31.973 128.435   5.423  1.00 46.63     0.066 C 
HETATM    5  C5  VFQ 2 619     -32.225 128.727   6.877  1.00 46.63    -0.074 C 
HETATM    6  C6  VFQ 2 619     -33.310 128.199   7.451  1.00 46.63    -0.048 C 
HETATM    7  C7  VFQ 2 619     -33.896 128.821   8.635  1.00 46.63     0.009 C 
HETATM    8  C8  VFQ 2 619     -34.401 129.998   8.250  1.00 46.63     0.007 C 
HETATM    9  C9  VFQ 2 619     -35.208 130.851   9.155  1.00 46.63    -0.062 C 
HETATM   10  C10 VFQ 2 619     -35.883 131.879   8.607  1.00 46.63     0.007 C 
HETATM   11  C11 VFQ 2 619     -36.773 132.766   9.360  1.00 46.63     0.001 C 
HETATM   12  C12 VFQ 2 619     -37.463 133.707   8.725  1.00 46.63     0.007 C 
HETATM   13  C13 VFQ 2 619     -38.397 134.597   9.443  1.00 46.63    -0.062 C 
HETATM   14  C14 VFQ 2 619     -39.115 135.445   8.686  1.00 46.63     0.007 C 
HETATM   15  C15 VFQ 2 619     -40.101 136.399   9.186  1.00 46.63     0.001 C 
HETATM   16  C16 VFQ 2 619     -33.471 125.850   6.851  1.00 46.63     0.020 C 
HETATM   17  C17 VFQ 2 619     -35.529 127.159   7.335  1.00 46.63     0.020 C 
HETATM   18  C18 VFQ 2 619     -31.362 129.777   7.526  1.00 46.63     0.044 C 
HETATM   19  C19 VFQ 2 619     -35.281 130.532  10.624  1.00 46.63     0.048 C 
HETATM   20  C20 VFQ 2 619     -38.508 134.517  10.939  1.00 46.63     0.048 C 
HETATM   21  O3  VFQ 2 619     -33.087 128.394   3.294  1.00 46.63    -0.395 OA
ATOM     22  H3  VFQ 2 619     -32.474 129.046   2.975  1.00  0.00     0.210 HD
HETATM   23  C21 VFQ 2 619     -49.593 144.619   9.561  1.00 19.54    -0.018 C 
HETATM   24  C22 VFQ 2 619     -50.434 145.462  10.516  1.00 19.54     0.045 C 
HETATM   25  C23 VFQ 2 619     -49.952 146.853  10.877  1.00 19.54     0.123 C 
HETATM   26  C24 VFQ 2 619     -48.477 146.814  11.184  1.00 19.54     0.066 C 
HETATM   27  C25 VFQ 2 619     -47.705 146.165  10.063  1.00 19.54    -0.074 C 
HETATM   28  C26 VFQ 2 619     -48.160 145.093   9.394  1.00 19.54    -0.048 C 
HETATM   29  C27 VFQ 2 619     -47.281 144.368   8.429  1.00 19.54     0.009 C 
HETATM   30  C28 VFQ 2 619     -46.426 143.400   8.783  1.00 19.54     0.007 C 
HETATM   31  C29 VFQ 2 619     -45.570 142.688   7.836  1.00 46.63    -0.062 C 
HETATM   32  C30 VFQ 2 619     -44.840 141.706   8.376  1.00 46.63     0.007 C 
HETATM   33  C31 VFQ 2 619     -43.929 140.832   7.655  1.00 46.63     0.001 C 
HETATM   34  C32 VFQ 2 619     -43.300 139.921   8.390  1.00 46.63     0.007 C 
HETATM   35  C33 VFQ 2 619     -42.337 138.966   7.824  1.00 46.63    -0.062 C 
HETATM   36  C34 VFQ 2 619     -41.713 138.144   8.688  1.00 46.63     0.007 C 
HETATM   37  C35 VFQ 2 619     -40.717 137.155   8.287  1.00 46.63     0.001 C 
HETATM   38  C36 VFQ 2 619     -50.227 144.659   8.178  1.00 19.54     0.020 C 
HETATM   39  C37 VFQ 2 619     -49.673 143.192  10.089  1.00 19.54     0.020 C 
HETATM   40  C38 VFQ 2 619     -46.394 146.804   9.728  1.00 19.54     0.044 C 
HETATM   41  C39 VFQ 2 619     -45.592 143.036   6.377  1.00 46.63     0.048 C 
HETATM   42  C40 VFQ 2 619     -42.115 138.975   6.340  1.00 46.63     0.048 C 
HETATM   43  O23 VFQ 2 619     -50.643 147.286  12.050  1.00 19.54    -0.395 OA
ATOM     44  H23 VFQ 2 619     -51.573 147.310  11.856  1.00  0.00     0.210 HD
ENDROOT
TORSDOF 12
