REMARK VINA RESULT:   -10.060      0.743     17.071
REMARK INTER + INTRA:         -10.327
REMARK INTER:                  -9.787
REMARK INTRA:                  -0.540
REMARK UNBOUND:                -0.267
REMARK  0 active torsions:
REMARK  status: ('A' for Active; 'I' for Inactive)
REMARK       I    between atoms: C3_3  and  O3_21 
REMARK       I    between atoms: C6_6  and  C7_7 
REMARK       I    between atoms: C8_8  and  C9_9 
REMARK       I    between atoms: C10_10  and  C11_11 
REMARK       I    between atoms: C12_12  and  C13_13 
REMARK       I    between atoms: C14_14  and  C15_15 
REMARK       I    between atoms: C23_25  and  O23_43 
REMARK       I    between atoms: C26_28  and  C27_29 
REMARK       I    between atoms: C28_30  and  C29_31 
REMARK       I    between atoms: C30_32  and  C31_33 
REMARK       I    between atoms: C32_34  and  C33_35 
REMARK       I    between atoms: C34_36  and  C35_37 
ROOT
HETATM    1  C1  VFQ A 621     -34.018 128.315   7.109  1.00 21.58    -0.018 C 
HETATM    2  C2  VFQ A 621     -33.180 127.690   5.974  1.00 21.20     0.045 C 
HETATM    3  C3  VFQ A 621     -31.798 128.255   5.634  1.00 20.61     0.123 C 
HETATM    4  C4  VFQ A 621     -31.252 129.301   6.618  1.00 19.82     0.066 C 
HETATM    5  C5  VFQ A 621     -32.138 129.967   7.625  1.00 19.81    -0.074 C 
HETATM    6  C6  VFQ A 621     -33.424 129.548   7.898  1.00 19.95    -0.048 C 
HETATM    7  C7  VFQ A 621     -34.319 130.175   8.914  1.00 17.10     0.009 C 
HETATM    8  C8  VFQ A 621     -35.032 131.305   8.709  1.00 17.58     0.007 C 
HETATM    9  C9  VFQ A 621     -35.936 132.033   9.607  1.00 19.11    -0.062 C 
HETATM   10  C10 VFQ A 621     -36.628 133.073   9.090  1.00 18.37     0.007 C 
HETATM   11  C11 VFQ A 621     -37.627 133.846   9.773  1.00 18.85     0.001 C 
HETATM   12  C12 VFQ A 621     -38.355 134.809   9.175  1.00 19.83     0.007 C 
HETATM   13  C13 VFQ A 621     -39.469 135.565   9.784  1.00 21.26    -0.062 C 
HETATM   14  C14 VFQ A 621     -40.120 136.465   9.012  1.00 20.79     0.007 C 
HETATM   15  C15 VFQ A 621     -41.260 137.275   9.367  1.00 20.26     0.001 C 
HETATM   16  C16 VFQ A 621     -34.229 127.112   8.055  1.00 19.38     0.020 C 
HETATM   17  C17 VFQ A 621     -35.388 128.685   6.494  1.00 19.65     0.020 C 
HETATM   18  C18 VFQ A 621     -31.371 131.066   8.267  1.00 20.06     0.044 C 
HETATM   19  C19 VFQ A 621     -36.099 131.524  11.011  1.00 17.70     0.048 C 
HETATM   20  C20 VFQ A 621     -39.832 135.251  11.207  1.00 18.78     0.048 C 
HETATM   21  O3  VFQ A 621     -30.862 127.200   5.475  1.00 18.88    -0.395 OA
ATOM     22  H3  VFQ A 621     -31.198 126.553   4.866  1.00  0.00     0.210 HD
HETATM   23  C21 VFQ A 621     -51.105 145.156  10.280  1.00 40.88    -0.018 C 
HETATM   24  C22 VFQ A 621     -52.134 146.042  10.985  1.00 40.88     0.045 C 
HETATM   25  C23 VFQ A 621     -51.621 147.134  11.917  1.00 40.88     0.123 C 
HETATM   26  C24 VFQ A 621     -50.311 146.740  12.573  1.00 40.88     0.066 C 
HETATM   27  C25 VFQ A 621     -49.333 146.412  11.479  1.00 40.88    -0.074 C 
HETATM   28  C26 VFQ A 621     -49.672 145.613  10.460  1.00 40.88    -0.048 C 
HETATM   29  C27 VFQ A 621     -48.644 145.187   9.470  1.00 40.88     0.009 C 
HETATM   30  C28 VFQ A 621     -47.973 144.040   9.584  1.00 40.88     0.007 C 
HETATM   31  C29 VFQ A 621     -46.936 143.570   8.610  1.00 26.46    -0.062 C 
HETATM   32  C30 VFQ A 621     -46.301 142.405   8.874  1.00 24.31     0.007 C 
HETATM   33  C31 VFQ A 621     -45.271 141.773   8.080  1.00 21.85     0.001 C 
HETATM   34  C32 VFQ A 621     -44.597 140.712   8.584  1.00 20.83     0.007 C 
HETATM   35  C33 VFQ A 621     -43.477 139.936   8.024  1.00 21.05    -0.062 C 
HETATM   36  C34 VFQ A 621     -42.924 138.982   8.804  1.00 19.63     0.007 C 
HETATM   37  C35 VFQ A 621     -41.790 138.149   8.492  1.00 20.78     0.001 C 
HETATM   38  C36 VFQ A 621     -51.390 145.197   8.790  1.00 40.88     0.020 C 
HETATM   39  C37 VFQ A 621     -51.311 143.724  10.771  1.00 40.88     0.020 C 
HETATM   40  C38 VFQ A 621     -47.981 147.048  11.552  1.00 40.88     0.044 C 
HETATM   41  C39 VFQ A 621     -46.612 144.457   7.440  1.00 25.84     0.048 C 
HETATM   42  C40 VFQ A 621     -42.975 140.306   6.656  1.00 18.97     0.048 C 
HETATM   43  O23 VFQ A 621     -52.599 147.356  12.939  1.00 40.88    -0.395 OA
ATOM     44  H23 VFQ A 621     -53.420 147.603  12.528  1.00  0.00     0.210 HD
ENDROOT
TORSDOF 12
