REMARK VINA RESULT:    -7.249      0.725     17.088
REMARK INTER + INTRA:         -10.316
REMARK INTER:                  -7.806
REMARK INTRA:                  -2.510
REMARK UNBOUND:                -3.067
REMARK  0 active torsions:
REMARK  status: ('A' for Active; 'I' for Inactive)
REMARK       I    between atoms: C3_3  and  O3_21 
REMARK       I    between atoms: C6_6  and  C7_7 
REMARK       I    between atoms: C8_8  and  C9_9 
REMARK       I    between atoms: C10_10  and  C11_11 
REMARK       I    between atoms: C12_12  and  C13_13 
REMARK       I    between atoms: C14_14  and  C15_15 
REMARK       I    between atoms: C23_25  and  O23_43 
REMARK       I    between atoms: C26_28  and  C27_29 
REMARK       I    between atoms: C28_30  and  C29_31 
REMARK       I    between atoms: C30_32  and  C31_33 
REMARK       I    between atoms: C32_34  and  C33_35 
REMARK       I    between atoms: C34_36  and  C35_37 
ROOT
HETATM    1  C1  VFQ A 621     -34.636 127.292   6.120  1.00 21.58    -0.018 C 
HETATM    2  C2  VFQ A 621     -34.186 126.619   4.806  1.00 21.20     0.045 C 
HETATM    3  C3  VFQ A 621     -32.856 127.011   4.155  1.00 20.61     0.123 C 
HETATM    4  C4  VFQ A 621     -31.951 127.924   4.999  1.00 19.82     0.066 C 
HETATM    5  C5  VFQ A 621     -32.473 128.649   6.201  1.00 19.81    -0.074 C 
HETATM    6  C6  VFQ A 621     -33.705 128.391   6.767  1.00 19.95    -0.048 C 
HETATM    7  C7  VFQ A 621     -34.239 129.079   7.979  1.00 17.10     0.009 C 
HETATM    8  C8  VFQ A 621     -34.812 130.303   7.971  1.00 17.58     0.007 C 
HETATM    9  C9  VFQ A 621     -35.367 131.098   9.072  1.00 19.11    -0.062 C 
HETATM   10  C10 VFQ A 621     -36.006 132.247   8.755  1.00 18.37     0.007 C 
HETATM   11  C11 VFQ A 621     -36.697 133.110   9.672  1.00 18.85     0.001 C 
HETATM   12  C12 VFQ A 621     -37.400 134.191   9.284  1.00 19.83     0.007 C 
HETATM   13  C13 VFQ A 621     -38.222 135.057  10.155  1.00 21.26    -0.062 C 
HETATM   14  C14 VFQ A 621     -38.901 136.074   9.578  1.00 20.79     0.007 C 
HETATM   15  C15 VFQ A 621     -39.800 137.009  10.210  1.00 20.26     0.001 C 
HETATM   16  C16 VFQ A 621     -34.788 126.080   7.068  1.00 19.38     0.020 C 
HETATM   17  C17 VFQ A 621     -36.045 127.872   5.858  1.00 19.65     0.020 C 
HETATM   18  C18 VFQ A 621     -31.429 129.600   6.661  1.00 20.06     0.044 C 
HETATM   19  C19 VFQ A 621     -35.266 130.544  10.466  1.00 17.70     0.048 C 
HETATM   20  C20 VFQ A 621     -38.282 134.720  11.618  1.00 18.78     0.048 C 
HETATM   21  O3  VFQ A 621     -32.142 125.851   3.757  1.00 18.88    -0.395 OA
ATOM     22  H3  VFQ A 621     -32.701 125.287   3.235  1.00  0.00     0.210 HD
HETATM   23  C21 VFQ A 621     -47.973 146.355  13.388  1.00 37.79    -0.018 C 
HETATM   24  C22 VFQ A 621     -48.640 146.903  14.638  1.00 37.79     0.045 C 
HETATM   25  C23 VFQ A 621     -47.827 147.879  15.455  1.00 37.79     0.123 C 
HETATM   26  C24 VFQ A 621     -46.460 147.301  15.710  1.00 37.79     0.066 C 
HETATM   27  C25 VFQ A 621     -45.780 146.861  14.450  1.00 37.79    -0.074 C 
HETATM   28  C26 VFQ A 621     -46.458 146.355  13.409  1.00 37.79    -0.048 C 
HETATM   29  C27 VFQ A 621     -45.750 145.817  12.216  1.00 37.79     0.009 C 
HETATM   30  C28 VFQ A 621     -45.242 144.583  12.153  1.00 37.79     0.007 C 
HETATM   31  C29 VFQ A 621     -44.542 144.037  10.950  1.00 26.46    -0.062 C 
HETATM   32  C30 VFQ A 621     -44.034 142.785  11.032  1.00 24.31     0.007 C 
HETATM   33  C31 VFQ A 621     -43.320 142.063  10.004  1.00 21.85     0.001 C 
HETATM   34  C32 VFQ A 621     -42.704 140.897  10.312  1.00 20.83     0.007 C 
HETATM   35  C33 VFQ A 621     -41.868 140.008   9.486  1.00 21.05    -0.062 C 
HETATM   36  C34 VFQ A 621     -41.289 138.950  10.094  1.00 19.63     0.007 C 
HETATM   37  C35 VFQ A 621     -40.390 137.990   9.503  1.00 20.78     0.001 C 
HETATM   38  C36 VFQ A 621     -48.369 147.222  12.216  1.00 37.79     0.020 C 
HETATM   39  C37 VFQ A 621     -48.565 144.970  13.172  1.00 37.79     0.020 C 
HETATM   40  C38 VFQ A 621     -44.293 147.042  14.449  1.00 37.79     0.044 C 
HETATM   41  C39 VFQ A 621     -44.379 144.931   9.753  1.00 25.84     0.048 C 
HETATM   42  C40 VFQ A 621     -41.654 140.378   8.045  1.00 18.97     0.048 C 
HETATM   43  O23 VFQ A 621     -48.460 148.035  16.724  1.00 37.79    -0.395 OA
ATOM     44  H23 VFQ A 621     -49.323 148.399  16.563  1.00  0.00     0.210 HD
ENDROOT
TORSDOF 12
