REMARK VINA RESULT:   -11.519      0.936     16.043
REMARK INTER + INTRA:         -11.509
REMARK INTER:                  -9.117
REMARK INTRA:                  -2.392
REMARK UNBOUND:                 0.009
REMARK  0 active torsions:
REMARK  status: ('A' for Active; 'I' for Inactive)
REMARK       I    between atoms: C3_3  and  O3_21 
REMARK       I    between atoms: C6_6  and  C7_7 
REMARK       I    between atoms: C8_8  and  C9_9 
REMARK       I    between atoms: C10_10  and  C11_11 
REMARK       I    between atoms: C12_12  and  C13_13 
REMARK       I    between atoms: C14_14  and  C15_15 
REMARK       I    between atoms: C23_25  and  O23_43 
REMARK       I    between atoms: C26_28  and  C27_29 
REMARK       I    between atoms: C28_30  and  C29_31 
REMARK       I    between atoms: C30_32  and  C31_33 
REMARK       I    between atoms: C32_34  and  C33_35 
REMARK       I    between atoms: C34_36  and  C35_37 
ROOT
HETATM    1  C1  VFQ V1620     -34.273 127.205   6.666  1.00 15.23    -0.018 C 
HETATM    2  C2  VFQ V1620     -34.104 127.272   5.161  1.00 15.23     0.045 C 
HETATM    3  C3  VFQ V1620     -33.223 128.393   4.675  1.00 15.23     0.123 C 
HETATM    4  C4  VFQ V1620     -31.980 128.394   5.515  1.00 15.23     0.066 C 
HETATM    5  C5  VFQ V1620     -32.318 128.669   6.948  1.00 15.23    -0.074 C 
HETATM    6  C6  VFQ V1620     -33.460 128.199   7.456  1.00 15.23    -0.048 C 
HETATM    7  C7  VFQ V1620     -34.110 128.829   8.609  1.00 15.23     0.009 C 
HETATM    8  C8  VFQ V1620     -34.319 130.134   8.412  1.00 15.23     0.007 C 
HETATM    9  C9  VFQ V1620     -35.138 130.935   9.341  1.00 15.23    -0.062 C 
HETATM   10  C10 VFQ V1620     -35.565 132.126   8.899  1.00 15.23     0.007 C 
HETATM   11  C11 VFQ V1620     -36.489 132.976   9.639  1.00 15.23     0.001 C 
HETATM   12  C12 VFQ V1620     -37.054 134.004   9.026  1.00 15.23     0.007 C 
HETATM   13  C13 VFQ V1620     -38.070 134.830   9.692  1.00 15.23    -0.062 C 
HETATM   14  C14 VFQ V1620     -38.742 135.702   8.935  1.00 15.23     0.007 C 
HETATM   15  C15 VFQ V1620     -39.816 136.559   9.426  1.00 15.23     0.001 C 
HETATM   16  C16 VFQ V1620     -33.743 125.850   7.094  1.00 15.23     0.020 C 
HETATM   17  C17 VFQ V1620     -35.752 127.338   6.982  1.00 15.23     0.020 C 
HETATM   18  C18 VFQ V1620     -31.484 129.740   7.585  1.00 15.23     0.044 C 
HETATM   19  C19 VFQ V1620     -35.497 130.387  10.692  1.00 15.23     0.048 C 
HETATM   20  C20 VFQ V1620     -38.334 134.627  11.146  1.00 15.23     0.048 C 
HETATM   21  O3  VFQ V1620     -32.818 128.127   3.337  1.00 15.23    -0.395 OA
ATOM     22  H3  VFQ V1620     -32.263 128.834   3.032  1.00  0.00     0.210 HD
HETATM   23  C21 VFQ V1620     -49.539 143.718  10.399  1.00 46.63    -0.018 C 
HETATM   24  C22 VFQ V1620     -50.545 144.399  11.324  1.00 46.63     0.045 C 
HETATM   25  C23 VFQ V1620     -49.947 145.435  12.266  1.00 46.63     0.123 C 
HETATM   26  C24 VFQ V1620     -48.557 144.997  12.692  1.00 46.63     0.066 C 
HETATM   27  C25 VFQ V1620     -47.699 144.964  11.458  1.00 46.63    -0.074 C 
HETATM   28  C26 VFQ V1620     -48.209 144.422  10.347  1.00 46.63    -0.048 C 
HETATM   29  C27 VFQ V1620     -47.358 144.185   9.183  1.00 46.63     0.009 C 
HETATM   30  C28 VFQ V1620     -46.492 143.222   9.521  1.00 46.63     0.007 C 
HETATM   31  C29 VFQ V1620     -45.572 142.617   8.548  1.00 15.23    -0.062 C 
HETATM   32  C30 VFQ V1620     -44.864 141.585   9.014  1.00 15.23     0.007 C 
HETATM   33  C31 VFQ V1620     -43.892 140.817   8.258  1.00 15.23     0.001 C 
HETATM   34  C32 VFQ V1620     -43.231 139.868   8.909  1.00 15.23     0.007 C 
HETATM   35  C33 VFQ V1620     -42.196 139.057   8.264  1.00 15.23    -0.062 C 
HETATM   36  C34 VFQ V1620     -41.519 138.201   9.042  1.00 15.23     0.007 C 
HETATM   37  C35 VFQ V1620     -40.443 137.344   8.567  1.00 15.23     0.001 C 
HETATM   38  C36 VFQ V1620     -50.101 143.657   8.985  1.00 46.63     0.020 C 
HETATM   39  C37 VFQ V1620     -49.267 142.306  10.900  1.00 46.63     0.020 C 
HETATM   40  C38 VFQ V1620     -46.349 145.627  11.521  1.00 46.63     0.044 C 
HETATM   41  C39 VFQ V1620     -45.514 143.128   7.143  1.00 15.23     0.048 C 
HETATM   42  C40 VFQ V1620     -41.949 139.253   6.805  1.00 15.23     0.048 C 
HETATM   43  O23 VFQ V1620     -50.774 145.564  13.427  1.00 46.63    -0.395 OA
ATOM     44  H23 VFQ V1620     -51.644 145.837  13.160  1.00  0.00     0.210 HD
ENDROOT
TORSDOF 12
