REMARK VINA RESULT:    -4.394      1.377     16.533
REMARK INTER + INTRA:          -9.087
REMARK INTER:                  -8.431
REMARK INTRA:                  -0.655
REMARK UNBOUND:                -4.693
REMARK  0 active torsions:
REMARK  status: ('A' for Active; 'I' for Inactive)
REMARK       I    between atoms: C3_3  and  O3_21 
REMARK       I    between atoms: C6_6  and  C7_7 
REMARK       I    between atoms: C8_8  and  C9_9 
REMARK       I    between atoms: C10_10  and  C11_11 
REMARK       I    between atoms: C12_12  and  C13_13 
REMARK       I    between atoms: C14_14  and  C15_15 
REMARK       I    between atoms: C23_25  and  O23_43 
REMARK       I    between atoms: C26_28  and  C27_29 
REMARK       I    between atoms: C28_30  and  C29_31 
REMARK       I    between atoms: C30_32  and  C31_33 
REMARK       I    between atoms: C32_34  and  C33_35 
REMARK       I    between atoms: C34_36  and  C35_37 
ROOT
HETATM    1  C1  VFQ Z 617     -49.489 144.448  12.327  1.00 32.73    -0.018 C 
HETATM    2  C2  VFQ Z 617     -50.593 145.067  13.164  1.00 32.73     0.045 C 
HETATM    3  C3  VFQ Z 617     -50.044 145.707  14.417  1.00 32.73     0.123 C 
HETATM    4  C4  VFQ Z 617     -49.117 146.838  14.035  1.00 32.73     0.066 C 
HETATM    5  C5  VFQ Z 617     -48.112 146.435  12.986  1.00 32.73    -0.074 C 
HETATM    6  C6  VFQ Z 617     -48.272 145.358  12.187  1.00 32.73    -0.048 C 
HETATM    7  C7  VFQ Z 617     -47.284 145.077  11.105  1.00 32.73     0.009 C 
HETATM    8  C8  VFQ Z 617     -46.157 144.375  11.293  1.00 32.73     0.007 C 
HETATM    9  C9  VFQ Z 617     -45.187 144.094  10.226  1.00 32.73    -0.062 C 
HETATM   10  C10 VFQ Z 617     -44.377 143.055  10.439  1.00 32.73     0.007 C 
HETATM   11  C11 VFQ Z 617     -43.353 142.575   9.525  1.00 32.73     0.001 C 
HETATM   12  C12 VFQ Z 617     -42.762 141.473   9.967  1.00 32.73     0.007 C 
HETATM   13  C13 VFQ Z 617     -41.721 140.719   9.262  1.00 32.73    -0.062 C 
HETATM   14  C14 VFQ Z 617     -41.336 139.580   9.843  1.00 32.73     0.007 C 
HETATM   15  C15 VFQ Z 617     -40.353 138.683   9.266  1.00 32.73     0.001 C 
HETATM   16  C16 VFQ Z 617     -50.150 144.057  11.008  1.00 32.73     0.020 C 
HETATM   17  C17 VFQ Z 617     -49.008 143.175  13.001  1.00 32.73     0.020 C 
HETATM   18  C18 VFQ Z 617     -46.955 147.385  12.857  1.00 32.73     0.044 C 
HETATM   19  C19 VFQ Z 617     -45.102 144.942   8.993  1.00 32.73     0.048 C 
HETATM   20  C20 VFQ Z 617     -41.149 141.178   7.954  1.00 32.73     0.048 C 
HETATM   21  O3  VFQ Z 617     -51.117 146.236  15.199  1.00 32.73    -0.395 OA
ATOM     22  H3  VFQ Z 617     -50.771 146.639  15.987  1.00  0.00     0.210 HD
HETATM   23  C21 VFQ Z 617     -34.289 128.413   6.386  1.00 32.28    -0.018 C 
HETATM   24  C22 VFQ Z 617     -33.355 127.628   5.482  1.00 32.10     0.045 C 
HETATM   25  C23 VFQ Z 617     -31.876 127.719   5.783  1.00 30.03     0.123 C 
HETATM   26  C24 VFQ Z 617     -31.442 129.124   6.097  1.00 27.01     0.066 C 
HETATM   27  C25 VFQ Z 617     -32.298 129.736   7.160  1.00 26.85    -0.074 C 
HETATM   28  C26 VFQ Z 617     -33.585 129.388   7.324  1.00 32.38    -0.048 C 
HETATM   29  C27 VFQ Z 617     -34.357 129.957   8.456  1.00 31.45     0.009 C 
HETATM   30  C28 VFQ Z 617     -35.081 131.064   8.301  1.00 30.07     0.007 C 
HETATM   31  C29 VFQ Z 617     -35.862 131.679   9.371  1.00 32.73    -0.062 C 
HETATM   32  C30 VFQ Z 617     -36.737 132.607   8.989  1.00 32.73     0.007 C 
HETATM   33  C31 VFQ Z 617     -37.631 133.339   9.868  1.00 32.73     0.001 C 
HETATM   34  C32 VFQ Z 617     -38.059 134.474   9.336  1.00 32.73     0.007 C 
HETATM   35  C33 VFQ Z 617     -38.975 135.412   9.991  1.00 32.73    -0.062 C 
HETATM   36  C34 VFQ Z 617     -39.335 136.494   9.295  1.00 32.73     0.007 C 
HETATM   37  C35 VFQ Z 617     -40.259 137.484   9.824  1.00 32.73     0.001 C 
HETATM   38  C36 VFQ Z 617     -35.059 127.424   7.247  1.00 30.09     0.020 C 
HETATM   39  C37 VFQ Z 617     -35.261 129.097   5.429  1.00 35.00     0.020 C 
HETATM   40  C38 VFQ Z 617     -31.607 130.767   7.999  1.00 25.72     0.044 C 
HETATM   41  C39 VFQ Z 617     -35.694 131.282  10.806  1.00 32.73     0.048 C 
HETATM   42  C40 VFQ Z 617     -39.473 135.164  11.382  1.00 32.73     0.048 C 
HETATM   43  O23 VFQ Z 617     -31.155 127.310   4.618  1.00 33.60    -0.395 OA
ATOM     44  H23 VFQ Z 617     -30.226 127.368   4.808  1.00  0.00     0.210 HD
ENDROOT
TORSDOF 12
