REMARK VINA RESULT:   -10.929      0.000      0.000
REMARK INTER + INTRA:         -11.396
REMARK INTER:                 -10.929
REMARK INTRA:                  -0.467
REMARK UNBOUND:                -0.467
REMARK  0 active torsions:
REMARK  status: ('A' for Active; 'I' for Inactive)
REMARK       I    between atoms: C3_3  and  O3_21 
REMARK       I    between atoms: C6_6  and  C7_7 
REMARK       I    between atoms: C8_8  and  C9_9 
REMARK       I    between atoms: C10_10  and  C11_11 
REMARK       I    between atoms: C12_12  and  C13_13 
REMARK       I    between atoms: C14_14  and  C15_15 
REMARK       I    between atoms: C23_25  and  O23_43 
REMARK       I    between atoms: C26_28  and  C27_29 
REMARK       I    between atoms: C28_30  and  C29_31 
REMARK       I    between atoms: C30_32  and  C31_33 
REMARK       I    between atoms: C32_34  and  C33_35 
REMARK       I    between atoms: C34_36  and  C35_37 
ROOT
HETATM    1  C1  VFQ 51621     -34.206 128.348   6.993  1.00 87.69    -0.018 C 
HETATM    2  C2  VFQ 51621     -33.495 127.950   5.713  1.00 87.69     0.045 C 
HETATM    3  C3  VFQ 51621     -31.971 127.995   5.736  1.00 87.69     0.123 C 
HETATM    4  C4  VFQ 51621     -31.366 129.025   6.680  1.00 87.69     0.066 C 
HETATM    5  C5  VFQ 51621     -32.378 129.983   7.252  1.00 87.69    -0.074 C 
HETATM    6  C6  VFQ 51621     -33.595 129.578   7.607  1.00 87.69    -0.048 C 
HETATM    7  C7  VFQ 51621     -34.367 130.303   8.643  1.00 87.69     0.009 C 
HETATM    8  C8  VFQ 51621     -35.055 131.398   8.340  1.00 87.69     0.007 C 
HETATM    9  C9  VFQ 51621     -35.850 132.133   9.335  1.00 87.69    -0.062 C 
HETATM   10  C10 VFQ 51621     -36.739 133.002   8.864  1.00 87.69     0.007 C 
HETATM   11  C11 VFQ 51621     -37.643 133.820   9.657  1.00 87.69     0.001 C 
HETATM   12  C12 VFQ 51621     -38.262 134.788   8.991  1.00 87.69     0.007 C 
HETATM   13  C13 VFQ 51621     -39.247 135.683   9.615  1.00 87.69    -0.062 C 
HETATM   14  C14 VFQ 51621     -39.891 136.549   8.829  1.00 87.69     0.007 C 
HETATM   15  C15 VFQ 51621     -40.918 137.432   9.355  1.00 87.69     0.001 C 
HETATM   16  C16 VFQ 51621     -34.235 127.187   7.982  1.00 87.69     0.020 C 
HETATM   17  C17 VFQ 51621     -35.633 128.688   6.622  1.00 87.69     0.020 C 
HETATM   18  C18 VFQ 51621     -31.539 130.817   8.169  1.00 87.69     0.044 C 
HETATM   19  C19 VFQ 51621     -35.662 131.917  10.802  1.00 87.69     0.048 C 
HETATM   20  C20 VFQ 51621     -39.541 135.606  11.080  1.00 87.69     0.048 C 
HETATM   21  O3  VFQ 51621     -31.517 126.705   6.139  1.00 87.69    -0.395 OA
ATOM     22  H3  VFQ 51621     -30.567 126.732   6.152  1.00  0.00     0.210 HD
HETATM   23  C21 VFQ 51621     -50.666 145.398   9.711  1.00 94.67    -0.018 C 
HETATM   24  C22 VFQ 51621     -51.793 146.200  10.349  1.00 94.67     0.045 C 
HETATM   25  C23 VFQ 51621     -51.383 147.302  11.303  1.00 94.67     0.123 C 
HETATM   26  C24 VFQ 51621     -50.295 146.787  12.207  1.00 94.67     0.066 C 
HETATM   27  C25 VFQ 51621     -49.112 146.374  11.389  1.00 94.67    -0.074 C 
HETATM   28  C26 VFQ 51621     -49.280 145.719  10.238  1.00 94.67    -0.048 C 
HETATM   29  C27 VFQ 51621     -48.112 145.296   9.428  1.00 94.67     0.009 C 
HETATM   30  C28 VFQ 51621     -47.523 144.119   9.632  1.00 94.67     0.007 C 
HETATM   31  C29 VFQ 51621     -46.386 143.658   8.844  1.00 87.69    -0.062 C 
HETATM   32  C30 VFQ 51621     -46.052 142.379   8.972  1.00 87.69     0.007 C 
HETATM   33  C31 VFQ 51621     -44.968 141.741   8.250  1.00 87.69     0.001 C 
HETATM   34  C32 VFQ 51621     -44.295 140.825   8.925  1.00 87.69     0.007 C 
HETATM   35  C33 VFQ 51621     -43.194 140.063   8.332  1.00 87.69    -0.062 C 
HETATM   36  C34 VFQ 51621     -42.607 139.109   9.061  1.00 87.69     0.007 C 
HETATM   37  C35 VFQ 51621     -41.540 138.270   8.537  1.00 87.69     0.001 C 
HETATM   38  C36 VFQ 51621     -50.663 145.712   8.222  1.00 94.67     0.020 C 
HETATM   39  C37 VFQ 51621     -51.015 143.930   9.936  1.00 94.67     0.020 C 
HETATM   40  C38 VFQ 51621     -47.763 146.742  11.932  1.00 94.67     0.044 C 
HETATM   41  C39 VFQ 51621     -45.650 144.580   7.929  1.00 87.69     0.048 C 
HETATM   42  C40 VFQ 51621     -42.777 140.354   6.932  1.00 87.69     0.048 C 
HETATM   43  O23 VFQ 51621     -52.507 147.647  12.112  1.00 94.67    -0.395 OA
ATOM     44  H23 VFQ 51621     -53.193 147.972  11.541  1.00  0.00     0.210 HD
ENDROOT
TORSDOF 12
