REMARK VINA RESULT:    -9.365      0.000      0.000
REMARK INTER + INTRA:         -11.494
REMARK INTER:                  -9.365
REMARK INTRA:                  -2.128
REMARK UNBOUND:                -2.128
REMARK  0 active torsions:
REMARK  status: ('A' for Active; 'I' for Inactive)
REMARK       I    between atoms: C3_3  and  O3_21 
REMARK       I    between atoms: C6_6  and  C7_7 
REMARK       I    between atoms: C8_8  and  C9_9 
REMARK       I    between atoms: C10_10  and  C11_11 
REMARK       I    between atoms: C12_12  and  C13_13 
REMARK       I    between atoms: C14_14  and  C15_15 
REMARK       I    between atoms: C23_25  and  O23_43 
REMARK       I    between atoms: C26_28  and  C27_29 
REMARK       I    between atoms: C28_30  and  C29_31 
REMARK       I    between atoms: C30_32  and  C31_33 
REMARK       I    between atoms: C32_34  and  C33_35 
REMARK       I    between atoms: C34_36  and  C35_37 
ROOT
HETATM    1  C1  VFQ A 620     -49.492 144.395  12.943  1.00 22.96    -0.018 C 
HETATM    2  C2  VFQ A 620     -49.976 145.253  14.134  1.00 23.40     0.045 C 
HETATM    3  C3  VFQ A 620     -49.141 146.457  14.564  1.00 22.69     0.123 C 
HETATM    4  C4  VFQ A 620     -48.351 147.106  13.428  1.00 22.06     0.066 C 
HETATM    5  C5  VFQ A 620     -47.832 146.243  12.327  1.00 21.38    -0.074 C 
HETATM    6  C6  VFQ A 620     -48.337 144.985  12.073  1.00 22.58    -0.048 C 
HETATM    7  C7  VFQ A 620     -47.811 144.159  10.967  1.00 22.00     0.009 C 
HETATM    8  C8  VFQ A 620     -46.668 143.445  10.942  1.00 20.93     0.007 C 
HETATM    9  C9  VFQ A 620     -46.108 142.750   9.782  1.00 21.87    -0.062 C 
HETATM   10  C10 VFQ A 620     -45.006 141.989   9.967  1.00 20.24     0.007 C 
HETATM   11  C11 VFQ A 620     -44.314 141.218   8.964  1.00 21.04     0.001 C 
HETATM   12  C12 VFQ A 620     -43.356 140.350   9.323  1.00 22.18     0.007 C 
HETATM   13  C13 VFQ A 620     -42.553 139.435   8.500  1.00 24.17    -0.062 C 
HETATM   14  C14 VFQ A 620     -41.734 138.582   9.155  1.00 25.88     0.007 C 
HETATM   15  C15 VFQ A 620     -40.906 137.538   8.621  1.00 26.51     0.001 C 
HETATM   16  C16 VFQ A 620     -50.759 144.213  12.086  1.00 20.65     0.020 C 
HETATM   17  C17 VFQ A 620     -49.098 143.014  13.499  1.00 21.73     0.020 C 
HETATM   18  C18 VFQ A 620     -46.761 147.005  11.628  1.00 21.05     0.044 C 
HETATM   19  C19 VFQ A 620     -46.831 142.890   8.470  1.00 19.19     0.048 C 
HETATM   20  C20 VFQ A 620     -42.748 139.451   7.013  1.00 21.80     0.048 C 
HETATM   21  O3  VFQ A 620     -49.959 147.425  15.205  1.00 22.00    -0.395 OA
ATOM     22  H3  VFQ A 620     -49.439 148.174  15.472  1.00  0.00     0.210 HD
HETATM   23  C21 VFQ A 620     -34.475 126.885   6.377  1.00 19.54    -0.018 C 
HETATM   24  C22 VFQ A 620     -33.876 126.084   5.224  1.00 19.54     0.045 C 
HETATM   25  C23 VFQ A 620     -32.477 126.425   4.750  1.00 19.54     0.123 C 
HETATM   26  C24 VFQ A 620     -32.332 127.921   4.636  1.00 19.54     0.066 C 
HETATM   27  C25 VFQ A 620     -32.733 128.606   5.918  1.00 19.54    -0.074 C 
HETATM   28  C26 VFQ A 620     -33.781 128.205   6.658  1.00 19.54    -0.048 C 
HETATM   29  C27 VFQ A 620     -34.257 129.027   7.811  1.00 19.54     0.009 C 
HETATM   30  C28 VFQ A 620     -35.122 130.043   7.694  1.00 19.54     0.007 C 
HETATM   31  C29 VFQ A 620     -35.622 130.879   8.826  1.00 37.91    -0.062 C 
HETATM   32  C30 VFQ A 620     -36.487 131.873   8.530  1.00 37.54     0.007 C 
HETATM   33  C31 VFQ A 620     -37.102 132.800   9.445  1.00 35.36     0.001 C 
HETATM   34  C32 VFQ A 620     -37.928 133.763   8.989  1.00 32.59     0.007 C 
HETATM   35  C33 VFQ A 620     -38.644 134.819   9.721  1.00 30.48    -0.062 C 
HETATM   36  C34 VFQ A 620     -39.404 135.670   8.998  1.00 28.06     0.007 C 
HETATM   37  C35 VFQ A 620     -40.201 136.767   9.465  1.00 27.79     0.001 C 
HETATM   38  C36 VFQ A 620     -34.378 126.062   7.653  1.00 19.54     0.020 C 
HETATM   39  C37 VFQ A 620     -35.948 127.068   6.032  1.00 19.54     0.020 C 
HETATM   40  C38 VFQ A 620     -31.876 129.761   6.329  1.00 19.54     0.044 C 
HETATM   41  C39 VFQ A 620     -35.134 130.580  10.214  1.00 38.40     0.048 C 
HETATM   42  C40 VFQ A 620     -38.477 134.882  11.217  1.00 28.72     0.048 C 
HETATM   43  O23 VFQ A 620     -32.283 125.856   3.453  1.00 19.54    -0.395 OA
ATOM     44  H23 VFQ A 620     -31.406 126.069   3.156  1.00  0.00     0.210 HD
ENDROOT
TORSDOF 12
