REMARK VINA RESULT:    -8.576      0.919      1.262
REMARK INTER + INTRA:          -8.965
REMARK INTER:                  -7.347
REMARK INTRA:                  -1.618
REMARK UNBOUND:                -0.389
REMARK  0 active torsions:
REMARK  status: ('A' for Active; 'I' for Inactive)
REMARK       I    between atoms: C3_3  and  O3_21 
REMARK       I    between atoms: C6_6  and  C7_7 
REMARK       I    between atoms: C8_8  and  C9_9 
REMARK       I    between atoms: C10_10  and  C11_11 
REMARK       I    between atoms: C12_12  and  C13_13 
REMARK       I    between atoms: C14_14  and  C15_15 
REMARK       I    between atoms: C23_25  and  O23_43 
REMARK       I    between atoms: C26_28  and  C27_29 
REMARK       I    between atoms: C28_30  and  C29_31 
REMARK       I    between atoms: C30_32  and  C31_33 
REMARK       I    between atoms: C32_34  and  C33_35 
REMARK       I    between atoms: C34_36  and  C35_37 
ROOT
HETATM    1  C1  VFQ F5621     -34.596 127.489   6.606  1.00 20.77    -0.018 C 
HETATM    2  C2  VFQ F5621     -34.132 126.799   5.313  1.00 19.21     0.045 C 
HETATM    3  C3  VFQ F5621     -32.773 127.134   4.704  1.00 20.68     0.123 C 
HETATM    4  C4  VFQ F5621     -31.955 128.198   5.445  1.00 17.77     0.066 C 
HETATM    5  C5  VFQ F5621     -32.547 128.997   6.561  1.00 19.05    -0.074 C 
HETATM    6  C6  VFQ F5621     -33.771 128.707   7.134  1.00 19.48    -0.048 C 
HETATM    7  C7  VFQ F5621     -34.401 129.483   8.237  1.00 16.56     0.009 C 
HETATM    8  C8  VFQ F5621     -35.071 130.656   8.086  1.00 15.55     0.007 C 
HETATM    9  C9  VFQ F5621     -35.691 131.514   9.109  1.00 14.22    -0.062 C 
HETATM   10  C10 VFQ F5621     -36.416 132.573   8.684  1.00 14.29     0.007 C 
HETATM   11  C11 VFQ F5621     -37.177 133.488   9.499  1.00 14.32     0.001 C 
HETATM   12  C12 VFQ F5621     -37.958 134.457   8.963  1.00 14.19     0.007 C 
HETATM   13  C13 VFQ F5621     -38.867 135.397   9.674  1.00 15.26    -0.062 C 
HETATM   14  C14 VFQ F5621     -39.595 136.261   8.931  1.00 15.45     0.007 C 
HETATM   15  C15 VFQ F5621     -40.574 137.211   9.404  1.00 16.70     0.001 C 
HETATM   16  C16 VFQ F5621     -34.581 126.349   7.655  1.00 20.67     0.020 C 
HETATM   17  C17 VFQ F5621     -36.067 127.891   6.368  1.00 19.98     0.020 C 
HETATM   18  C18 VFQ F5621     -31.605 130.095   6.912  1.00 17.40     0.044 C 
HETATM   19  C19 VFQ F5621     -35.545 131.109  10.543  1.00 13.40     0.048 C 
HETATM   20  C20 VFQ F5621     -38.949 135.302  11.170  1.00 11.87     0.048 C 
HETATM   21  O3  VFQ F5621     -32.003 125.949   4.522  1.00 20.33    -0.395 OA
ATOM     22  H3  VFQ F5621     -31.157 126.157   4.143  1.00  0.00     0.210 HD
HETATM   23  C21 VFQ F5621     -49.422 146.759  11.070  1.00 27.99    -0.018 C 
HETATM   24  C22 VFQ F5621     -50.359 147.312  12.154  1.00 27.99     0.045 C 
HETATM   25  C23 VFQ F5621     -49.850 147.183  13.584  1.00 27.99     0.123 C 
HETATM   26  C24 VFQ F5621     -49.203 145.821  13.746  1.00 27.99     0.066 C 
HETATM   27  C25 VFQ F5621     -47.984 145.849  12.872  1.00 27.99    -0.074 C 
HETATM   28  C26 VFQ F5621     -48.120 146.156  11.576  1.00 27.99    -0.048 C 
HETATM   29  C27 VFQ F5621     -47.135 145.726  10.559  1.00 27.99     0.009 C 
HETATM   30  C28 VFQ F5621     -46.578 144.516  10.699  1.00 27.99     0.007 C 
HETATM   31  C29 VFQ F5621     -45.767 143.908   9.585  1.00 22.13    -0.062 C 
HETATM   32  C30 VFQ F5621     -45.207 142.703   9.827  1.00 22.11     0.007 C 
HETATM   33  C31 VFQ F5621     -44.397 141.935   8.907  1.00 21.40     0.001 C 
HETATM   34  C32 VFQ F5621     -43.720 140.830   9.292  1.00 17.66     0.007 C 
HETATM   35  C33 VFQ F5621     -42.821 139.978   8.499  1.00 16.53    -0.062 C 
HETATM   36  C34 VFQ F5621     -42.171 138.987   9.147  1.00 14.90     0.007 C 
HETATM   37  C35 VFQ F5621     -41.212 138.067   8.598  1.00 15.48     0.001 C 
HETATM   38  C36 VFQ F5621     -49.177 147.859  10.040  1.00 27.99     0.020 C 
HETATM   39  C37 VFQ F5621     -50.128 145.573  10.410  1.00 27.99     0.020 C 
HETATM   40  C38 VFQ F5621     -46.644 145.663  13.530  1.00 27.99     0.044 C 
HETATM   41  C39 VFQ F5621     -45.563 144.675   8.316  1.00 22.70     0.048 C 
HETATM   42  C40 VFQ F5621     -42.632 140.315   7.048  1.00 12.92     0.048 C 
HETATM   43  O23 VFQ F5621     -50.932 147.335  14.512  1.00 27.99    -0.395 OA
ATOM     44  H23 VFQ F5621     -50.615 147.254  15.404  1.00  0.00     0.210 HD
ENDROOT
TORSDOF 12
