REMARK VINA RESULT:    -9.766      0.953     16.428
REMARK INTER + INTRA:         -12.162
REMARK INTER:                 -11.725
REMARK INTRA:                  -0.437
REMARK UNBOUND:                -2.396
REMARK  0 active torsions:
REMARK  status: ('A' for Active; 'I' for Inactive)
REMARK       I    between atoms: C3_3  and  O3_21 
REMARK       I    between atoms: C6_6  and  C7_7 
REMARK       I    between atoms: C8_8  and  C9_9 
REMARK       I    between atoms: C10_10  and  C11_11 
REMARK       I    between atoms: C12_12  and  C13_13 
REMARK       I    between atoms: C14_14  and  C15_15 
REMARK       I    between atoms: C23_25  and  O23_43 
REMARK       I    between atoms: C26_28  and  C27_29 
REMARK       I    between atoms: C28_30  and  C29_31 
REMARK       I    between atoms: C30_32  and  C31_33 
REMARK       I    between atoms: C32_34  and  C33_35 
REMARK       I    between atoms: C34_36  and  C35_37 
ROOT
HETATM    1  C1  VFQ s1621     -50.459 144.378  10.976  1.00 56.84    -0.018 C 
HETATM    2  C2  VFQ s1621     -51.208 144.428  12.304  1.00 56.84     0.045 C 
HETATM    3  C3  VFQ s1621     -50.598 145.249  13.434  1.00 56.84     0.123 C 
HETATM    4  C4  VFQ s1621     -49.801 146.425  12.907  1.00 56.84     0.066 C 
HETATM    5  C5  VFQ s1621     -48.772 145.917  11.939  1.00 56.84    -0.074 C 
HETATM    6  C6  VFQ s1621     -49.084 145.015  11.009  1.00 56.84    -0.048 C 
HETATM    7  C7  VFQ s1621     -48.077 144.638   9.981  1.00 56.84     0.009 C 
HETATM    8  C8  VFQ s1621     -47.275 143.584  10.140  1.00 56.84     0.007 C 
HETATM    9  C9  VFQ s1621     -46.260 143.156   9.159  1.00 56.84    -0.062 C 
HETATM   10  C10 VFQ s1621     -45.523 142.088   9.474  1.00 56.84     0.007 C 
HETATM   11  C11 VFQ s1621     -44.479 141.530   8.630  1.00 56.84     0.001 C 
HETATM   12  C12 VFQ s1621     -43.674 140.663   9.233  1.00 56.84     0.007 C 
HETATM   13  C13 VFQ s1621     -42.579 139.957   8.552  1.00 56.84    -0.062 C 
HETATM   14  C14 VFQ s1621     -41.959 138.992   9.239  1.00 56.84     0.007 C 
HETATM   15  C15 VFQ s1621     -40.889 138.182   8.680  1.00 56.84     0.001 C 
HETATM   16  C16 VFQ s1621     -51.349 145.008   9.906  1.00 56.84     0.020 C 
HETATM   17  C17 VFQ s1621     -50.262 142.919  10.623  1.00 56.84     0.020 C 
HETATM   18  C18 VFQ s1621     -47.476 146.662  11.910  1.00 56.84     0.044 C 
HETATM   19  C19 VFQ s1621     -46.041 143.881   7.869  1.00 56.84     0.048 C 
HETATM   20  C20 VFQ s1621     -42.185 140.297   7.149  1.00 56.84     0.048 C 
HETATM   21  O3  VFQ s1621     -51.655 145.757  14.256  1.00 56.84    -0.395 OA
ATOM     22  H3  VFQ s1621     -52.155 145.020  14.587  1.00  0.00     0.210 HD
HETATM   23  C21 VFQ s1621     -34.033 128.286   7.277  1.00 24.23    -0.018 C 
HETATM   24  C22 VFQ s1621     -33.287 127.576   6.169  1.00 24.23     0.045 C 
HETATM   25  C23 VFQ s1621     -31.856 128.015   6.017  1.00 24.23     0.123 C 
HETATM   26  C24 VFQ s1621     -31.904 129.495   5.764  1.00 24.23     0.066 C 
HETATM   27  C25 VFQ s1621     -32.495 130.188   6.947  1.00 24.23    -0.074 C 
HETATM   28  C26 VFQ s1621     -33.307 129.525   7.759  1.00 24.23    -0.048 C 
HETATM   29  C27 VFQ s1621     -33.812 130.166   8.967  1.00 24.23     0.009 C 
HETATM   30  C28 VFQ s1621     -34.871 130.903   8.613  1.00 24.23     0.007 C 
HETATM   31  C29 VFQ s1621     -35.662 131.705   9.559  1.00 56.84    -0.062 C 
HETATM   32  C30 VFQ s1621     -36.619 132.436   9.001  1.00 56.84     0.007 C 
HETATM   33  C31 VFQ s1621     -37.561 133.285   9.707  1.00 56.84     0.001 C 
HETATM   34  C32 VFQ s1621     -37.960 134.370   9.063  1.00 56.84     0.007 C 
HETATM   35  C33 VFQ s1621     -38.954 135.276   9.640  1.00 56.84    -0.062 C 
HETATM   36  C34 VFQ s1621     -39.349 136.340   8.931  1.00 56.84     0.007 C 
HETATM   37  C35 VFQ s1621     -40.380 137.226   9.446  1.00 56.84     0.001 C 
HETATM   38  C36 VFQ s1621     -34.158 127.336   8.457  1.00 24.23     0.020 C 
HETATM   39  C37 VFQ s1621     -35.416 128.559   6.721  1.00 24.23     0.020 C 
HETATM   40  C38 VFQ s1621     -32.100 131.615   7.147  1.00 24.23     0.044 C 
HETATM   41  C39 VFQ s1621     -35.422 131.694  11.036  1.00 56.84     0.048 C 
HETATM   42  C40 VFQ s1621     -39.538 134.968  10.984  1.00 56.84     0.048 C 
HETATM   43  O23 VFQ s1621     -31.299 127.390   4.868  1.00 24.23    -0.395 OA
ATOM     44  H23 VFQ s1621     -31.268 126.454   5.028  1.00  0.00     0.210 HD
ENDROOT
TORSDOF 12
