REMARK VINA RESULT:   -10.331      0.000      0.000
REMARK INTER + INTRA:         -12.299
REMARK INTER:                 -10.331
REMARK INTRA:                  -1.968
REMARK UNBOUND:                -1.968
REMARK  0 active torsions:
REMARK  status: ('A' for Active; 'I' for Inactive)
REMARK       I    between atoms: C3_3  and  O3_21 
REMARK       I    between atoms: C6_6  and  C7_7 
REMARK       I    between atoms: C8_8  and  C9_9 
REMARK       I    between atoms: C10_10  and  C11_11 
REMARK       I    between atoms: C12_12  and  C13_13 
REMARK       I    between atoms: C14_14  and  C15_15 
REMARK       I    between atoms: C23_25  and  O23_43 
REMARK       I    between atoms: C26_28  and  C27_29 
REMARK       I    between atoms: C28_30  and  C29_31 
REMARK       I    between atoms: C30_32  and  C31_33 
REMARK       I    between atoms: C32_34  and  C33_35 
REMARK       I    between atoms: C34_36  and  C35_37 
ROOT
HETATM    1  C1  VFQ 8 617     -48.393 145.369  12.755  1.00 16.39    -0.018 C 
HETATM    2  C2  VFQ 8 617     -49.110 145.692  14.059  1.00 16.39     0.045 C 
HETATM    3  C3  VFQ 8 617     -48.364 146.494  15.115  1.00 16.39     0.123 C 
HETATM    4  C4  VFQ 8 617     -47.360 147.448  14.509  1.00 16.39     0.066 C 
HETATM    5  C5  VFQ 8 617     -46.448 146.675  13.609  1.00 16.39    -0.074 C 
HETATM    6  C6  VFQ 8 617     -46.947 145.831  12.705  1.00 16.39    -0.048 C 
HETATM    7  C7  VFQ 8 617     -46.084 145.364  11.596  1.00 16.39     0.009 C 
HETATM    8  C8  VFQ 8 617     -45.315 144.277  11.682  1.00 16.39     0.007 C 
HETATM    9  C9  VFQ 8 617     -44.474 143.863  10.551  1.00 16.39    -0.062 C 
HETATM   10  C10 VFQ 8 617     -43.695 142.776  10.708  1.00 16.39     0.007 C 
HETATM   11  C11 VFQ 8 617     -42.786 142.183   9.729  1.00 16.39     0.001 C 
HETATM   12  C12 VFQ 8 617     -42.174 141.068  10.115  1.00 16.39     0.007 C 
HETATM   13  C13 VFQ 8 617     -41.253 140.258   9.296  1.00 16.39    -0.062 C 
HETATM   14  C14 VFQ 8 617     -40.846 139.098   9.816  1.00 16.39     0.007 C 
HETATM   15  C15 VFQ 8 617     -39.990 138.179   9.084  1.00 16.39     0.001 C 
HETATM   16  C16 VFQ 8 617     -49.223 145.973  11.630  1.00 16.39     0.020 C 
HETATM   17  C17 VFQ 8 617     -48.377 143.858  12.589  1.00 16.39     0.020 C 
HETATM   18  C18 VFQ 8 617     -45.159 147.408  13.384  1.00 16.39     0.044 C 
HETATM   19  C19 VFQ 8 617     -44.522 144.676   9.299  1.00 16.39     0.048 C 
HETATM   20  C20 VFQ 8 617     -40.816 140.671   7.927  1.00 16.39     0.048 C 
HETATM   21  O3  VFQ 8 617     -49.313 147.247  15.872  1.00 16.39    -0.395 OA
ATOM     22  H3  VFQ 8 617     -48.847 147.748  16.532  1.00  0.00     0.210 HD
HETATM   23  C21 VFQ 8 617     -34.533 126.940   6.532  1.00 47.88    -0.018 C 
HETATM   24  C22 VFQ 8 617     -34.199 126.477   5.127  1.00 47.88     0.045 C 
HETATM   25  C23 VFQ 8 617     -32.712 126.612   4.869  1.00 47.88     0.123 C 
HETATM   26  C24 VFQ 8 617     -32.343 128.084   4.891  1.00 47.88     0.066 C 
HETATM   27  C25 VFQ 8 617     -32.794 128.711   6.182  1.00 47.88    -0.074 C 
HETATM   28  C26 VFQ 8 617     -33.872 128.269   6.844  1.00 47.88    -0.048 C 
HETATM   29  C27 VFQ 8 617     -34.439 129.083   7.938  1.00 47.88     0.009 C 
HETATM   30  C28 VFQ 8 617     -35.205 130.139   7.684  1.00 47.88     0.007 C 
HETATM   31  C29 VFQ 8 617     -35.778 130.936   8.798  1.00 16.39    -0.062 C 
HETATM   32  C30 VFQ 8 617     -36.611 131.895   8.409  1.00 16.39     0.007 C 
HETATM   33  C31 VFQ 8 617     -37.319 132.789   9.305  1.00 16.39     0.001 C 
HETATM   34  C32 VFQ 8 617     -37.794 133.899   8.762  1.00 16.39     0.007 C 
HETATM   35  C33 VFQ 8 617     -38.554 134.878   9.543  1.00 16.39    -0.062 C 
HETATM   36  C34 VFQ 8 617     -38.928 136.015   8.950  1.00 16.39     0.007 C 
HETATM   37  C35 VFQ 8 617     -39.723 137.009   9.652  1.00 16.39     0.001 C 
HETATM   38  C36 VFQ 8 617     -34.037 125.910   7.537  1.00 47.88     0.020 C 
HETATM   39  C37 VFQ 8 617     -36.047 127.044   6.651  1.00 47.88     0.020 C 
HETATM   40  C38 VFQ 8 617     -31.975 129.855   6.702  1.00 47.88     0.044 C 
HETATM   41  C39 VFQ 8 617     -35.480 130.692  10.247  1.00 16.39     0.048 C 
HETATM   42  C40 VFQ 8 617     -38.888 134.579  10.970  1.00 16.39     0.048 C 
HETATM   43  O23 VFQ 8 617     -32.388 126.044   3.600  1.00 47.88    -0.395 OA
ATOM     44  H23 VFQ 8 617     -31.456 126.129   3.438  1.00  0.00     0.210 HD
ENDROOT
TORSDOF 12
