REMARK VINA RESULT:    -8.535      0.660      0.932
REMARK INTER + INTRA:         -10.774
REMARK INTER:                  -9.420
REMARK INTRA:                  -1.354
REMARK UNBOUND:                -2.239
REMARK  0 active torsions:
REMARK  status: ('A' for Active; 'I' for Inactive)
REMARK       I    between atoms: C3_3  and  O3_21 
REMARK       I    between atoms: C6_6  and  C7_7 
REMARK       I    between atoms: C8_8  and  C9_9 
REMARK       I    between atoms: C10_10  and  C11_11 
REMARK       I    between atoms: C12_12  and  C13_13 
REMARK       I    between atoms: C14_14  and  C15_15 
REMARK       I    between atoms: C23_25  and  O23_43 
REMARK       I    between atoms: C26_28  and  C27_29 
REMARK       I    between atoms: C28_30  and  C29_31 
REMARK       I    between atoms: C30_32  and  C31_33 
REMARK       I    between atoms: C32_34  and  C33_35 
REMARK       I    between atoms: C34_36  and  C35_37 
ROOT
HETATM    1  C1  VFQ 3 316     -34.275 127.618   6.932  1.00 78.71    -0.018 C 
HETATM    2  C2  VFQ 3 316     -33.731 127.148   5.580  1.00 77.73     0.045 C 
HETATM    3  C3  VFQ 3 316     -32.584 127.967   5.000  1.00 76.79     0.123 C 
HETATM    4  C4  VFQ 3 316     -31.584 128.297   6.091  1.00 76.86     0.066 C 
HETATM    5  C5  VFQ 3 316     -32.292 129.124   7.129  1.00 77.66    -0.074 C 
HETATM    6  C6  VFQ 3 316     -33.510 128.776   7.548  1.00 78.84    -0.048 C 
HETATM    7  C7  VFQ 3 316     -34.159 129.545   8.635  1.00 78.35     0.009 C 
HETATM    8  C8  VFQ 3 316     -34.745 130.708   8.358  1.00 77.95     0.007 C 
HETATM    9  C9  VFQ 3 316     -35.419 131.517   9.391  1.00 78.35    -0.062 C 
HETATM   10  C10 VFQ 3 316     -36.075 132.616   8.995  1.00 77.38     0.007 C 
HETATM   11  C11 VFQ 3 316     -36.801 133.496   9.904  1.00 77.06     0.001 C 
HETATM   12  C12 VFQ 3 316     -37.616 134.372   9.325  1.00 77.59     0.007 C 
HETATM   13  C13 VFQ 3 316     -38.459 135.332  10.063  1.00 77.36    -0.062 C 
HETATM   14  C14 VFQ 3 316     -39.291 136.101   9.346  1.00 75.86     0.007 C 
HETATM   15  C15 VFQ 3 316     -40.195 137.071   9.950  1.00 74.54     0.001 C 
HETATM   16  C16 VFQ 3 316     -34.239 126.445   7.905  1.00 78.56     0.020 C 
HETATM   17  C17 VFQ 3 316     -35.722 128.061   6.739  1.00 78.60     0.020 C 
HETATM   18  C18 VFQ 3 316     -31.499 130.191   7.827  1.00 77.80     0.044 C 
HETATM   19  C19 VFQ 3 316     -35.375 131.113  10.835  1.00 79.41     0.048 C 
HETATM   20  C20 VFQ 3 316     -38.396 135.433  11.559  1.00 77.68     0.048 C 
HETATM   21  O3  VFQ 3 316     -31.925 127.222   3.971  1.00 76.23    -0.395 OA
ATOM     22  H3  VFQ 3 316     -31.210 127.732   3.609  1.00  0.00     0.210 HD
HETATM   23  C21 VFQ 3 316     -49.909 145.192  10.765  1.00 21.11    -0.017 C 
HETATM   24  C22 VFQ 3 316     -50.969 146.049  11.478  1.00 20.11     0.049 C 
HETATM   25  C23 VFQ 3 316     -50.540 147.267  12.296  1.00 19.41     0.142 C 
HETATM   26  C24 VFQ 3 316     -49.046 147.613  12.255  1.00 18.39     0.012 C 
HETATM   27  C25 VFQ 3 316     -48.096 146.913  11.342  1.00 18.34    -0.056 C 
HETATM   28  C26 VFQ 3 316     -48.452 145.781  10.646  1.00 19.81    -0.044 C 
HETATM   29  C27 VFQ 3 316     -47.564 145.027   9.731  1.00 19.02     0.009 C 
HETATM   30  C28 VFQ 3 316     -46.641 144.126  10.120  1.00 17.97     0.007 C 
HETATM   31  C29 VFQ 3 316     -45.760 143.372   9.257  1.00 87.05    -0.062 C 
HETATM   32  C30 VFQ 3 316     -45.003 142.398   9.779  1.00 83.33     0.007 C 
HETATM   33  C31 VFQ 3 316     -44.102 141.582   8.973  1.00 80.71     0.001 C 
HETATM   34  C32 VFQ 3 316     -43.388 140.670   9.623  1.00 78.86     0.007 C 
HETATM   35  C33 VFQ 3 316     -42.438 139.756   8.964  1.00 77.40    -0.062 C 
HETATM   36  C34 VFQ 3 316     -41.838 138.822   9.716  1.00 76.14     0.007 C 
HETATM   37  C35 VFQ 3 316     -40.901 137.862   9.148  1.00 74.61     0.001 C 
HETATM   38  C36 VFQ 3 316     -50.492 144.895   9.367  1.00 19.56     0.020 C 
HETATM   39  C37 VFQ 3 316     -49.901 143.870  11.572  1.00 18.49     0.020 C 
HETATM   40  C38 VFQ 3 316     -46.812 147.656  11.324  1.00 16.89     0.048 C 
HETATM   41  C39 VFQ 3 316     -45.714 143.682   7.790  1.00 86.53     0.048 C 
HETATM   42  C40 VFQ 3 316     -42.150 139.872   7.497  1.00 77.09     0.048 C 
HETATM   43  O23 VFQ 3 316     -50.977 147.134  13.637  1.00 18.27    -0.392 OA
ATOM     44  H23 VFQ 3 316     -51.902 146.919  13.662  1.00  0.00     0.210 HD
ENDROOT
TORSDOF 12
