REMARK VINA RESULT:   -10.841      0.000      0.000
REMARK INTER + INTRA:         -13.203
REMARK INTER:                 -10.841
REMARK INTRA:                  -2.362
REMARK UNBOUND:                -2.362
REMARK  0 active torsions:
REMARK  status: ('A' for Active; 'I' for Inactive)
REMARK       I    between atoms: C3_3  and  O3_21 
REMARK       I    between atoms: C6_6  and  C7_7 
REMARK       I    between atoms: C8_8  and  C9_9 
REMARK       I    between atoms: C10_10  and  C11_11 
REMARK       I    between atoms: C12_12  and  C13_13 
REMARK       I    between atoms: C14_14  and  C15_15 
REMARK       I    between atoms: C23_25  and  O23_43 
REMARK       I    between atoms: C26_28  and  C27_29 
REMARK       I    between atoms: C28_30  and  C29_31 
REMARK       I    between atoms: C30_32  and  C31_33 
REMARK       I    between atoms: C32_34  and  C33_35 
REMARK       I    between atoms: C34_36  and  C35_37 
ROOT
HETATM    1  C1  VFQ D3620     -49.042 144.808  12.487  1.00 21.49    -0.018 C 
HETATM    2  C2  VFQ D3620     -49.474 145.567  13.761  1.00 21.50     0.045 C 
HETATM    3  C3  VFQ D3620     -48.712 146.827  14.185  1.00 22.37     0.123 C 
HETATM    4  C4  VFQ D3620     -47.825 147.451  13.104  1.00 21.17     0.066 C 
HETATM    5  C5  VFQ D3620     -47.282 146.590  12.010  1.00 19.70    -0.074 C 
HETATM    6  C6  VFQ D3620     -47.821 145.357  11.697  1.00 20.41    -0.048 C 
HETATM    7  C7  VFQ D3620     -47.281 144.512  10.614  1.00 19.41     0.009 C 
HETATM    8  C8  VFQ D3620     -46.184 143.742  10.644  1.00 18.90     0.007 C 
HETATM    9  C9  VFQ D3620     -45.574 143.020   9.524  1.00 20.60    -0.062 C 
HETATM   10  C10 VFQ D3620     -44.528 142.212   9.799  1.00 18.78     0.007 C 
HETATM   11  C11 VFQ D3620     -43.797 141.409   8.867  1.00 19.97     0.001 C 
HETATM   12  C12 VFQ D3620     -42.896 140.524   9.328  1.00 23.02     0.007 C 
HETATM   13  C13 VFQ D3620     -42.067 139.582   8.574  1.00 23.57    -0.062 C 
HETATM   14  C14 VFQ D3620     -41.313 138.714   9.283  1.00 23.43     0.007 C 
HETATM   15  C15 VFQ D3620     -40.488 137.655   8.779  1.00 24.57     0.001 C 
HETATM   16  C16 VFQ D3620     -50.302 144.866  11.602  1.00 19.84     0.020 C 
HETATM   17  C17 VFQ D3620     -48.800 143.330  12.890  1.00 19.63     0.020 C 
HETATM   18  C18 VFQ D3620     -46.139 147.317  11.397  1.00 19.29     0.044 C 
HETATM   19  C19 VFQ D3620     -46.181 143.187   8.149  1.00 18.57     0.048 C 
HETATM   20  C20 VFQ D3620     -42.167 139.600   7.081  1.00 22.43     0.048 C 
HETATM   21  O3  VFQ D3620     -49.609 147.797  14.697  1.00 22.38    -0.395 OA
ATOM     22  H3  VFQ D3620     -49.137 148.579  14.960  1.00  0.00     0.210 HD
HETATM   23  C21 VFQ D3620     -34.225 126.802   6.664  1.00 21.58    -0.018 C 
HETATM   24  C22 VFQ D3620     -33.690 125.877   5.551  1.00 21.20     0.045 C 
HETATM   25  C23 VFQ D3620     -32.499 126.311   4.694  1.00 20.61     0.123 C 
HETATM   26  C24 VFQ D3620     -32.045 127.767   4.882  1.00 19.82     0.066 C 
HETATM   27  C25 VFQ D3620     -32.502 128.585   6.049  1.00 19.81    -0.074 C 
HETATM   28  C26 VFQ D3620     -33.512 128.191   6.903  1.00 19.95    -0.048 C 
HETATM   29  C27 VFQ D3620     -33.990 128.988   8.070  1.00 17.10     0.009 C 
HETATM   30  C28 VFQ D3620     -34.851 130.026   7.984  1.00 17.58     0.007 C 
HETATM   31  C29 VFQ D3620     -35.389 130.890   9.039  1.00 31.15    -0.062 C 
HETATM   32  C30 VFQ D3620     -36.236 131.886   8.699  1.00 29.00     0.007 C 
HETATM   33  C31 VFQ D3620     -36.857 132.819   9.589  1.00 26.88     0.001 C 
HETATM   34  C32 VFQ D3620     -37.642 133.793   9.120  1.00 27.02     0.007 C 
HETATM   35  C33 VFQ D3620     -38.343 134.851   9.857  1.00 27.13    -0.062 C 
HETATM   36  C34 VFQ D3620     -39.064 135.740   9.137  1.00 25.88     0.007 C 
HETATM   37  C35 VFQ D3620     -39.833 136.850   9.623  1.00 25.96     0.001 C 
HETATM   38  C36 VFQ D3620     -34.223 125.971   7.968  1.00 19.38     0.020 C 
HETATM   39  C37 VFQ D3620     -35.696 127.011   6.235  1.00 19.65     0.020 C 
HETATM   40  C38 VFQ D3620     -31.673 129.818   6.108  1.00 20.06     0.044 C 
HETATM   41  C39 VFQ D3620     -34.944 130.619  10.447  1.00 30.08     0.048 C 
HETATM   42  C40 VFQ D3620     -38.201 134.880  11.351  1.00 24.80     0.048 C 
HETATM   43  O23 VFQ D3620     -32.761 126.053   3.322  1.00 18.88    -0.395 OA
ATOM     44  H23 VFQ D3620     -32.022 126.322   2.791  1.00  0.00     0.210 HD
ENDROOT
TORSDOF 12
