REMARK VINA RESULT:   -11.573      0.000      0.000
REMARK INTER + INTRA:         -14.116
REMARK INTER:                 -11.573
REMARK INTRA:                  -2.543
REMARK UNBOUND:                -2.543
REMARK  0 active torsions:
REMARK  status: ('A' for Active; 'I' for Inactive)
REMARK       I    between atoms: C3_3  and  O3_21 
REMARK       I    between atoms: C6_6  and  C7_7 
REMARK       I    between atoms: C8_8  and  C9_9 
REMARK       I    between atoms: C10_10  and  C11_11 
REMARK       I    between atoms: C12_12  and  C13_13 
REMARK       I    between atoms: C14_14  and  C15_15 
REMARK       I    between atoms: C23_25  and  O23_43 
REMARK       I    between atoms: C26_28  and  C27_29 
REMARK       I    between atoms: C28_30  and  C29_31 
REMARK       I    between atoms: C30_32  and  C31_33 
REMARK       I    between atoms: C32_34  and  C33_35 
REMARK       I    between atoms: C34_36  and  C35_37 
ROOT
HETATM    1  C1  VFQ 71621     -34.263 127.410   6.645  1.00 71.39    -0.018 C 
HETATM    2  C2  VFQ 71621     -33.787 126.993   5.259  1.00 71.39     0.045 C 
HETATM    3  C3  VFQ 71621     -32.536 127.659   4.700  1.00 71.39     0.123 C 
HETATM    4  C4  VFQ 71621     -31.589 128.077   5.805  1.00 71.39     0.066 C 
HETATM    5  C5  VFQ 71621     -32.361 128.973   6.726  1.00 71.39    -0.074 C 
HETATM    6  C6  VFQ 71621     -33.542 128.608   7.221  1.00 71.39    -0.048 C 
HETATM    7  C7  VFQ 71621     -34.192 129.342   8.340  1.00 71.39     0.009 C 
HETATM    8  C8  VFQ 71621     -34.907 130.449   8.127  1.00 71.39     0.007 C 
HETATM    9  C9  VFQ 71621     -35.604 131.215   9.175  1.00 71.39    -0.062 C 
HETATM   10  C10 VFQ 71621     -36.431 132.176   8.752  1.00 71.39     0.007 C 
HETATM   11  C11 VFQ 71621     -37.255 133.052   9.578  1.00 71.39     0.001 C 
HETATM   12  C12 VFQ 71621     -38.023 133.890   8.882  1.00 71.39     0.007 C 
HETATM   13  C13 VFQ 71621     -38.968 134.854   9.466  1.00 71.39    -0.062 C 
HETATM   14  C14 VFQ 71621     -39.695 135.605   8.630  1.00 71.39     0.007 C 
HETATM   15  C15 VFQ 71621     -40.688 136.554   9.115  1.00 71.39     0.001 C 
HETATM   16  C16 VFQ 71621     -34.150 126.205   7.570  1.00 71.39     0.020 C 
HETATM   17  C17 VFQ 71621     -35.728 127.779   6.543  1.00 71.39     0.020 C 
HETATM   18  C18 VFQ 71621     -31.464 129.934   7.425  1.00 71.39     0.044 C 
HETATM   19  C19 VFQ 71621     -35.419 130.932  10.632  1.00 71.39     0.048 C 
HETATM   20  C20 VFQ 71621     -39.134 134.975  10.947  1.00 71.39     0.048 C 
HETATM   21  O3  VFQ 71621     -31.846 126.726   3.863  1.00 71.39    -0.395 OA
ATOM     22  H3  VFQ 71621     -32.440 126.463   3.170  1.00  0.00     0.210 HD
HETATM   23  C21 VFQ 71621     -50.308 144.508  10.143  1.00 33.25    -0.018 C 
HETATM   24  C22 VFQ 71621     -51.325 145.465  10.747  1.00 33.25     0.045 C 
HETATM   25  C23 VFQ 71621     -50.787 146.711  11.427  1.00 33.25     0.123 C 
HETATM   26  C24 VFQ 71621     -49.487 146.432  12.123  1.00 33.25     0.066 C 
HETATM   27  C25 VFQ 71621     -48.499 145.894  11.150  1.00 33.25    -0.074 C 
HETATM   28  C26 VFQ 71621     -48.871 144.994  10.243  1.00 33.25    -0.048 C 
HETATM   29  C27 VFQ 71621     -47.869 144.465   9.301  1.00 33.25     0.009 C 
HETATM   30  C28 VFQ 71621     -47.228 143.344   9.592  1.00 33.25     0.007 C 
HETATM   31  C29 VFQ 71621     -46.227 142.748   8.712  1.00 71.39    -0.062 C 
HETATM   32  C30 VFQ 71621     -45.852 141.492   8.967  1.00 71.39     0.007 C 
HETATM   33  C31 VFQ 71621     -44.871 140.760   8.175  1.00 71.39     0.001 C 
HETATM   34  C32 VFQ 71621     -44.114 139.885   8.820  1.00 71.39     0.007 C 
HETATM   35  C33 VFQ 71621     -43.094 139.076   8.145  1.00 71.39    -0.062 C 
HETATM   36  C34 VFQ 71621     -42.348 138.240   8.869  1.00 71.39     0.007 C 
HETATM   37  C35 VFQ 71621     -41.333 137.371   8.286  1.00 71.39     0.001 C 
HETATM   38  C36 VFQ 71621     -50.649 144.364   8.670  1.00 33.25     0.020 C 
HETATM   39  C37 VFQ 71621     -50.521 143.158  10.819  1.00 33.25     0.020 C 
HETATM   40  C38 VFQ 71621     -47.109 146.438  11.262  1.00 33.25     0.044 C 
HETATM   41  C39 VFQ 71621     -45.656 143.528   7.571  1.00 71.39     0.048 C 
HETATM   42  C40 VFQ 71621     -42.922 139.218   6.675  1.00 71.39     0.048 C 
HETATM   43  O23 VFQ 71621     -51.709 147.134  12.431  1.00 33.25    -0.395 OA
ATOM     44  H23 VFQ 71621     -51.373 147.914  12.856  1.00  0.00     0.210 HD
ENDROOT
TORSDOF 12
