REMARK VINA RESULT:    -9.671      1.647      1.994
REMARK INTER + INTRA:         -11.783
REMARK INTER:                  -9.337
REMARK INTRA:                  -2.447
REMARK UNBOUND:                -2.113
REMARK  0 active torsions:
REMARK  status: ('A' for Active; 'I' for Inactive)
REMARK       I    between atoms: C3_3  and  O3_21 
REMARK       I    between atoms: C6_6  and  C7_7 
REMARK       I    between atoms: C8_8  and  C9_9 
REMARK       I    between atoms: C10_10  and  C11_11 
REMARK       I    between atoms: C12_12  and  C13_13 
REMARK       I    between atoms: C14_14  and  C15_15 
REMARK       I    between atoms: C23_25  and  O23_43 
REMARK       I    between atoms: C26_28  and  C27_29 
REMARK       I    between atoms: C28_30  and  C29_31 
REMARK       I    between atoms: C30_32  and  C31_33 
REMARK       I    between atoms: C32_34  and  C33_35 
REMARK       I    between atoms: C34_36  and  C35_37 
ROOT
HETATM    1  C1  VFQ Z 618     -50.277 144.470  10.173  1.00 27.67    -0.018 C 
HETATM    2  C2  VFQ Z 618     -51.298 144.763  11.270  1.00 27.67     0.045 C 
HETATM    3  C3  VFQ Z 618     -50.884 145.745  12.356  1.00 27.67     0.123 C 
HETATM    4  C4  VFQ Z 618     -50.051 146.868  11.779  1.00 27.67     0.066 C 
HETATM    5  C5  VFQ Z 618     -48.836 146.238  11.165  1.00 27.67    -0.074 C 
HETATM    6  C6  VFQ Z 618     -48.975 145.244  10.286  1.00 27.67    -0.048 C 
HETATM    7  C7  VFQ Z 618     -47.867 144.878   9.369  1.00 27.67     0.009 C 
HETATM    8  C8  VFQ Z 618     -46.846 144.114   9.760  1.00 27.67     0.007 C 
HETATM    9  C9  VFQ Z 618     -45.765 143.741   8.838  1.00 27.67    -0.062 C 
HETATM   10  C10 VFQ Z 618     -45.047 142.662   9.159  1.00 27.67     0.007 C 
HETATM   11  C11 VFQ Z 618     -43.955 142.107   8.370  1.00 27.67     0.001 C 
HETATM   12  C12 VFQ Z 618     -43.525 140.943   8.842  1.00 27.67     0.007 C 
HETATM   13  C13 VFQ Z 618     -42.472 140.097   8.268  1.00 27.67    -0.062 C 
HETATM   14  C14 VFQ Z 618     -42.168 138.975   8.936  1.00 27.67     0.007 C 
HETATM   15  C15 VFQ Z 618     -41.187 138.014   8.456  1.00 27.67     0.001 C 
HETATM   16  C16 VFQ Z 618     -50.959 144.739   8.835  1.00 27.67     0.020 C 
HETATM   17  C17 VFQ Z 618     -49.922 142.991  10.244  1.00 27.67     0.020 C 
HETATM   18  C18 VFQ Z 618     -47.759 147.273  11.049  1.00 27.67     0.044 C 
HETATM   19  C19 VFQ Z 618     -45.489 144.541   7.603  1.00 27.67     0.048 C 
HETATM   20  C20 VFQ Z 618     -41.794 140.455   6.982  1.00 27.67     0.048 C 
HETATM   21  O3  VFQ Z 618     -52.059 146.291  12.957  1.00 27.67    -0.395 OA
ATOM     22  H3  VFQ Z 618     -52.582 145.586  13.319  1.00  0.00     0.210 HD
HETATM   23  C21 VFQ Z 618     -33.972 127.543   7.148  1.00 22.61    -0.018 C 
HETATM   24  C22 VFQ Z 618     -33.121 126.667   6.210  1.00 23.33     0.045 C 
HETATM   25  C23 VFQ Z 618     -32.047 127.291   5.315  1.00 24.77     0.123 C 
HETATM   26  C24 VFQ Z 618     -31.987 128.828   5.303  1.00 22.10     0.066 C 
HETATM   27  C25 VFQ Z 618     -32.714 129.613   6.343  1.00 21.89    -0.074 C 
HETATM   28  C26 VFQ Z 618     -33.637 129.069   7.208  1.00 21.83    -0.048 C 
HETATM   29  C27 VFQ Z 618     -34.372 129.843   8.234  1.00 21.27     0.009 C 
HETATM   30  C28 VFQ Z 618     -35.462 130.606   7.984  1.00 20.16     0.007 C 
HETATM   31  C29 VFQ Z 618     -36.210 131.383   8.941  1.00 27.67    -0.062 C 
HETATM   32  C30 VFQ Z 618     -37.279 132.058   8.506  1.00 27.67     0.007 C 
HETATM   33  C31 VFQ Z 618     -38.134 132.881   9.349  1.00 27.67     0.001 C 
HETATM   34  C32 VFQ Z 618     -38.597 133.988   8.778  1.00 27.67     0.007 C 
HETATM   35  C33 VFQ Z 618     -39.487 134.953   9.440  1.00 27.67    -0.062 C 
HETATM   36  C34 VFQ Z 618     -39.982 135.946   8.691  1.00 27.67     0.007 C 
HETATM   37  C35 VFQ Z 618     -40.915 136.945   9.198  1.00 27.67     0.001 C 
HETATM   38  C36 VFQ Z 618     -33.897 126.911   8.554  1.00 21.21     0.020 C 
HETATM   39  C37 VFQ Z 618     -35.403 127.325   6.633  1.00 21.56     0.020 C 
HETATM   40  C38 VFQ Z 618     -32.248 131.015   6.264  1.00 21.82     0.044 C 
HETATM   41  C39 VFQ Z 618     -35.782 131.419  10.377  1.00 27.67     0.048 C 
HETATM   42  C40 VFQ Z 618     -39.823 134.835  10.892  1.00 27.67     0.048 C 
HETATM   43  O23 VFQ Z 618     -32.158 126.792   3.986  1.00 25.40    -0.395 OA
ATOM     44  H23 VFQ Z 618     -31.491 127.179   3.431  1.00  0.00     0.210 HD
ENDROOT
TORSDOF 12
