REMARK VINA RESULT:    -8.576      0.000      0.000
REMARK INTER + INTRA:         -11.668
REMARK INTER:                  -8.576
REMARK INTRA:                  -3.092
REMARK UNBOUND:                -3.092
REMARK  0 active torsions:
REMARK  status: ('A' for Active; 'I' for Inactive)
REMARK       I    between atoms: C3_3  and  O3_21 
REMARK       I    between atoms: C6_6  and  C7_7 
REMARK       I    between atoms: C8_8  and  C9_9 
REMARK       I    between atoms: C10_10  and  C11_11 
REMARK       I    between atoms: C12_12  and  C13_13 
REMARK       I    between atoms: C14_14  and  C15_15 
REMARK       I    between atoms: C23_25  and  O23_43 
REMARK       I    between atoms: C26_28  and  C27_29 
REMARK       I    between atoms: C28_30  and  C29_31 
REMARK       I    between atoms: C30_32  and  C31_33 
REMARK       I    between atoms: C32_34  and  C33_35 
REMARK       I    between atoms: C34_36  and  C35_37 
ROOT
HETATM    1  C1  VFQ 3 621     -48.247 145.439  12.774  1.00 19.54    -0.018 C 
HETATM    2  C2  VFQ 3 621     -48.846 146.212  13.946  1.00 19.54     0.045 C 
HETATM    3  C3  VFQ 3 621     -47.923 147.037  14.820  1.00 19.54     0.123 C 
HETATM    4  C4  VFQ 3 621     -46.971 147.822  13.953  1.00 19.54     0.066 C 
HETATM    5  C5  VFQ 3 621     -46.255 146.920  12.980  1.00 19.54    -0.074 C 
HETATM    6  C6  VFQ 3 621     -46.864 145.899  12.353  1.00 19.54    -0.048 C 
HETATM    7  C7  VFQ 3 621     -46.215 145.224  11.189  1.00 19.54     0.009 C 
HETATM    8  C8  VFQ 3 621     -45.334 144.222  11.306  1.00 19.54     0.007 C 
HETATM    9  C9  VFQ 3 621     -44.691 143.546  10.161  1.00 19.54    -0.062 C 
HETATM   10  C10 VFQ 3 621     -43.842 142.546  10.440  1.00 19.54     0.007 C 
HETATM   11  C11 VFQ 3 621     -43.110 141.752   9.458  1.00 19.54     0.001 C 
HETATM   12  C12 VFQ 3 621     -42.262 140.865   9.970  1.00 19.54     0.007 C 
HETATM   13  C13 VFQ 3 621     -41.439 139.944   9.168  1.00 19.54    -0.062 C 
HETATM   14  C14 VFQ 3 621     -40.973 138.849   9.787  1.00 19.54     0.007 C 
HETATM   15  C15 VFQ 3 621     -40.169 137.832   9.120  1.00 19.54     0.001 C 
HETATM   16  C16 VFQ 3 621     -49.264 145.549  11.644  1.00 19.54     0.020 C 
HETATM   17  C17 VFQ 3 621     -48.118 143.974  13.165  1.00 19.54     0.020 C 
HETATM   18  C18 VFQ 3 621     -45.019 147.558  12.428  1.00 19.54     0.044 C 
HETATM   19  C19 VFQ 3 621     -44.964 143.974   8.751  1.00 19.54     0.048 C 
HETATM   20  C20 VFQ 3 621     -41.133 140.218   7.726  1.00 19.54     0.048 C 
HETATM   21  O3  VFQ 3 621     -48.711 147.964  15.570  1.00 19.54    -0.395 OA
ATOM     22  H3  VFQ 3 621     -48.133 148.481  16.119  1.00  0.00     0.210 HD
HETATM   23  C21 VFQ 3 621     -34.672 127.111   6.089  1.00 98.50    -0.018 C 
HETATM   24  C22 VFQ 3 621     -34.212 126.566   4.752  1.00 95.05     0.045 C 
HETATM   25  C23 VFQ 3 621     -32.721 126.322   4.727  1.00 91.19     0.123 C 
HETATM   26  C24 VFQ 3 621     -31.962 127.607   4.990  1.00 95.39     0.066 C 
HETATM   27  C25 VFQ 3 621     -32.631 128.543   5.962  1.00 94.24    -0.074 C 
HETATM   28  C26 VFQ 3 621     -33.808 128.273   6.569  1.00 98.17    -0.048 C 
HETATM   29  C27 VFQ 3 621     -34.291 129.052   7.747  1.00 96.30     0.009 C 
HETATM   30  C28 VFQ 3 621     -34.964 130.202   7.639  1.00 99.74     0.007 C 
HETATM   31  C29 VFQ 3 621     -35.473 130.971   8.766  1.00 19.54    -0.062 C 
HETATM   32  C30 VFQ 3 621     -36.499 131.795   8.547  1.00 19.54     0.007 C 
HETATM   33  C31 VFQ 3 621     -37.124 132.624   9.569  1.00 19.54     0.001 C 
HETATM   34  C32 VFQ 3 621     -37.819 133.644   9.088  1.00 19.54     0.007 C 
HETATM   35  C33 VFQ 3 621     -38.565 134.639   9.871  1.00 19.54    -0.062 C 
HETATM   36  C34 VFQ 3 621     -39.051 135.688   9.193  1.00 19.54     0.007 C 
HETATM   37  C35 VFQ 3 621     -39.830 136.749   9.816  1.00 19.54     0.001 C 
HETATM   38  C36 VFQ 3 621     -34.579 126.035   7.152  1.00 90.00     0.020 C 
HETATM   39  C37 VFQ 3 621     -36.147 127.435   5.902  1.00 93.85     0.020 C 
HETATM   40  C38 VFQ 3 621     -31.870 129.814   6.161  1.00 91.76     0.044 C 
HETATM   41  C39 VFQ 3 621     -34.868 130.842  10.124  1.00 19.54     0.048 C 
HETATM   42  C40 VFQ 3 621     -38.767 134.474  11.345  1.00 19.54     0.048 C 
HETATM   43  O23 VFQ 3 621     -32.350 125.852   3.431  1.00 92.07    -0.395 OA
ATOM     44  H23 VFQ 3 621     -31.413 125.700   3.416  1.00  0.00     0.210 HD
ENDROOT
TORSDOF 12
