REMARK VINA RESULT:   -11.084      0.000      0.000
REMARK INTER + INTRA:         -13.636
REMARK INTER:                 -11.084
REMARK INTRA:                  -2.551
REMARK UNBOUND:                -2.551
REMARK  0 active torsions:
REMARK  status: ('A' for Active; 'I' for Inactive)
REMARK       I    between atoms: C3_3  and  O3_21 
REMARK       I    between atoms: C6_6  and  C7_7 
REMARK       I    between atoms: C8_8  and  C9_9 
REMARK       I    between atoms: C10_10  and  C11_11 
REMARK       I    between atoms: C12_12  and  C13_13 
REMARK       I    between atoms: C14_14  and  C15_15 
REMARK       I    between atoms: C23_25  and  O23_43 
REMARK       I    between atoms: C26_28  and  C27_29 
REMARK       I    between atoms: C28_30  and  C29_31 
REMARK       I    between atoms: C30_32  and  C31_33 
REMARK       I    between atoms: C32_34  and  C33_35 
REMARK       I    between atoms: C34_36  and  C35_37 
ROOT
HETATM    1  C1  VFQ Y1620     -34.275 127.311   6.634  1.00 33.25    -0.018 C 
HETATM    2  C2  VFQ Y1620     -33.841 126.989   5.212  1.00 33.25     0.045 C 
HETATM    3  C3  VFQ Y1620     -32.623 127.719   4.676  1.00 33.25     0.123 C 
HETATM    4  C4  VFQ Y1620     -31.607 127.949   5.757  1.00 33.25     0.066 C 
HETATM    5  C5  VFQ Y1620     -32.225 128.706   6.878  1.00 33.25    -0.074 C 
HETATM    6  C6  VFQ Y1620     -33.453 128.404   7.295  1.00 33.25    -0.048 C 
HETATM    7  C7  VFQ Y1620     -34.026 129.141   8.436  1.00 33.25     0.009 C 
HETATM    8  C8  VFQ Y1620     -34.774 130.210   8.214  1.00 33.25     0.007 C 
HETATM    9  C9  VFQ Y1620     -35.384 130.990   9.282  1.00 33.25    -0.062 C 
HETATM   10  C10 VFQ Y1620     -35.920 132.137   8.885  1.00 33.25     0.007 C 
HETATM   11  C11 VFQ Y1620     -36.607 133.078   9.733  1.00 33.25     0.001 C 
HETATM   12  C12 VFQ Y1620     -37.331 133.922   9.027  1.00 33.25     0.007 C 
HETATM   13  C13 VFQ Y1620     -38.166 134.937   9.642  1.00 33.25    -0.062 C 
HETATM   14  C14 VFQ Y1620     -38.907 135.678   8.830  1.00 33.25     0.007 C 
HETATM   15  C15 VFQ Y1620     -39.816 136.665   9.366  1.00 33.25     0.001 C 
HETATM   16  C16 VFQ Y1620     -34.243 125.999   7.410  1.00 33.25     0.020 C 
HETATM   17  C17 VFQ Y1620     -35.713 127.791   6.563  1.00 33.25     0.020 C 
HETATM   18  C18 VFQ Y1620     -31.357 129.742   7.521  1.00 33.25     0.044 C 
HETATM   19  C19 VFQ Y1620     -35.381 130.515  10.700  1.00 33.25     0.048 C 
HETATM   20  C20 VFQ Y1620     -38.205 135.097  11.123  1.00 33.25     0.048 C 
HETATM   21  O3  VFQ Y1620     -31.992 126.914   3.682  1.00 33.25    -0.395 OA
ATOM     22  H3  VFQ Y1620     -31.230 127.371   3.347  1.00  0.00     0.210 HD
HETATM   23  C21 VFQ Y1620     -49.721 144.075   9.929  1.00 94.67    -0.018 C 
HETATM   24  C22 VFQ Y1620     -50.760 144.987  10.568  1.00 94.67     0.045 C 
HETATM   25  C23 VFQ Y1620     -50.342 146.422  10.813  1.00 94.67     0.123 C 
HETATM   26  C24 VFQ Y1620     -48.954 146.434  11.393  1.00 94.67     0.066 C 
HETATM   27  C25 VFQ Y1620     -47.999 145.796  10.433  1.00 94.67    -0.074 C 
HETATM   28  C26 VFQ Y1620     -48.346 144.696   9.762  1.00 94.67    -0.048 C 
HETATM   29  C27 VFQ Y1620     -47.402 144.051   8.819  1.00 94.67     0.009 C 
HETATM   30  C28 VFQ Y1620     -46.537 143.129   9.233  1.00 94.67     0.007 C 
HETATM   31  C29 VFQ Y1620     -45.612 142.464   8.333  1.00 33.25    -0.062 C 
HETATM   32  C30 VFQ Y1620     -45.023 141.373   8.802  1.00 33.25     0.007 C 
HETATM   33  C31 VFQ Y1620     -44.084 140.582   8.040  1.00 33.25     0.001 C 
HETATM   34  C32 VFQ Y1620     -43.319 139.812   8.780  1.00 33.25     0.007 C 
HETATM   35  C33 VFQ Y1620     -42.335 138.919   8.185  1.00 33.25    -0.062 C 
HETATM   36  C34 VFQ Y1620     -41.611 138.181   9.016  1.00 33.25     0.007 C 
HETATM   37  C35 VFQ Y1620     -40.646 137.230   8.515  1.00 33.25     0.001 C 
HETATM   38  C36 VFQ Y1620     -50.220 143.711   8.539  1.00 94.67     0.020 C 
HETATM   39  C37 VFQ Y1620     -49.661 142.829  10.808  1.00 94.67     0.020 C 
HETATM   40  C38 VFQ Y1620     -46.666 146.463  10.276  1.00 94.67     0.044 C 
HETATM   41  C39 VFQ Y1620     -45.335 142.988   6.960  1.00 33.25     0.048 C 
HETATM   42  C40 VFQ Y1620     -42.181 138.829   6.703  1.00 33.25     0.048 C 
HETATM   43  O23 VFQ Y1620     -51.230 146.998  11.771  1.00 94.67    -0.395 OA
ATOM     44  H23 VFQ Y1620     -50.968 147.899  11.925  1.00  0.00     0.210 HD
ENDROOT
TORSDOF 12
