REMARK VINA RESULT:    -6.352      1.179     16.329
REMARK INTER + INTRA:          -8.718
REMARK INTER:                  -8.302
REMARK INTRA:                  -0.416
REMARK UNBOUND:                -2.365
REMARK  0 active torsions:
REMARK  status: ('A' for Active; 'I' for Inactive)
REMARK       I    between atoms: C3_3  and  O3_21 
REMARK       I    between atoms: C6_6  and  C7_7 
REMARK       I    between atoms: C8_8  and  C9_9 
REMARK       I    between atoms: C10_10  and  C11_11 
REMARK       I    between atoms: C12_12  and  C13_13 
REMARK       I    between atoms: C14_14  and  C15_15 
REMARK       I    between atoms: C23_25  and  O23_43 
REMARK       I    between atoms: C26_28  and  C27_29 
REMARK       I    between atoms: C28_30  and  C29_31 
REMARK       I    between atoms: C30_32  and  C31_33 
REMARK       I    between atoms: C32_34  and  C33_35 
REMARK       I    between atoms: C34_36  and  C35_37 
ROOT
HETATM    1  C1  VFQ V1620     -50.168 144.624  10.594  1.00 15.23    -0.018 C 
HETATM    2  C2  VFQ V1620     -50.638 144.256  11.988  1.00 15.23     0.045 C 
HETATM    3  C3  VFQ V1620     -49.715 144.685  13.098  1.00 15.23     0.123 C 
HETATM    4  C4  VFQ V1620     -49.332 146.113  12.847  1.00 15.23     0.066 C 
HETATM    5  C5  VFQ V1620     -48.580 146.234  11.559  1.00 15.23    -0.074 C 
HETATM    6  C6  VFQ V1620     -48.906 145.446  10.531  1.00 15.23    -0.048 C 
HETATM    7  C7  VFQ V1620     -47.944 145.116   9.475  1.00 15.23     0.009 C 
HETATM    8  C8  VFQ V1620     -46.815 144.603   9.972  1.00 15.23     0.007 C 
HETATM    9  C9  VFQ V1620     -45.785 144.008   9.099  1.00 15.23    -0.062 C 
HETATM   10  C10 VFQ V1620     -44.865 143.234   9.689  1.00 15.23     0.007 C 
HETATM   11  C11 VFQ V1620     -43.865 142.470   8.955  1.00 15.23     0.001 C 
HETATM   12  C12 VFQ V1620     -43.166 141.542   9.590  1.00 15.23     0.007 C 
HETATM   13  C13 VFQ V1620     -42.222 140.671   8.877  1.00 15.23    -0.062 C 
HETATM   14  C14 VFQ V1620     -41.726 139.626   9.547  1.00 15.23     0.007 C 
HETATM   15  C15 VFQ V1620     -40.819 138.638   8.974  1.00 15.23     0.001 C 
HETATM   16  C16 VFQ V1620     -51.240 145.520  10.005  1.00 15.23     0.020 C 
HETATM   17  C17 VFQ V1620     -50.024 143.344   9.791  1.00 15.23     0.020 C 
HETATM   18  C18 VFQ V1620     -47.300 147.009  11.660  1.00 15.23     0.044 C 
HETATM   19  C19 VFQ V1620     -45.829 144.242   7.616  1.00 15.23     0.048 C 
HETATM   20  C20 VFQ V1620     -41.901 140.960   7.449  1.00 15.23     0.048 C 
HETATM   21  O3  VFQ V1620     -50.421 144.656  14.333  1.00 15.23    -0.395 OA
ATOM     22  H3  VFQ V1620     -49.839 144.926  15.033  1.00  0.00     0.210 HD
HETATM   23  C21 VFQ V1620     -34.094 128.469   6.715  1.00 50.20    -0.018 C 
HETATM   24  C22 VFQ V1620     -33.088 127.631   5.934  1.00 50.20     0.045 C 
HETATM   25  C23 VFQ V1620     -31.620 127.937   6.179  1.00 50.20     0.123 C 
HETATM   26  C24 VFQ V1620     -31.376 129.427   6.291  1.00 50.20     0.066 C 
HETATM   27  C25 VFQ V1620     -32.204 129.938   7.433  1.00 50.20    -0.074 C 
HETATM   28  C26 VFQ V1620     -33.465 129.536   7.592  1.00 50.20    -0.048 C 
HETATM   29  C27 VFQ V1620     -34.298 130.138   8.655  1.00 50.20     0.009 C 
HETATM   30  C28 VFQ V1620     -35.012 131.229   8.395  1.00 50.20     0.007 C 
HETATM   31  C29 VFQ V1620     -35.867 131.864   9.404  1.00 15.23    -0.062 C 
HETATM   32  C30 VFQ V1620     -36.613 132.874   8.951  1.00 15.23     0.007 C 
HETATM   33  C31 VFQ V1620     -37.539 133.662   9.743  1.00 15.23     0.001 C 
HETATM   34  C32 VFQ V1620     -38.145 134.676   9.137  1.00 15.23     0.007 C 
HETATM   35  C33 VFQ V1620     -39.067 135.568   9.843  1.00 15.23    -0.062 C 
HETATM   36  C34 VFQ V1620     -39.539 136.621   9.161  1.00 15.23     0.007 C 
HETATM   37  C35 VFQ V1620     -40.440 137.617   9.722  1.00 15.23     0.001 C 
HETATM   38  C36 VFQ V1620     -34.892 127.543   7.622  1.00 50.20     0.020 C 
HETATM   39  C37 VFQ V1620     -35.047 129.107   5.710  1.00 50.20     0.020 C 
HETATM   40  C38 VFQ V1620     -31.558 130.895   8.387  1.00 50.20     0.044 C 
HETATM   41  C39 VFQ V1620     -35.896 131.342  10.805  1.00 15.23     0.048 C 
HETATM   42  C40 VFQ V1620     -39.397 135.262  11.267  1.00 15.23     0.048 C 
HETATM   43  O23 VFQ V1620     -30.846 127.411   5.099  1.00 50.20    -0.395 OA
ATOM     44  H23 VFQ V1620     -30.999 126.476   5.028  1.00  0.00     0.210 HD
ENDROOT
TORSDOF 12
