REMARK VINA RESULT:    -7.662      0.893     16.739
REMARK INTER + INTRA:          -9.739
REMARK INTER:                  -5.751
REMARK INTRA:                  -3.988
REMARK UNBOUND:                -2.077
REMARK  0 active torsions:
REMARK  status: ('A' for Active; 'I' for Inactive)
REMARK       I    between atoms: C3_3  and  O3_21 
REMARK       I    between atoms: C6_6  and  C7_7 
REMARK       I    between atoms: C8_8  and  C9_9 
REMARK       I    between atoms: C10_10  and  C11_11 
REMARK       I    between atoms: C12_12  and  C13_13 
REMARK       I    between atoms: C14_14  and  C15_15 
REMARK       I    between atoms: C23_25  and  O23_43 
REMARK       I    between atoms: C26_28  and  C27_29 
REMARK       I    between atoms: C28_30  and  C29_31 
REMARK       I    between atoms: C30_32  and  C31_33 
REMARK       I    between atoms: C32_34  and  C33_35 
REMARK       I    between atoms: C34_36  and  C35_37 
ROOT
HETATM    1  C1  VFQ 8 618     -34.802 127.160   5.508  1.00 13.13    -0.018 C 
HETATM    2  C2  VFQ 8 618     -34.267 126.317   4.359  1.00 13.13     0.045 C 
HETATM    3  C3  VFQ 8 618     -33.012 126.847   3.707  1.00 13.13     0.123 C 
HETATM    4  C4  VFQ 8 618     -31.967 127.108   4.761  1.00 13.13     0.066 C 
HETATM    5  C5  VFQ 8 618     -32.487 128.037   5.821  1.00 13.13    -0.074 C 
HETATM    6  C6  VFQ 8 618     -33.769 128.015   6.224  1.00 13.13    -0.048 C 
HETATM    7  C7  VFQ 8 618     -34.228 128.772   7.424  1.00 13.13     0.009 C 
HETATM    8  C8  VFQ 8 618     -34.527 130.078   7.435  1.00 13.13     0.007 C 
HETATM    9  C9  VFQ 8 618     -34.996 130.773   8.648  1.00 13.13    -0.062 C 
HETATM   10  C10 VFQ 8 618     -35.658 131.920   8.479  1.00 13.13     0.007 C 
HETATM   11  C11 VFQ 8 618     -36.218 132.728   9.555  1.00 13.13     0.001 C 
HETATM   12  C12 VFQ 8 618     -37.063 133.651   9.123  1.00 13.13     0.007 C 
HETATM   13  C13 VFQ 8 618     -37.830 134.619   9.923  1.00 13.13    -0.062 C 
HETATM   14  C14 VFQ 8 618     -38.425 135.631   9.276  1.00 13.13     0.007 C 
HETATM   15  C15 VFQ 8 618     -39.236 136.612   9.978  1.00 13.13     0.001 C 
HETATM   16  C16 VFQ 8 618     -35.453 126.173   6.461  1.00 13.13     0.020 C 
HETATM   17  C17 VFQ 8 618     -35.848 128.114   4.951  1.00 13.13     0.020 C 
HETATM   18  C18 VFQ 8 618     -31.401 128.714   6.599  1.00 13.13     0.044 C 
HETATM   19  C19 VFQ 8 618     -34.743 130.217  10.016  1.00 13.13     0.048 C 
HETATM   20  C20 VFQ 8 618     -37.980 134.464  11.401  1.00 13.13     0.048 C 
HETATM   21  O3  VFQ 8 618     -32.513 125.850   2.815  1.00 13.13    -0.395 OA
ATOM     22  H3  VFQ 8 618     -33.171 125.686   2.151  1.00  0.00     0.210 HD
HETATM   23  C21 VFQ 8 618     -47.215 146.466  12.142  1.00 47.88    -0.018 C 
HETATM   24  C22 VFQ 8 618     -48.169 146.562  13.316  1.00 47.88     0.045 C 
HETATM   25  C23 VFQ 8 618     -47.513 147.298  14.466  1.00 47.88     0.123 C 
HETATM   26  C24 VFQ 8 618     -46.348 146.469  14.978  1.00 47.88     0.066 C 
HETATM   27  C25 VFQ 8 618     -45.408 146.147  13.847  1.00 47.88    -0.074 C 
HETATM   28  C26 VFQ 8 618     -45.839 146.011  12.586  1.00 47.88    -0.048 C 
HETATM   29  C27 VFQ 8 618     -44.945 145.421  11.571  1.00 47.88     0.009 C 
HETATM   30  C28 VFQ 8 618     -44.760 144.106  11.498  1.00 47.88     0.007 C 
HETATM   31  C29 VFQ 8 618     -43.870 143.538  10.460  1.00 13.13    -0.062 C 
HETATM   32  C30 VFQ 8 618     -43.532 142.261  10.637  1.00 13.13     0.007 C 
HETATM   33  C31 VFQ 8 618     -42.688 141.493   9.736  1.00 13.13     0.001 C 
HETATM   34  C32 VFQ 8 618     -41.983 140.513  10.283  1.00 13.13     0.007 C 
HETATM   35  C33 VFQ 8 618     -41.114 139.651   9.474  1.00 13.13    -0.062 C 
HETATM   36  C34 VFQ 8 618     -40.695 138.504  10.013  1.00 13.13     0.007 C 
HETATM   37  C35 VFQ 8 618     -39.859 137.559   9.292  1.00 13.13     0.001 C 
HETATM   38  C36 VFQ 8 618     -47.082 147.833  11.484  1.00 47.88     0.020 C 
HETATM   39  C37 VFQ 8 618     -47.808 145.497  11.126  1.00 47.88     0.020 C 
HETATM   40  C38 VFQ 8 618     -43.957 145.989  14.198  1.00 47.88     0.044 C 
HETATM   41  C39 VFQ 8 618     -43.403 144.336   9.283  1.00 13.13     0.048 C 
HETATM   42  C40 VFQ 8 618     -40.719 140.046   8.090  1.00 13.13     0.048 C 
HETATM   43  O23 VFQ 8 618     -48.462 147.505  15.512  1.00 47.88    -0.395 OA
ATOM     44  H23 VFQ 8 618     -48.051 147.966  16.232  1.00  0.00     0.210 HD
ENDROOT
TORSDOF 12
