REMARK VINA RESULT:   -10.320      0.839     16.823
REMARK INTER + INTRA:         -10.492
REMARK INTER:                 -10.162
REMARK INTRA:                  -0.330
REMARK UNBOUND:                -0.172
REMARK  0 active torsions:
REMARK  status: ('A' for Active; 'I' for Inactive)
REMARK       I    between atoms: C3_3  and  O3_21 
REMARK       I    between atoms: C6_6  and  C7_7 
REMARK       I    between atoms: C8_8  and  C9_9 
REMARK       I    between atoms: C10_10  and  C11_11 
REMARK       I    between atoms: C12_12  and  C13_13 
REMARK       I    between atoms: C14_14  and  C15_15 
REMARK       I    between atoms: C23_25  and  O23_43 
REMARK       I    between atoms: C26_28  and  C27_29 
REMARK       I    between atoms: C28_30  and  C29_31 
REMARK       I    between atoms: C30_32  and  C31_33 
REMARK       I    between atoms: C32_34  and  C33_35 
REMARK       I    between atoms: C34_36  and  C35_37 
ROOT
HETATM    1  C1  VFQ X1621     -50.705 145.369  10.555  1.00 31.86    -0.018 C 
HETATM    2  C2  VFQ X1621     -51.366 145.438  11.935  1.00 31.86     0.045 C 
HETATM    3  C3  VFQ X1621     -50.738 146.381  12.955  1.00 31.86     0.123 C 
HETATM    4  C4  VFQ X1621     -49.847 147.420  12.291  1.00 31.86     0.066 C 
HETATM    5  C5  VFQ X1621     -48.841 146.664  11.475  1.00 31.86    -0.074 C 
HETATM    6  C6  VFQ X1621     -49.276 145.863  10.503  1.00 31.86    -0.048 C 
HETATM    7  C7  VFQ X1621     -48.373 145.282   9.488  1.00 31.86     0.009 C 
HETATM    8  C8  VFQ X1621     -47.111 144.996   9.824  1.00 31.86     0.007 C 
HETATM    9  C9  VFQ X1621     -46.293 144.201   8.880  1.00 31.86    -0.062 C 
HETATM   10  C10 VFQ X1621     -45.277 143.488   9.408  1.00 31.86     0.007 C 
HETATM   11  C11 VFQ X1621     -44.486 142.529   8.640  1.00 31.86     0.001 C 
HETATM   12  C12 VFQ X1621     -43.694 141.675   9.285  1.00 31.86     0.007 C 
HETATM   13  C13 VFQ X1621     -42.941 140.624   8.565  1.00 31.86    -0.062 C 
HETATM   14  C14 VFQ X1621     -42.280 139.715   9.312  1.00 31.86     0.007 C 
HETATM   15  C15 VFQ X1621     -41.510 138.600   8.757  1.00 31.86     0.001 C 
HETATM   16  C16 VFQ X1621     -51.472 146.271   9.590  1.00 31.86     0.020 C 
HETATM   17  C17 VFQ X1621     -50.812 143.938  10.053  1.00 31.86     0.020 C 
HETATM   18  C18 VFQ X1621     -47.728 147.651  11.259  1.00 31.86     0.044 C 
HETATM   19  C19 VFQ X1621     -46.673 144.140   7.419  1.00 31.86     0.048 C 
HETATM   20  C20 VFQ X1621     -42.977 140.606   7.057  1.00 31.86     0.048 C 
HETATM   21  O3  VFQ X1621     -51.820 147.024  13.625  1.00 31.86    -0.395 OA
ATOM     22  H3  VFQ X1621     -52.376 146.375  14.040  1.00  0.00     0.210 HD
HETATM   23  C21 VFQ X1621     -33.987 128.346   7.401  1.00 66.61    -0.018 C 
HETATM   24  C22 VFQ X1621     -32.958 127.460   6.709  1.00 66.61     0.045 C 
HETATM   25  C23 VFQ X1621     -31.677 128.107   6.204  1.00 66.61     0.123 C 
HETATM   26  C24 VFQ X1621     -31.911 129.534   5.760  1.00 66.61     0.066 C 
HETATM   27  C25 VFQ X1621     -32.539 130.304   6.886  1.00 66.61    -0.074 C 
HETATM   28  C26 VFQ X1621     -33.551 129.787   7.590  1.00 66.61    -0.048 C 
HETATM   29  C27 VFQ X1621     -34.268 130.613   8.596  1.00 66.61     0.009 C 
HETATM   30  C28 VFQ X1621     -35.300 131.388   8.256  1.00 66.61     0.007 C 
HETATM   31  C29 VFQ X1621     -36.033 132.203   9.237  1.00 31.86    -0.062 C 
HETATM   32  C30 VFQ X1621     -37.013 132.996   8.754  1.00 31.86     0.007 C 
HETATM   33  C31 VFQ X1621     -37.807 133.911   9.574  1.00 31.86     0.001 C 
HETATM   34  C32 VFQ X1621     -38.651 134.747   8.972  1.00 31.86     0.007 C 
HETATM   35  C33 VFQ X1621     -39.425 135.751   9.732  1.00 31.86    -0.062 C 
HETATM   36  C34 VFQ X1621     -40.127 136.648   9.009  1.00 31.86     0.007 C 
HETATM   37  C35 VFQ X1621     -40.908 137.747   9.580  1.00 31.86     0.001 C 
HETATM   38  C36 VFQ X1621     -34.250 127.753   8.776  1.00 66.61     0.020 C 
HETATM   39  C37 VFQ X1621     -35.275 128.270   6.590  1.00 66.61     0.020 C 
HETATM   40  C38 VFQ X1621     -31.961 131.658   7.175  1.00 66.61     0.044 C 
HETATM   41  C39 VFQ X1621     -35.656 132.105  10.694  1.00 31.86     0.048 C 
HETATM   42  C40 VFQ X1621     -39.349 135.758  11.236  1.00 31.86     0.048 C 
HETATM   43  O23 VFQ X1621     -31.201 127.353   5.085  1.00 66.61    -0.395 OA
ATOM     44  H23 VFQ X1621     -31.054 126.457   5.364  1.00  0.00     0.210 HD
ENDROOT
TORSDOF 12
