REMARK VINA RESULT:    -8.984      2.028      2.590
REMARK INTER + INTRA:         -12.046
REMARK INTER:                 -11.749
REMARK INTRA:                  -0.298
REMARK UNBOUND:                -3.062
REMARK  0 active torsions:
REMARK  status: ('A' for Active; 'I' for Inactive)
REMARK       I    between atoms: C3_3  and  O3_21 
REMARK       I    between atoms: C6_6  and  C7_7 
REMARK       I    between atoms: C8_8  and  C9_9 
REMARK       I    between atoms: C10_10  and  C11_11 
REMARK       I    between atoms: C12_12  and  C13_13 
REMARK       I    between atoms: C14_14  and  C15_15 
REMARK       I    between atoms: C23_25  and  O23_43 
REMARK       I    between atoms: C26_28  and  C27_29 
REMARK       I    between atoms: C28_30  and  C29_31 
REMARK       I    between atoms: C30_32  and  C31_33 
REMARK       I    between atoms: C32_34  and  C33_35 
REMARK       I    between atoms: C34_36  and  C35_37 
ROOT
HETATM    1  C1  VFQ J9621     -50.755 145.750   9.455  1.00 21.11    -0.018 C 
HETATM    2  C2  VFQ J9621     -51.707 146.223  10.568  1.00 20.11     0.045 C 
HETATM    3  C3  VFQ J9621     -51.363 147.466  11.388  1.00 19.41     0.123 C 
HETATM    4  C4  VFQ J9621     -49.998 148.108  11.098  1.00 18.39     0.066 C 
HETATM    5  C5  VFQ J9621     -48.997 147.464  10.198  1.00 18.34    -0.074 C 
HETATM    6  C6  VFQ J9621     -49.312 146.381   9.410  1.00 19.81    -0.048 C 
HETATM    7  C7  VFQ J9621     -48.390 145.721   8.458  1.00 19.02     0.009 C 
HETATM    8  C8  VFQ J9621     -47.451 144.815   8.794  1.00 17.97     0.007 C 
HETATM    9  C9  VFQ J9621     -46.509 144.124   7.908  1.00 18.85    -0.062 C 
HETATM   10  C10 VFQ J9621     -45.738 143.155   8.454  1.00 18.38     0.007 C 
HETATM   11  C11 VFQ J9621     -44.808 142.286   7.771  1.00 18.57     0.001 C 
HETATM   12  C12 VFQ J9621     -44.152 141.294   8.412  1.00 17.11     0.007 C 
HETATM   13  C13 VFQ J9621     -43.248 140.292   7.828  1.00 20.42    -0.062 C 
HETATM   14  C14 VFQ J9621     -42.721 139.356   8.651  1.00 20.50     0.007 C 
HETATM   15  C15 VFQ J9621     -41.857 138.263   8.276  1.00 20.22     0.001 C 
HETATM   16  C16 VFQ J9621     -51.532 146.062   8.152  1.00 19.56     0.020 C 
HETATM   17  C17 VFQ J9621     -50.675 144.217   9.606  1.00 18.49     0.020 C 
HETATM   18  C18 VFQ J9621     -47.732 148.237  10.261  1.00 16.89     0.044 C 
HETATM   19  C19 VFQ J9621     -46.524 144.490   6.451  1.00 14.61     0.048 C 
HETATM   20  C20 VFQ J9621     -42.992 140.345   6.339  1.00 17.59     0.048 C 
HETATM   21  O3  VFQ J9621     -52.393 148.431  11.269  1.00 18.27    -0.395 OA
ATOM     22  H3  VFQ J9621     -52.179 149.203  11.779  1.00  0.00     0.210 HD
HETATM   23  C21 VFQ J9621     -33.969 127.945   7.216  1.00 19.07    -0.018 C 
HETATM   24  C22 VFQ J9621     -33.066 127.246   6.183  1.00 18.69     0.045 C 
HETATM   25  C23 VFQ J9621     -31.715 127.893   5.885  1.00 19.88     0.123 C 
HETATM   26  C24 VFQ J9621     -31.745 129.429   5.904  1.00 19.59     0.066 C 
HETATM   27  C25 VFQ J9621     -32.663 130.099   6.879  1.00 18.61    -0.074 C 
HETATM   28  C26 VFQ J9621     -33.703 129.447   7.508  1.00 18.29    -0.048 C 
HETATM   29  C27 VFQ J9621     -34.586 130.147   8.466  1.00 19.20     0.009 C 
HETATM   30  C28 VFQ J9621     -35.604 131.002   8.196  1.00 18.47     0.007 C 
HETATM   31  C29 VFQ J9621     -36.366 131.822   9.149  1.00 19.55    -0.062 C 
HETATM   32  C30 VFQ J9621     -37.321 132.653   8.675  1.00 17.66     0.007 C 
HETATM   33  C31 VFQ J9621     -38.155 133.533   9.457  1.00 19.12     0.001 C 
HETATM   34  C32 VFQ J9621     -38.970 134.454   8.892  1.00 19.40     0.007 C 
HETATM   35  C33 VFQ J9621     -39.853 135.444   9.535  1.00 19.31    -0.062 C 
HETATM   36  C34 VFQ J9621     -40.494 136.326   8.739  1.00 17.72     0.007 C 
HETATM   37  C35 VFQ J9621     -41.352 137.400   9.156  1.00 19.92     0.001 C 
HETATM   38  C36 VFQ J9621     -33.911 127.134   8.526  1.00 17.04     0.020 C 
HETATM   39  C37 VFQ J9621     -35.364 127.765   6.588  1.00 20.18     0.020 C 
HETATM   40  C38 VFQ J9621     -32.216 131.509   7.007  1.00 19.93     0.044 C 
HETATM   41  C39 VFQ J9621     -35.978 131.732  10.601  1.00 18.53     0.048 C 
HETATM   42  C40 VFQ J9621     -39.926 135.450  11.039  1.00 15.86     0.048 C 
HETATM   43  O23 VFQ J9621     -31.200 127.420   4.649  1.00 19.51    -0.395 OA
ATOM     44  H23 VFQ J9621     -30.360 127.823   4.465  1.00  0.00     0.210 HD
ENDROOT
TORSDOF 12
