REMARK VINA RESULT:    -8.997      0.000      0.000
REMARK INTER + INTRA:         -11.620
REMARK INTER:                  -8.997
REMARK INTRA:                  -2.624
REMARK UNBOUND:                -2.624
REMARK  0 active torsions:
REMARK  status: ('A' for Active; 'I' for Inactive)
REMARK       I    between atoms: C3_3  and  O3_21 
REMARK       I    between atoms: C6_6  and  C7_7 
REMARK       I    between atoms: C8_8  and  C9_9 
REMARK       I    between atoms: C10_10  and  C11_11 
REMARK       I    between atoms: C12_12  and  C13_13 
REMARK       I    between atoms: C14_14  and  C15_15 
REMARK       I    between atoms: C23_25  and  O23_43 
REMARK       I    between atoms: C26_28  and  C27_29 
REMARK       I    between atoms: C28_30  and  C29_31 
REMARK       I    between atoms: C30_32  and  C31_33 
REMARK       I    between atoms: C32_34  and  C33_35 
REMARK       I    between atoms: C34_36  and  C35_37 
ROOT
HETATM    1  C1  VFQ s1620     -34.541 127.054   6.245  1.00 51.12    -0.018 C 
HETATM    2  C2  VFQ s1620     -34.186 126.498   4.873  1.00 51.12     0.045 C 
HETATM    3  C3  VFQ s1620     -32.926 126.985   4.173  1.00 51.12     0.123 C 
HETATM    4  C4  VFQ s1620     -31.967 127.696   5.103  1.00 51.12     0.066 C 
HETATM    5  C5  VFQ s1620     -32.715 128.699   5.918  1.00 51.12    -0.074 C 
HETATM    6  C6  VFQ s1620     -33.782 128.312   6.607  1.00 51.12    -0.048 C 
HETATM    7  C7  VFQ s1620     -34.250 129.090   7.768  1.00 51.12     0.009 C 
HETATM    8  C8  VFQ s1620     -34.986 130.178   7.589  1.00 51.12     0.007 C 
HETATM    9  C9  VFQ s1620     -35.487 130.950   8.722  1.00 51.12    -0.062 C 
HETATM   10  C10 VFQ s1620     -36.187 132.038   8.412  1.00 51.12     0.007 C 
HETATM   11  C11 VFQ s1620     -36.813 132.941   9.357  1.00 51.12     0.001 C 
HETATM   12  C12 VFQ s1620     -37.700 133.725   8.771  1.00 51.12     0.007 C 
HETATM   13  C13 VFQ s1620     -38.515 134.712   9.474  1.00 51.12    -0.062 C 
HETATM   14  C14 VFQ s1620     -39.452 135.338   8.760  1.00 51.12     0.007 C 
HETATM   15  C15 VFQ s1620     -40.356 136.303   9.357  1.00 51.12     0.001 C 
HETATM   16  C16 VFQ s1620     -34.339 125.941   7.267  1.00 51.12     0.020 C 
HETATM   17  C17 VFQ s1620     -36.015 127.413   6.234  1.00 51.12     0.020 C 
HETATM   18  C18 VFQ s1620     -31.672 129.609   6.489  1.00 51.12     0.044 C 
HETATM   19  C19 VFQ s1620     -35.224 130.505  10.127  1.00 51.12     0.048 C 
HETATM   20  C20 VFQ s1620     -38.308 134.984  10.926  1.00 51.12     0.048 C 
HETATM   21  O3  VFQ s1620     -32.235 125.850   3.644  1.00 51.12    -0.395 OA
ATOM     22  H3  VFQ s1620     -32.838 125.405   3.061  1.00  0.00     0.210 HD
HETATM   23  C21 VFQ s1620     -49.983 143.131  12.555  1.00 56.99    -0.018 C 
HETATM   24  C22 VFQ s1620     -51.030 143.939  13.319  1.00 56.99     0.045 C 
HETATM   25  C23 VFQ s1620     -50.775 145.426  13.520  1.00 56.99     0.123 C 
HETATM   26  C24 VFQ s1620     -49.293 145.736  13.599  1.00 56.99     0.066 C 
HETATM   27  C25 VFQ s1620     -48.617 145.191  12.376  1.00 56.99    -0.074 C 
HETATM   28  C26 VFQ s1620     -48.889 143.968  11.922  1.00 56.99    -0.048 C 
HETATM   29  C27 VFQ s1620     -48.125 143.423  10.768  1.00 56.99     0.009 C 
HETATM   30  C28 VFQ s1620     -47.042 142.663  10.945  1.00 56.99     0.007 C 
HETATM   31  C29 VFQ s1620     -46.264 142.106   9.845  1.00 51.12    -0.062 C 
HETATM   32  C30 VFQ s1620     -45.608 140.964  10.062  1.00 51.12     0.007 C 
HETATM   33  C31 VFQ s1620     -44.821 140.277   9.051  1.00 51.12     0.001 C 
HETATM   34  C32 VFQ s1620     -43.988 139.353   9.505  1.00 51.12     0.007 C 
HETATM   35  C33 VFQ s1620     -43.132 138.531   8.640  1.00 51.12    -0.062 C 
HETATM   36  C34 VFQ s1620     -42.222 137.775   9.256  1.00 51.12     0.007 C 
HETATM   37  C35 VFQ s1620     -41.305 136.854   8.607  1.00 51.12     0.001 C 
HETATM   38  C36 VFQ s1620     -50.699 142.415  11.429  1.00 56.99     0.020 C 
HETATM   39  C37 VFQ s1620     -49.412 142.077  13.502  1.00 56.99     0.020 C 
HETATM   40  C38 VFQ s1620     -47.642 146.089  11.683  1.00 56.99     0.044 C 
HETATM   41  C39 VFQ s1620     -46.217 142.800   8.521  1.00 51.12     0.048 C 
HETATM   42  C40 VFQ s1620     -43.304 138.529   7.154  1.00 51.12     0.048 C 
HETATM   43  O23 VFQ s1620     -51.385 145.837  14.747  1.00 56.99    -0.395 OA
ATOM     44  H23 VFQ s1620     -51.226 146.765  14.873  1.00  0.00     0.210 HD
ENDROOT
TORSDOF 12
