REMARK VINA RESULT:    -9.927      0.000      0.000
REMARK INTER + INTRA:         -12.815
REMARK INTER:                  -9.927
REMARK INTRA:                  -2.888
REMARK UNBOUND:                -2.888
REMARK  0 active torsions:
REMARK  status: ('A' for Active; 'I' for Inactive)
REMARK       I    between atoms: C3_3  and  O3_21 
REMARK       I    between atoms: C6_6  and  C7_7 
REMARK       I    between atoms: C8_8  and  C9_9 
REMARK       I    between atoms: C10_10  and  C11_11 
REMARK       I    between atoms: C12_12  and  C13_13 
REMARK       I    between atoms: C14_14  and  C15_15 
REMARK       I    between atoms: C23_25  and  O23_43 
REMARK       I    between atoms: C26_28  and  C27_29 
REMARK       I    between atoms: C28_30  and  C29_31 
REMARK       I    between atoms: C30_32  and  C31_33 
REMARK       I    between atoms: C32_34  and  C33_35 
REMARK       I    between atoms: C34_36  and  C35_37 
ROOT
HETATM    1  C1  VFQ 6 621     -34.362 127.598   6.415  1.00 27.76    -0.018 C 
HETATM    2  C2  VFQ 6 621     -33.716 127.174   5.099  1.00 27.76     0.045 C 
HETATM    3  C3  VFQ 6 621     -32.342 127.719   4.730  1.00 27.76     0.123 C 
HETATM    4  C4  VFQ 6 621     -31.526 128.100   5.946  1.00 27.76     0.066 C 
HETATM    5  C5  VFQ 6 621     -32.349 129.002   6.823  1.00 27.76    -0.074 C 
HETATM    6  C6  VFQ 6 621     -33.614 128.705   7.129  1.00 27.76    -0.048 C 
HETATM    7  C7  VFQ 6 621     -34.293 129.462   8.210  1.00 27.76     0.009 C 
HETATM    8  C8  VFQ 6 621     -35.038 130.549   7.978  1.00 27.76     0.007 C 
HETATM    9  C9  VFQ 6 621     -35.689 131.284   9.076  1.00 27.76    -0.062 C 
HETATM   10  C10 VFQ 6 621     -36.458 132.345   8.770  1.00 27.76     0.007 C 
HETATM   11  C11 VFQ 6 621     -37.167 133.211   9.715  1.00 27.76     0.001 C 
HETATM   12  C12 VFQ 6 621     -37.726 134.300   9.196  1.00 27.76     0.007 C 
HETATM   13  C13 VFQ 6 621     -38.512 135.331   9.900  1.00 27.76    -0.062 C 
HETATM   14  C14 VFQ 6 621     -39.247 136.147   9.132  1.00 27.76     0.007 C 
HETATM   15  C15 VFQ 6 621     -40.117 137.204   9.635  1.00 27.76     0.001 C 
HETATM   16  C16 VFQ 6 621     -34.486 126.347   7.281  1.00 27.76     0.020 C 
HETATM   17  C17 VFQ 6 621     -35.759 128.118   6.120  1.00 27.76     0.020 C 
HETATM   18  C18 VFQ 6 621     -31.526 129.912   7.689  1.00 27.76     0.044 C 
HETATM   19  C19 VFQ 6 621     -35.468 130.828  10.483  1.00 27.76     0.048 C 
HETATM   20  C20 VFQ 6 621     -38.503 135.467  11.388  1.00 27.76     0.048 C 
HETATM   21  O3  VFQ 6 621     -31.621 126.728   3.992  1.00 27.76    -0.395 OA
ATOM     22  H3  VFQ 6 621     -30.764 127.068   3.762  1.00  0.00     0.210 HD
HETATM   23  C21 VFQ 6 621     -50.066 145.307   8.913  1.00 17.81    -0.018 C 
HETATM   24  C22 VFQ 6 621     -50.921 146.196   9.842  1.00 18.03     0.045 C 
HETATM   25  C23 VFQ 6 621     -50.402 147.611  10.082  1.00 19.41     0.123 C 
HETATM   26  C24 VFQ 6 621     -48.910 147.639  10.403  1.00 18.47     0.066 C 
HETATM   27  C25 VFQ 6 621     -48.047 146.747   9.573  1.00 18.29    -0.074 C 
HETATM   28  C26 VFQ 6 621     -48.546 145.658   8.866  1.00 18.07    -0.048 C 
HETATM   29  C27 VFQ 6 621     -47.662 144.797   8.047  1.00 17.25     0.009 C 
HETATM   30  C28 VFQ 6 621     -46.858 143.813   8.494  1.00 17.01     0.007 C 
HETATM   31  C29 VFQ 6 621     -45.902 143.048   7.723  1.00 27.76    -0.062 C 
HETATM   32  C30 VFQ 6 621     -45.343 141.997   8.329  1.00 27.76     0.007 C 
HETATM   33  C31 VFQ 6 621     -44.381 141.084   7.728  1.00 27.76     0.001 C 
HETATM   34  C32 VFQ 6 621     -43.738 140.308   8.593  1.00 27.76     0.007 C 
HETATM   35  C33 VFQ 6 621     -42.751 139.294   8.206  1.00 27.76    -0.062 C 
HETATM   36  C34 VFQ 6 621     -42.008 138.694   9.150  1.00 27.76     0.007 C 
HETATM   37  C35 VFQ 6 621     -41.042 137.659   8.790  1.00 27.76     0.001 C 
HETATM   38  C36 VFQ 6 621     -50.659 145.318   7.497  1.00 16.04     0.020 C 
HETATM   39  C37 VFQ 6 621     -50.287 143.904   9.482  1.00 17.79     0.020 C 
HETATM   40  C38 VFQ 6 621     -46.657 147.269   9.677  1.00 17.18     0.044 C 
HETATM   41  C39 VFQ 6 621     -45.577 143.426   6.309  1.00 27.76     0.048 C 
HETATM   42  C40 VFQ 6 621     -42.620 138.927   6.765  1.00 27.76     0.048 C 
HETATM   43  O23 VFQ 6 621     -51.144 148.251  11.112  1.00 19.31    -0.395 OA
ATOM     44  H23 VFQ 6 621     -50.821 149.132  11.262  1.00  0.00     0.210 HD
ENDROOT
TORSDOF 12
