REMARK VINA RESULT:   -10.355      0.000      0.000
REMARK INTER + INTRA:         -13.562
REMARK INTER:                 -10.355
REMARK INTRA:                  -3.207
REMARK UNBOUND:                -3.207
REMARK  0 active torsions:
REMARK  status: ('A' for Active; 'I' for Inactive)
REMARK       I    between atoms: C3_3  and  O3_21 
REMARK       I    between atoms: C6_6  and  C7_7 
REMARK       I    between atoms: C8_8  and  C9_9 
REMARK       I    between atoms: C10_10  and  C11_11 
REMARK       I    between atoms: C12_12  and  C13_13 
REMARK       I    between atoms: C14_14  and  C15_15 
REMARK       I    between atoms: C23_25  and  O23_43 
REMARK       I    between atoms: C26_28  and  C27_29 
REMARK       I    between atoms: C28_30  and  C29_31 
REMARK       I    between atoms: C30_32  and  C31_33 
REMARK       I    between atoms: C32_34  and  C33_35 
REMARK       I    between atoms: C34_36  and  C35_37 
ROOT
HETATM    1  C1  VFQ B1621     -47.964 145.873  12.637  1.00 16.49    -0.018 C 
HETATM    2  C2  VFQ B1621     -48.727 146.532  13.802  1.00 14.93     0.045 C 
HETATM    3  C3  VFQ B1621     -47.981 147.419  14.793  1.00 15.86     0.123 C 
HETATM    4  C4  VFQ B1621     -46.649 147.995  14.273  1.00 14.41     0.066 C 
HETATM    5  C5  VFQ B1621     -45.923 147.328  13.137  1.00 15.44    -0.074 C 
HETATM    6  C6  VFQ B1621     -46.504 146.353  12.350  1.00 14.73    -0.048 C 
HETATM    7  C7  VFQ B1621     -45.836 145.705  11.194  1.00 14.04     0.009 C 
HETATM    8  C8  VFQ B1621     -44.957 144.679  11.278  1.00 12.72     0.007 C 
HETATM    9  C9  VFQ B1621     -44.208 144.015  10.207  1.00 12.70    -0.062 C 
HETATM   10  C10 VFQ B1621     -43.490 142.918  10.540  1.00 13.26     0.007 C 
HETATM   11  C11 VFQ B1621     -42.759 142.047   9.648  1.00 13.12     0.001 C 
HETATM   12  C12 VFQ B1621     -42.132 140.936  10.103  1.00 12.34     0.007 C 
HETATM   13  C13 VFQ B1621     -41.464 139.900   9.292  1.00 12.89    -0.062 C 
HETATM   14  C14 VFQ B1621     -40.911 138.845   9.934  1.00 12.03     0.007 C 
HETATM   15  C15 VFQ B1621     -40.256 137.701   9.333  1.00 13.59     0.001 C 
HETATM   16  C16 VFQ B1621     -48.893 146.189  11.437  1.00 14.27     0.020 C 
HETATM   17  C17 VFQ B1621     -47.973 144.344  12.892  1.00 12.26     0.020 C 
HETATM   18  C18 VFQ B1621     -44.565 147.919  12.943  1.00 13.78     0.044 C 
HETATM   19  C19 VFQ B1621     -44.349 144.552   8.813  1.00  8.79     0.048 C 
HETATM   20  C20 VFQ B1621     -41.474 140.076   7.792  1.00  8.63     0.048 C 
HETATM   21  O3  VFQ B1621     -48.829 148.461  15.254  1.00 14.46    -0.395 OA
ATOM     22  H3  VFQ B1621     -48.364 149.014  15.871  1.00  0.00     0.210 HD
HETATM   23  C21 VFQ B1621     -34.205 126.699   6.440  1.00 90.34    -0.018 C 
HETATM   24  C22 VFQ B1621     -33.561 125.850   5.349  1.00 90.34     0.045 C 
HETATM   25  C23 VFQ B1621     -32.479 126.494   4.496  1.00 90.34     0.123 C 
HETATM   26  C24 VFQ B1621     -32.729 127.976   4.304  1.00 90.34     0.066 C 
HETATM   27  C25 VFQ B1621     -32.828 128.600   5.666  1.00 90.34    -0.074 C 
HETATM   28  C26 VFQ B1621     -33.653 128.101   6.584  1.00 90.34    -0.048 C 
HETATM   29  C27 VFQ B1621     -34.049 128.883   7.781  1.00 90.34     0.009 C 
HETATM   30  C28 VFQ B1621     -35.006 129.812   7.711  1.00 90.34     0.007 C 
HETATM   31  C29 VFQ B1621     -35.491 130.626   8.856  1.00 21.33    -0.062 C 
HETATM   32  C30 VFQ B1621     -36.431 131.570   8.623  1.00 19.38     0.007 C 
HETATM   33  C31 VFQ B1621     -37.004 132.461   9.605  1.00 19.44     0.001 C 
HETATM   34  C32 VFQ B1621     -37.785 133.508   9.227  1.00 17.56     0.007 C 
HETATM   35  C33 VFQ B1621     -38.400 134.554  10.059  1.00 14.52    -0.062 C 
HETATM   36  C34 VFQ B1621     -39.050 135.560   9.433  1.00 13.82     0.007 C 
HETATM   37  C35 VFQ B1621     -39.691 136.711  10.049  1.00 15.60     0.001 C 
HETATM   38  C36 VFQ B1621     -33.969 126.010   7.771  1.00 90.34     0.020 C 
HETATM   39  C37 VFQ B1621     -35.700 126.721   6.150  1.00 90.34     0.020 C 
HETATM   40  C38 VFQ B1621     -31.947 129.775   5.948  1.00 90.34     0.044 C 
HETATM   41  C39 VFQ B1621     -34.850 130.407  10.189  1.00 21.43     0.048 C 
HETATM   42  C40 VFQ B1621     -38.203 134.469  11.538  1.00 13.28     0.048 C 
HETATM   43  O23 VFQ B1621     -32.495 125.867   3.214  1.00 90.34    -0.395 OA
ATOM     44  H23 VFQ B1621     -32.339 124.938   3.334  1.00  0.00     0.210 HD
ENDROOT
TORSDOF 12
