REMARK VINA RESULT:    -6.544      1.264     16.442
REMARK INTER + INTRA:          -9.386
REMARK INTER:                  -9.032
REMARK INTRA:                  -0.354
REMARK UNBOUND:                -2.842
REMARK  0 active torsions:
REMARK  status: ('A' for Active; 'I' for Inactive)
REMARK       I    between atoms: C3_3  and  O3_21 
REMARK       I    between atoms: C6_6  and  C7_7 
REMARK       I    between atoms: C8_8  and  C9_9 
REMARK       I    between atoms: C10_10  and  C11_11 
REMARK       I    between atoms: C12_12  and  C13_13 
REMARK       I    between atoms: C14_14  and  C15_15 
REMARK       I    between atoms: C23_25  and  O23_43 
REMARK       I    between atoms: C26_28  and  C27_29 
REMARK       I    between atoms: C28_30  and  C29_31 
REMARK       I    between atoms: C30_32  and  C31_33 
REMARK       I    between atoms: C32_34  and  C33_35 
REMARK       I    between atoms: C34_36  and  C35_37 
ROOT
HETATM    1  C1  VFQ 51620     -50.196 144.172  11.778  1.00 94.67    -0.018 C 
HETATM    2  C2  VFQ 51620     -50.789 144.444  13.154  1.00 94.67     0.045 C 
HETATM    3  C3  VFQ 51620     -50.082 145.480  14.003  1.00 94.67     0.123 C 
HETATM    4  C4  VFQ 51620     -49.741 146.667  13.144  1.00 94.67     0.066 C 
HETATM    5  C5  VFQ 51620     -48.840 146.240  12.027  1.00 94.67    -0.074 C 
HETATM    6  C6  VFQ 51620     -49.054 145.090  11.386  1.00 94.67    -0.048 C 
HETATM    7  C7  VFQ 51620     -48.187 144.678  10.256  1.00 94.67     0.009 C 
HETATM    8  C8  VFQ 51620     -47.074 143.977  10.462  1.00 94.67     0.007 C 
HETATM    9  C9  VFQ 51620     -46.199 143.531   9.378  1.00 94.67    -0.062 C 
HETATM   10  C10 VFQ 51620     -45.163 142.783   9.745  1.00 94.67     0.007 C 
HETATM   11  C11 VFQ 51620     -44.193 142.220   8.824  1.00 94.67     0.001 C 
HETATM   12  C12 VFQ 51620     -43.489 141.242   9.369  1.00 94.67     0.007 C 
HETATM   13  C13 VFQ 51620     -42.464 140.477   8.664  1.00 94.67    -0.062 C 
HETATM   14  C14 VFQ 51620     -41.924 139.460   9.332  1.00 94.67     0.007 C 
HETATM   15  C15 VFQ 51620     -40.917 138.572   8.775  1.00 94.67     0.001 C 
HETATM   16  C16 VFQ 51620     -51.355 144.279  10.793  1.00 94.67     0.020 C 
HETATM   17  C17 VFQ 51620     -49.646 142.753  11.788  1.00 94.67     0.020 C 
HETATM   18  C18 VFQ 51620     -47.745 147.195  11.653  1.00 94.67     0.044 C 
HETATM   19  C19 VFQ 51620     -46.465 143.895   7.950  1.00 94.67     0.048 C 
HETATM   20  C20 VFQ 51620     -42.070 140.813   7.261  1.00 94.67     0.048 C 
HETATM   21  O3  VFQ 51620     -50.973 145.916  15.029  1.00 94.67    -0.395 OA
ATOM     22  H3  VFQ 51620     -50.529 146.565  15.562  1.00  0.00     0.210 HD
HETATM   23  C21 VFQ 51620     -34.099 128.420   6.866  1.00 73.56    -0.018 C 
HETATM   24  C22 VFQ 51620     -33.055 127.631   6.072  1.00 73.56     0.045 C 
HETATM   25  C23 VFQ 51620     -31.602 128.094   6.124  1.00 73.56     0.123 C 
HETATM   26  C24 VFQ 51620     -31.503 129.600   6.307  1.00 73.56     0.066 C 
HETATM   27  C25 VFQ 51620     -32.261 129.952   7.559  1.00 73.56    -0.074 C 
HETATM   28  C26 VFQ 51620     -33.527 129.549   7.711  1.00 73.56    -0.048 C 
HETATM   29  C27 VFQ 51620     -34.390 130.182   8.740  1.00 73.56     0.009 C 
HETATM   30  C28 VFQ 51620     -35.062 131.315   8.522  1.00 73.56     0.007 C 
HETATM   31  C29 VFQ 51620     -35.911 131.918   9.560  1.00 94.67    -0.062 C 
HETATM   32  C30 VFQ 51620     -36.706 132.900   9.139  1.00 94.67     0.007 C 
HETATM   33  C31 VFQ 51620     -37.631 133.655   9.964  1.00 94.67     0.001 C 
HETATM   34  C32 VFQ 51620     -38.128 134.691   9.312  1.00 94.67     0.007 C 
HETATM   35  C33 VFQ 51620     -39.084 135.645   9.868  1.00 94.67    -0.062 C 
HETATM   36  C34 VFQ 51620     -39.626 136.535   9.032  1.00 94.67     0.007 C 
HETATM   37  C35 VFQ 51620     -40.601 137.507   9.500  1.00 94.67     0.001 C 
HETATM   38  C36 VFQ 51620     -34.797 127.461   7.823  1.00 73.56     0.020 C 
HETATM   39  C37 VFQ 51620     -35.128 128.953   5.871  1.00 73.56     0.020 C 
HETATM   40  C38 VFQ 51620     -31.548 130.725   8.632  1.00 73.56     0.044 C 
HETATM   41  C39 VFQ 51620     -35.887 131.457  10.983  1.00 94.67     0.048 C 
HETATM   42  C40 VFQ 51620     -39.415 135.627  11.325  1.00 94.67     0.048 C 
HETATM   43  O23 VFQ 51620     -30.952 127.725   4.901  1.00 73.56    -0.395 OA
ATOM     44  H23 VFQ 51620     -30.047 128.012   4.933  1.00  0.00     0.210 HD
ENDROOT
TORSDOF 12
