REMARK VINA RESULT:    -6.450      2.552     16.710
REMARK INTER + INTRA:          -8.708
REMARK INTER:                  -4.283
REMARK INTRA:                  -4.425
REMARK UNBOUND:                -2.259
REMARK  0 active torsions:
REMARK  status: ('A' for Active; 'I' for Inactive)
REMARK       I    between atoms: C3_3  and  O3_21 
REMARK       I    between atoms: C6_6  and  C7_7 
REMARK       I    between atoms: C8_8  and  C9_9 
REMARK       I    between atoms: C10_10  and  C11_11 
REMARK       I    between atoms: C12_12  and  C13_13 
REMARK       I    between atoms: C14_14  and  C15_15 
REMARK       I    between atoms: C23_25  and  O23_43 
REMARK       I    between atoms: C26_28  and  C27_29 
REMARK       I    between atoms: C28_30  and  C29_31 
REMARK       I    between atoms: C30_32  and  C31_33 
REMARK       I    between atoms: C32_34  and  C33_35 
REMARK       I    between atoms: C34_36  and  C35_37 
ROOT
HETATM    1  C1  VFQ 2 619     -49.986 149.930   7.048  1.00 46.63    -0.018 C 
HETATM    2  C2  VFQ 2 619     -50.616 149.085   5.944  1.00 46.63     0.045 C 
HETATM    3  C3  VFQ 2 619     -51.692 148.115   6.417  1.00 46.63     0.123 C 
HETATM    4  C4  VFQ 2 619     -52.468 148.731   7.567  1.00 46.63     0.066 C 
HETATM    5  C5  VFQ 2 619     -51.504 148.925   8.705  1.00 46.63    -0.074 C 
HETATM    6  C6  VFQ 2 619     -50.294 149.424   8.433  1.00 46.63    -0.048 C 
HETATM    7  C7  VFQ 2 619     -49.170 149.162   9.327  1.00 46.63     0.009 C 
HETATM    8  C8  VFQ 2 619     -48.896 147.855   9.239  1.00 46.63     0.007 C 
HETATM    9  C9  VFQ 2 619     -47.715 147.245   9.898  1.00 46.63    -0.062 C 
HETATM   10  C10 VFQ 2 619     -47.382 145.991   9.543  1.00 46.63     0.007 C 
HETATM   11  C11 VFQ 2 619     -46.207 145.282  10.054  1.00 46.63     0.001 C 
HETATM   12  C12 VFQ 2 619     -45.907 144.074   9.588  1.00 46.63     0.007 C 
HETATM   13  C13 VFQ 2 619     -44.711 143.342  10.053  1.00 46.63    -0.062 C 
HETATM   14  C14 VFQ 2 619     -44.452 142.173   9.443  1.00 46.63     0.007 C 
HETATM   15  C15 VFQ 2 619     -43.321 141.297   9.736  1.00 46.63     0.001 C 
HETATM   16  C16 VFQ 2 619     -50.532 151.350   6.972  1.00 46.63     0.020 C 
HETATM   17  C17 VFQ 2 619     -48.474 149.956   6.876  1.00 46.63     0.020 C 
HETATM   18  C18 VFQ 2 619     -51.886 148.334  10.037  1.00 46.63     0.044 C 
HETATM   19  C19 VFQ 2 619     -46.916 148.039  10.895  1.00 46.63     0.048 C 
HETATM   20  C20 VFQ 2 619     -43.858 143.919  11.147  1.00 46.63     0.048 C 
HETATM   21  O3  VFQ 2 619     -52.592 147.833   5.342  1.00 46.63    -0.395 OA
ATOM     22  H3  VFQ 2 619     -53.263 147.228   5.637  1.00  0.00     0.210 HD
HETATM   23  C21 VFQ 2 619     -34.740 132.236   8.642  1.00 59.27    -0.018 C 
HETATM   24  C22 VFQ 2 619     -33.496 131.667   9.308  1.00 64.60     0.045 C 
HETATM   25  C23 VFQ 2 619     -33.746 130.490  10.225  1.00 63.28     0.123 C 
HETATM   26  C24 VFQ 2 619     -34.779 130.855  11.257  1.00 61.00     0.066 C 
HETATM   27  C25 VFQ 2 619     -36.040 131.319  10.587  1.00 64.87    -0.074 C 
HETATM   28  C26 VFQ 2 619     -36.029 131.983   9.412  1.00 63.96    -0.048 C 
HETATM   29  C27 VFQ 2 619     -37.296 132.454   8.793  1.00 64.82     0.009 C 
HETATM   30  C28 VFQ 2 619     -37.869 133.618   9.115  1.00 58.91     0.007 C 
HETATM   31  C29 VFQ 2 619     -39.109 134.086   8.497  1.00 46.63    -0.062 C 
HETATM   32  C30 VFQ 2 619     -39.492 135.305   8.892  1.00 46.63     0.007 C 
HETATM   33  C31 VFQ 2 619     -40.669 136.016   8.420  1.00 46.63     0.001 C 
HETATM   34  C32 VFQ 2 619     -40.864 137.221   8.945  1.00 46.63     0.007 C 
HETATM   35  C33 VFQ 2 619     -42.010 138.070   8.590  1.00 46.63    -0.062 C 
HETATM   36  C34 VFQ 2 619     -42.133 139.236   9.250  1.00 46.63     0.007 C 
HETATM   37  C35 VFQ 2 619     -43.223 140.181   9.026  1.00 46.63     0.001 C 
HETATM   38  C36 VFQ 2 619     -34.906 131.578   7.283  1.00 56.55     0.020 C 
HETATM   39  C37 VFQ 2 619     -34.450 133.721   8.443  1.00 59.14     0.020 C 
HETATM   40  C38 VFQ 2 619     -37.301 130.979  11.329  1.00 61.00     0.044 C 
HETATM   41  C39 VFQ 2 619     -39.820 133.252   7.474  1.00 46.63     0.048 C 
HETATM   42  C40 VFQ 2 619     -42.954 137.583   7.530  1.00 46.63     0.048 C 
HETATM   43  O23 VFQ 2 619     -32.525 130.149  10.886  1.00 73.40    -0.395 OA
ATOM     44  H23 VFQ 2 619     -31.873 129.917  10.235  1.00  0.00     0.210 HD
ENDROOT
TORSDOF 12
