REMARK VINA RESULT:   -11.962      0.000      0.000
REMARK INTER + INTRA:         -12.133
REMARK INTER:                 -11.962
REMARK INTRA:                  -0.171
REMARK UNBOUND:                -0.171
REMARK  0 active torsions:
REMARK  status: ('A' for Active; 'I' for Inactive)
REMARK       I    between atoms: C3_3  and  O3_21 
REMARK       I    between atoms: C6_6  and  C7_7 
REMARK       I    between atoms: C8_8  and  C9_9 
REMARK       I    between atoms: C10_10  and  C11_11 
REMARK       I    between atoms: C12_12  and  C13_13 
REMARK       I    between atoms: C14_14  and  C15_15 
REMARK       I    between atoms: C23_25  and  O23_43 
REMARK       I    between atoms: C26_28  and  C27_29 
REMARK       I    between atoms: C28_30  and  C29_31 
REMARK       I    between atoms: C30_32  and  C31_33 
REMARK       I    between atoms: C32_34  and  C33_35 
REMARK       I    between atoms: C34_36  and  C35_37 
ROOT
HETATM    1  C1  VFQ X1621     -34.243 128.096   6.941  1.00 31.86    -0.018 C 
HETATM    2  C2  VFQ X1621     -33.647 127.894   5.543  1.00 31.86     0.045 C 
HETATM    3  C3  VFQ X1621     -32.359 128.645   5.227  1.00 31.86     0.123 C 
HETATM    4  C4  VFQ X1621     -31.646 129.103   6.492  1.00 31.86     0.066 C 
HETATM    5  C5  VFQ X1621     -32.636 129.915   7.272  1.00 31.86    -0.074 C 
HETATM    6  C6  VFQ X1621     -33.770 129.338   7.666  1.00 31.86    -0.048 C 
HETATM    7  C7  VFQ X1621     -34.683 129.963   8.646  1.00 31.86     0.009 C 
HETATM    8  C8  VFQ X1621     -34.775 131.296   8.693  1.00 31.86     0.007 C 
HETATM    9  C9  VFQ X1621     -35.857 131.899   9.504  1.00 31.86    -0.062 C 
HETATM   10  C10 VFQ X1621     -36.271 133.131   9.144  1.00 31.86     0.007 C 
HETATM   11  C11 VFQ X1621     -37.434 133.791   9.733  1.00 31.86     0.001 C 
HETATM   12  C12 VFQ X1621     -37.937 134.873   9.142  1.00 31.86     0.007 C 
HETATM   13  C13 VFQ X1621     -39.166 135.527   9.644  1.00 31.86    -0.062 C 
HETATM   14  C14 VFQ X1621     -39.683 136.526   8.899  1.00 31.86     0.007 C 
HETATM   15  C15 VFQ X1621     -40.904 137.258   9.240  1.00 31.86     0.001 C 
HETATM   16  C16 VFQ X1621     -33.823 126.931   7.834  1.00 31.86     0.020 C 
HETATM   17  C17 VFQ X1621     -35.758 128.075   6.814  1.00 31.86     0.020 C 
HETATM   18  C18 VFQ X1621     -31.786 130.728   8.208  1.00 31.86     0.044 C 
HETATM   19  C19 VFQ X1621     -36.507 131.099  10.609  1.00 31.86     0.048 C 
HETATM   20  C20 VFQ X1621     -39.786 135.028  10.926  1.00 31.86     0.048 C 
HETATM   21  O3  VFQ X1621     -31.532 127.734   4.506  1.00 31.86    -0.395 OA
ATOM     22  H3  VFQ X1621     -31.977 127.449   3.716  1.00  0.00     0.210 HD
HETATM   23  C21 VFQ X1621     -50.629 145.647   9.238  1.00 90.34    -0.018 C 
HETATM   24  C22 VFQ X1621     -51.730 146.368  10.009  1.00 90.34     0.045 C 
HETATM   25  C23 VFQ X1621     -51.347 147.076  11.299  1.00 90.34     0.123 C 
HETATM   26  C24 VFQ X1621     -50.218 146.359  12.012  1.00 90.34     0.066 C 
HETATM   27  C25 VFQ X1621     -49.068 146.256  11.054  1.00 90.34    -0.074 C 
HETATM   28  C26 VFQ X1621     -49.242 145.754   9.834  1.00 90.34    -0.048 C 
HETATM   29  C27 VFQ X1621     -48.094 145.303   9.007  1.00 90.34     0.009 C 
HETATM   30  C28 VFQ X1621     -47.535 144.107   9.204  1.00 90.34     0.007 C 
HETATM   31  C29 VFQ X1621     -46.421 143.585   8.409  1.00 31.86    -0.062 C 
HETATM   32  C30 VFQ X1621     -45.915 142.387   8.772  1.00 31.86     0.007 C 
HETATM   33  C31 VFQ X1621     -44.772 141.748   8.121  1.00 31.86     0.001 C 
HETATM   34  C32 VFQ X1621     -44.269 140.634   8.649  1.00 31.86     0.007 C 
HETATM   35  C33 VFQ X1621     -43.067 139.981   8.089  1.00 31.86    -0.062 C 
HETATM   36  C34 VFQ X1621     -42.554 138.951   8.794  1.00 31.86     0.007 C 
HETATM   37  C35 VFQ X1621     -41.341 138.217   8.430  1.00 31.86     0.001 C 
HETATM   38  C36 VFQ X1621     -50.548 146.259   7.853  1.00 90.34     0.020 C 
HETATM   39  C37 VFQ X1621     -51.064 144.192   9.115  1.00 90.34     0.020 C 
HETATM   40  C38 VFQ X1621     -47.739 146.764  11.519  1.00 90.34     0.044 C 
HETATM   41  C39 VFQ X1621     -45.919 144.406   7.247  1.00 31.86     0.048 C 
HETATM   42  C40 VFQ X1621     -42.458 140.517   6.820  1.00 31.86     0.048 C 
HETATM   43  O23 VFQ X1621     -52.487 147.082  12.156  1.00 90.34    -0.395 OA
ATOM     44  H23 VFQ X1621     -53.196 147.531  11.709  1.00  0.00     0.210 HD
ENDROOT
TORSDOF 12
