REMARK VINA RESULT:    -8.384      0.622     16.933
REMARK INTER + INTRA:         -10.746
REMARK INTER:                  -8.063
REMARK INTRA:                  -2.683
REMARK UNBOUND:                -2.362
REMARK  0 active torsions:
REMARK  status: ('A' for Active; 'I' for Inactive)
REMARK       I    between atoms: C3_3  and  O3_21 
REMARK       I    between atoms: C6_6  and  C7_7 
REMARK       I    between atoms: C8_8  and  C9_9 
REMARK       I    between atoms: C10_10  and  C11_11 
REMARK       I    between atoms: C12_12  and  C13_13 
REMARK       I    between atoms: C14_14  and  C15_15 
REMARK       I    between atoms: C23_25  and  O23_43 
REMARK       I    between atoms: C26_28  and  C27_29 
REMARK       I    between atoms: C28_30  and  C29_31 
REMARK       I    between atoms: C30_32  and  C31_33 
REMARK       I    between atoms: C32_34  and  C33_35 
REMARK       I    between atoms: C34_36  and  C35_37 
ROOT
HETATM    1  C1  VFQ D3620     -34.590 127.027   6.117  1.00 21.49    -0.018 C 
HETATM    2  C2  VFQ D3620     -34.106 126.376   4.803  1.00 21.50     0.045 C 
HETATM    3  C3  VFQ D3620     -32.850 126.916   4.109  1.00 22.37     0.123 C 
HETATM    4  C4  VFQ D3620     -31.958 127.810   4.974  1.00 21.17     0.066 C 
HETATM    5  C5  VFQ D3620     -32.557 128.567   6.114  1.00 19.70    -0.074 C 
HETATM    6  C6  VFQ D3620     -33.778 128.232   6.668  1.00 20.41    -0.048 C 
HETATM    7  C7  VFQ D3620     -34.365 128.984   7.796  1.00 19.41     0.009 C 
HETATM    8  C8  VFQ D3620     -34.994 130.167   7.754  1.00 18.90     0.007 C 
HETATM    9  C9  VFQ D3620     -35.446 130.975   8.891  1.00 20.60    -0.062 C 
HETATM   10  C10 VFQ D3620     -36.159 132.088   8.620  1.00 18.78     0.007 C 
HETATM   11  C11 VFQ D3620     -36.706 133.008   9.569  1.00 19.97     0.001 C 
HETATM   12  C12 VFQ D3620     -37.541 133.971   9.145  1.00 23.02     0.007 C 
HETATM   13  C13 VFQ D3620     -38.243 134.989   9.929  1.00 23.57    -0.062 C 
HETATM   14  C14 VFQ D3620     -39.119 135.782   9.275  1.00 23.43     0.007 C 
HETATM   15  C15 VFQ D3620     -39.976 136.788   9.833  1.00 24.57     0.001 C 
HETATM   16  C16 VFQ D3620     -34.537 125.862   7.124  1.00 19.84     0.020 C 
HETATM   17  C17 VFQ D3620     -36.074 127.427   5.914  1.00 19.63     0.020 C 
HETATM   18  C18 VFQ D3620     -31.610 129.655   6.474  1.00 19.29     0.044 C 
HETATM   19  C19 VFQ D3620     -35.130 130.486  10.286  1.00 18.57     0.048 C 
HETATM   20  C20 VFQ D3620     -37.993 135.032  11.404  1.00 22.43     0.048 C 
HETATM   21  O3  VFQ D3620     -32.090 125.850   3.567  1.00 22.38    -0.395 OA
ATOM     22  H3  VFQ D3620     -31.311 126.185   3.136  1.00  0.00     0.210 HD
HETATM   23  C21 VFQ D3620     -49.518 144.637  12.803  1.00 21.58    -0.018 C 
HETATM   24  C22 VFQ D3620     -50.179 145.396  13.972  1.00 21.20     0.045 C 
HETATM   25  C23 VFQ D3620     -49.473 146.595  14.610  1.00 20.61     0.123 C 
HETATM   26  C24 VFQ D3620     -48.024 146.827  14.155  1.00 19.82     0.066 C 
HETATM   27  C25 VFQ D3620     -47.467 146.154  12.940  1.00 19.81    -0.074 C 
HETATM   28  C26 VFQ D3620     -48.112 145.129  12.278  1.00 19.95    -0.048 C 
HETATM   29  C27 VFQ D3620     -47.579 144.437  11.068  1.00 17.10     0.009 C 
HETATM   30  C28 VFQ D3620     -46.650 143.456  11.098  1.00 17.58     0.007 C 
HETATM   31  C29 VFQ D3620     -46.040 142.706   9.996  1.00 31.15    -0.062 C 
HETATM   32  C30 VFQ D3620     -45.110 141.769  10.279  1.00 29.00     0.007 C 
HETATM   33  C31 VFQ D3620     -44.415 140.945   9.338  1.00 26.88     0.001 C 
HETATM   34  C32 VFQ D3620     -43.477 140.084   9.743  1.00 27.02     0.007 C 
HETATM   35  C33 VFQ D3620     -42.644 139.179   8.944  1.00 27.13    -0.062 C 
HETATM   36  C34 VFQ D3620     -41.741 138.417   9.601  1.00 25.88     0.007 C 
HETATM   37  C35 VFQ D3620     -40.825 137.461   9.048  1.00 25.96     0.001 C 
HETATM   38  C36 VFQ D3620     -50.545 144.626  11.647  1.00 19.38     0.020 C 
HETATM   39  C37 VFQ D3620     -49.418 143.199  13.365  1.00 19.65     0.020 C 
HETATM   40  C38 VFQ D3620     -46.171 146.799  12.601  1.00 20.06     0.044 C 
HETATM   41  C39 VFQ D3620     -46.483 143.047   8.601  1.00 30.08     0.048 C 
HETATM   42  C40 VFQ D3620     -42.843 139.171   7.456  1.00 24.80     0.048 C 
HETATM   43  O23 VFQ D3620     -49.533 146.504  16.026  1.00 18.88    -0.395 OA
ATOM     44  H23 VFQ D3620     -49.095 147.247  16.422  1.00  0.00     0.210 HD
ENDROOT
TORSDOF 12
