REMARK VINA RESULT:    -9.495      0.000      0.000
REMARK INTER + INTRA:         -12.728
REMARK INTER:                  -9.495
REMARK INTRA:                  -3.233
REMARK UNBOUND:                -3.233
REMARK  0 active torsions:
REMARK  status: ('A' for Active; 'I' for Inactive)
REMARK       I    between atoms: C3_3  and  O3_21 
REMARK       I    between atoms: C6_6  and  C7_7 
REMARK       I    between atoms: C8_8  and  C9_9 
REMARK       I    between atoms: C10_10  and  C11_11 
REMARK       I    between atoms: C12_12  and  C13_13 
REMARK       I    between atoms: C14_14  and  C15_15 
REMARK       I    between atoms: C23_25  and  O23_43 
REMARK       I    between atoms: C26_28  and  C27_29 
REMARK       I    between atoms: C28_30  and  C29_31 
REMARK       I    between atoms: C30_32  and  C31_33 
REMARK       I    between atoms: C32_34  and  C33_35 
REMARK       I    between atoms: C34_36  and  C35_37 
ROOT
HETATM    1  C1  VFQ Y1620     -33.686 129.340   6.871  1.00 32.37    -0.022 C 
HETATM    2  C2  VFQ Y1620     -32.883 130.134   5.852  1.00 32.37     0.045 C 
HETATM    3  C3  VFQ Y1620     -32.030 131.234   6.444  1.00 32.37     0.119 C 
HETATM    4  C4  VFQ Y1620     -31.134 130.595   7.482  1.00 32.37     0.040 C 
HETATM    5  C5  VFQ Y1620     -31.981 129.976   8.564  1.00 32.37     0.013 C 
HETATM    6  C6  VFQ Y1620     -33.254 129.658   8.302  1.00 32.37    -0.068 C 
HETATM    7  C7  VFQ Y1620     -34.308 129.920   9.290  1.00 32.37     0.004 C 
HETATM    8  C8  VFQ Y1620     -34.839 131.118   9.013  1.00 32.37     0.007 C 
HETATM    9  C9  VFQ Y1620     -35.895 131.757   9.838  1.00 32.37    -0.062 C 
HETATM   10  C10 VFQ Y1620     -36.323 132.975   9.429  1.00 32.37     0.007 C 
HETATM   11  C11 VFQ Y1620     -37.378 133.733  10.093  1.00 32.37     0.001 C 
HETATM   12  C12 VFQ Y1620     -37.782 134.893   9.600  1.00 32.37     0.007 C 
HETATM   13  C13 VFQ Y1620     -38.896 135.632  10.222  1.00 32.37    -0.062 C 
HETATM   14  C14 VFQ Y1620     -39.326 136.711   9.550  1.00 32.37     0.007 C 
HETATM   15  C15 VFQ Y1620     -40.460 137.551   9.942  1.00 32.37     0.001 C 
HETATM   16  C16 VFQ Y1620     -33.557 127.881   6.432  1.00 32.37     0.019 C 
HETATM   17  C17 VFQ Y1620     -35.141 129.775   6.711  1.00 32.37     0.019 C 
HETATM   18  C18 VFQ Y1620     -31.571 130.852   9.718  1.00 32.37     0.015 C 
HETATM   19  C19 VFQ Y1620     -36.455 131.052  11.056  1.00 32.37     0.048 C 
HETATM   20  C20 VFQ Y1620     -39.536 135.103  11.479  1.00 32.37     0.048 C 
HETATM   21  O3  VFQ Y1620     -31.244 131.778   5.378  1.00 32.37    -0.396 OA
ATOM     22  H3  VFQ Y1620     -30.708 132.469   5.749  1.00  0.00     0.210 HD
HETATM   23  C21 VFQ Y1620     -50.169 146.016   8.992  1.00 35.06    -0.018 C 
HETATM   24  C22 VFQ Y1620     -51.275 146.754   9.750  1.00 35.06     0.045 C 
HETATM   25  C23 VFQ Y1620     -51.259 146.590  11.265  1.00 35.06     0.123 C 
HETATM   26  C24 VFQ Y1620     -50.473 145.353  11.655  1.00 35.06     0.066 C 
HETATM   27  C25 VFQ Y1620     -49.084 145.582  11.138  1.00 35.06    -0.074 C 
HETATM   28  C26 VFQ Y1620     -48.934 145.781   9.828  1.00 35.06    -0.048 C 
HETATM   29  C27 VFQ Y1620     -47.639 145.598   9.147  1.00 35.06     0.009 C 
HETATM   30  C28 VFQ Y1620     -46.915 144.551   9.542  1.00 35.06     0.007 C 
HETATM   31  C29 VFQ Y1620     -45.690 144.136   8.797  1.00 32.37    -0.062 C 
HETATM   32  C30 VFQ Y1620     -45.121 142.999   9.255  1.00 32.37     0.007 C 
HETATM   33  C31 VFQ Y1620     -43.938 142.349   8.686  1.00 32.37     0.001 C 
HETATM   34  C32 VFQ Y1620     -43.499 141.225   9.262  1.00 32.37     0.007 C 
HETATM   35  C33 VFQ Y1620     -42.317 140.485   8.765  1.00 32.37    -0.062 C 
HETATM   36  C34 VFQ Y1620     -41.924 139.411   9.480  1.00 32.37     0.007 C 
HETATM   37  C35 VFQ Y1620     -40.783 138.561   9.138  1.00 32.37     0.001 C 
HETATM   38  C36 VFQ Y1620     -49.796 146.786   7.735  1.00 35.06     0.020 C 
HETATM   39  C37 VFQ Y1620     -50.674 144.632   8.598  1.00 35.06     0.020 C 
HETATM   40  C38 VFQ Y1620     -47.967 145.726  12.141  1.00 35.06     0.044 C 
HETATM   41  C39 VFQ Y1620     -45.192 144.907   7.598  1.00 32.37     0.048 C 
HETATM   42  C40 VFQ Y1620     -41.654 140.932   7.488  1.00 32.37     0.048 C 
HETATM   43  O23 VFQ Y1620     -52.598 146.459  11.753  1.00 35.06    -0.395 OA
ATOM     44  H23 VFQ Y1620     -52.589 146.357  12.698  1.00  0.00     0.210 HD
ENDROOT
TORSDOF 12
