REMARK VINA RESULT:    -8.892      1.518     16.870
REMARK INTER + INTRA:         -12.116
REMARK INTER:                 -11.968
REMARK INTRA:                  -0.148
REMARK UNBOUND:                -3.224
REMARK  0 active torsions:
REMARK  status: ('A' for Active; 'I' for Inactive)
REMARK       I    between atoms: C3_3  and  O3_21 
REMARK       I    between atoms: C6_6  and  C7_7 
REMARK       I    between atoms: C8_8  and  C9_9 
REMARK       I    between atoms: C10_10  and  C11_11 
REMARK       I    between atoms: C12_12  and  C13_13 
REMARK       I    between atoms: C14_14  and  C15_15 
REMARK       I    between atoms: C23_25  and  O23_43 
REMARK       I    between atoms: C26_28  and  C27_29 
REMARK       I    between atoms: C28_30  and  C29_31 
REMARK       I    between atoms: C30_32  and  C31_33 
REMARK       I    between atoms: C32_34  and  C33_35 
REMARK       I    between atoms: C34_36  and  C35_37 
ROOT
HETATM    1  C1  VFQ N1621     -49.169 145.850  12.128  1.00 51.88    -0.018 C 
HETATM    2  C2  VFQ N1621     -50.029 145.995  13.376  1.00 51.88     0.045 C 
HETATM    3  C3  VFQ N1621     -49.410 146.722  14.550  1.00 51.88     0.123 C 
HETATM    4  C4  VFQ N1621     -48.623 147.912  14.057  1.00 51.88     0.066 C 
HETATM    5  C5  VFQ N1621     -47.547 147.439  13.127  1.00 51.88    -0.074 C 
HETATM    6  C6  VFQ N1621     -47.814 146.532  12.185  1.00 51.88    -0.048 C 
HETATM    7  C7  VFQ N1621     -46.821 146.145  11.149  1.00 51.88     0.009 C 
HETATM    8  C8  VFQ N1621     -45.875 145.230  11.374  1.00 51.88     0.007 C 
HETATM    9  C9  VFQ N1621     -44.904 144.783  10.367  1.00 51.88    -0.062 C 
HETATM   10  C10 VFQ N1621     -44.325 143.611  10.631  1.00 51.88     0.007 C 
HETATM   11  C11 VFQ N1621     -43.363 142.910   9.797  1.00 51.88     0.001 C 
HETATM   12  C12 VFQ N1621     -42.966 141.742  10.287  1.00 51.88     0.007 C 
HETATM   13  C13 VFQ N1621     -42.042 140.854   9.572  1.00 51.88    -0.062 C 
HETATM   14  C14 VFQ N1621     -41.677 139.706  10.158  1.00 51.88     0.007 C 
HETATM   15  C15 VFQ N1621     -40.794 138.760   9.488  1.00 51.88     0.001 C 
HETATM   16  C16 VFQ N1621     -49.987 146.342  10.945  1.00 51.88     0.020 C 
HETATM   17  C17 VFQ N1621     -48.920 144.373  11.928  1.00 51.88     0.020 C 
HETATM   18  C18 VFQ N1621     -46.288 148.250  13.140  1.00 51.88     0.044 C 
HETATM   19  C19 VFQ N1621     -44.598 145.576   9.136  1.00 51.88     0.048 C 
HETATM   20  C20 VFQ N1621     -41.565 141.220   8.202  1.00 51.88     0.048 C 
HETATM   21  O3  VFQ N1621     -50.457 147.202  15.397  1.00 51.88    -0.395 OA
ATOM     22  H3  VFQ N1621     -50.068 147.659  16.134  1.00  0.00     0.210 HD
HETATM   23  C21 VFQ N1621     -33.994 128.008   7.253  1.00 23.41    -0.018 C 
HETATM   24  C22 VFQ N1621     -33.260 127.210   6.160  1.00 23.79     0.045 C 
HETATM   25  C23 VFQ N1621     -31.933 127.710   5.596  1.00 23.28     0.123 C 
HETATM   26  C24 VFQ N1621     -31.676 129.208   5.828  1.00 23.70     0.066 C 
HETATM   27  C25 VFQ N1621     -32.423 129.962   6.891  1.00 23.84    -0.074 C 
HETATM   28  C26 VFQ N1621     -33.507 129.450   7.577  1.00 22.99    -0.048 C 
HETATM   29  C27 VFQ N1621     -34.269 130.178   8.627  1.00 20.55     0.009 C 
HETATM   30  C28 VFQ N1621     -35.235 131.090   8.386  1.00 19.35     0.007 C 
HETATM   31  C29 VFQ N1621     -35.977 131.876   9.332  1.00 51.88    -0.062 C 
HETATM   32  C30 VFQ N1621     -36.967 132.657   8.885  1.00 51.88     0.007 C 
HETATM   33  C31 VFQ N1621     -37.803 133.503   9.728  1.00 51.88     0.001 C 
HETATM   34  C32 VFQ N1621     -38.223 134.654   9.207  1.00 51.88     0.007 C 
HETATM   35  C33 VFQ N1621     -39.075 135.583   9.964  1.00 51.88    -0.062 C 
HETATM   36  C34 VFQ N1621     -39.490 136.733   9.412  1.00 51.88     0.007 C 
HETATM   37  C35 VFQ N1621     -40.351 137.676  10.122  1.00 51.88     0.001 C 
HETATM   38  C36 VFQ N1621     -33.986 127.154   8.529  1.00 23.73     0.020 C 
HETATM   39  C37 VFQ N1621     -35.425 128.031   6.708  1.00 23.42     0.020 C 
HETATM   40  C38 VFQ N1621     -31.799 131.297   7.073  1.00 22.78     0.044 C 
HETATM   41  C39 VFQ N1621     -35.620 131.794  10.783  1.00 51.88     0.048 C 
HETATM   42  C40 VFQ N1621     -39.465 135.213  11.351  1.00 51.88     0.048 C 
HETATM   43  O23 VFQ N1621     -31.840 127.396   4.213  1.00 21.52    -0.395 OA
ATOM     44  H23 VFQ N1621     -31.014 127.707   3.861  1.00  0.00     0.210 HD
ENDROOT
TORSDOF 12
