REMARK VINA RESULT:   -11.839      0.742     16.800
REMARK INTER + INTRA:         -12.010
REMARK INTER:                 -11.968
REMARK INTRA:                  -0.042
REMARK UNBOUND:                -0.171
REMARK  0 active torsions:
REMARK  status: ('A' for Active; 'I' for Inactive)
REMARK       I    between atoms: C3_3  and  O3_21 
REMARK       I    between atoms: C6_6  and  C7_7 
REMARK       I    between atoms: C8_8  and  C9_9 
REMARK       I    between atoms: C10_10  and  C11_11 
REMARK       I    between atoms: C12_12  and  C13_13 
REMARK       I    between atoms: C14_14  and  C15_15 
REMARK       I    between atoms: C23_25  and  O23_43 
REMARK       I    between atoms: C26_28  and  C27_29 
REMARK       I    between atoms: C28_30  and  C29_31 
REMARK       I    between atoms: C30_32  and  C31_33 
REMARK       I    between atoms: C32_34  and  C33_35 
REMARK       I    between atoms: C34_36  and  C35_37 
ROOT
HETATM    1  C1  VFQ X1621     -50.359 145.531   9.979  1.00 31.86    -0.018 C 
HETATM    2  C2  VFQ X1621     -51.194 145.502  11.263  1.00 31.86     0.045 C 
HETATM    3  C3  VFQ X1621     -50.673 146.314  12.443  1.00 31.86     0.123 C 
HETATM    4  C4  VFQ X1621     -49.664 147.367  12.005  1.00 31.86     0.066 C 
HETATM    5  C5  VFQ X1621     -48.588 146.642  11.254  1.00 31.86    -0.074 C 
HETATM    6  C6  VFQ X1621     -48.918 145.958  10.160  1.00 31.86    -0.048 C 
HETATM    7  C7  VFQ X1621     -47.911 145.431   9.216  1.00 31.86     0.009 C 
HETATM    8  C8  VFQ X1621     -46.716 145.053   9.681  1.00 31.86     0.007 C 
HETATM    9  C9  VFQ X1621     -45.810 144.311   8.775  1.00 31.86    -0.062 C 
HETATM   10  C10 VFQ X1621     -44.899 143.504   9.355  1.00 31.86     0.007 C 
HETATM   11  C11 VFQ X1621     -44.048 142.583   8.604  1.00 31.86     0.001 C 
HETATM   12  C12 VFQ X1621     -43.380 141.634   9.257  1.00 31.86     0.007 C 
HETATM   13  C13 VFQ X1621     -42.576 140.621   8.538  1.00 31.86    -0.062 C 
HETATM   14  C14 VFQ X1621     -42.054 139.614   9.270  1.00 31.86     0.007 C 
HETATM   15  C15 VFQ X1621     -41.258 138.520   8.710  1.00 31.86     0.001 C 
HETATM   16  C16 VFQ X1621     -50.958 146.556   9.017  1.00 31.86     0.020 C 
HETATM   17  C17 VFQ X1621     -50.451 144.160   9.328  1.00 31.86     0.020 C 
HETATM   18  C18 VFQ X1621     -47.420 147.589  11.281  1.00 31.86     0.044 C 
HETATM   19  C19 VFQ X1621     -45.995 144.406   7.278  1.00 31.86     0.048 C 
HETATM   20  C20 VFQ X1621     -42.413 140.745   7.044  1.00 31.86     0.048 C 
HETATM   21  O3  VFQ X1621     -51.810 146.944  13.029  1.00 31.86    -0.395 OA
ATOM     22  H3  VFQ X1621     -52.439 146.287  13.303  1.00  0.00     0.210 HD
HETATM   23  C21 VFQ X1621     -33.953 128.038   7.403  1.00 90.34    -0.018 C 
HETATM   24  C22 VFQ X1621     -32.962 127.234   6.567  1.00 90.34     0.045 C 
HETATM   25  C23 VFQ X1621     -31.724 127.951   6.050  1.00 90.34     0.123 C 
HETATM   26  C24 VFQ X1621     -32.008 129.410   5.759  1.00 90.34     0.066 C 
HETATM   27  C25 VFQ X1621     -32.543 130.030   7.015  1.00 90.34    -0.074 C 
HETATM   28  C26 VFQ X1621     -33.564 129.477   7.665  1.00 90.34    -0.048 C 
HETATM   29  C27 VFQ X1621     -34.344 130.233   8.677  1.00 90.34     0.009 C 
HETATM   30  C28 VFQ X1621     -35.299 131.090   8.308  1.00 90.34     0.007 C 
HETATM   31  C29 VFQ X1621     -36.127 131.846   9.251  1.00 31.86    -0.062 C 
HETATM   32  C30 VFQ X1621     -37.005 132.728   8.727  1.00 31.86     0.007 C 
HETATM   33  C31 VFQ X1621     -37.867 133.600   9.525  1.00 31.86     0.001 C 
HETATM   34  C32 VFQ X1621     -38.593 134.529   8.907  1.00 31.86     0.007 C 
HETATM   35  C33 VFQ X1621     -39.424 135.494   9.657  1.00 31.86    -0.062 C 
HETATM   36  C34 VFQ X1621     -39.992 136.487   8.942  1.00 31.86     0.007 C 
HETATM   37  C35 VFQ X1621     -40.801 137.566   9.514  1.00 31.86     0.001 C 
HETATM   38  C36 VFQ X1621     -34.070 127.372   8.760  1.00 90.34     0.020 C 
HETATM   39  C37 VFQ X1621     -35.296 127.952   6.688  1.00 90.34     0.020 C 
HETATM   40  C38 VFQ X1621     -31.865 131.267   7.515  1.00 90.34     0.044 C 
HETATM   41  C39 VFQ X1621     -35.950 131.594  10.727  1.00 31.86     0.048 C 
HETATM   42  C40 VFQ X1621     -39.548 135.356  11.152  1.00 31.86     0.048 C 
HETATM   43  O23 VFQ X1621     -31.322 127.320   4.835  1.00 90.34    -0.395 OA
ATOM     44  H23 VFQ X1621     -31.145 126.404   5.018  1.00  0.00     0.210 HD
ENDROOT
TORSDOF 12
