REMARK VINA RESULT:    -8.997      0.000      0.000
REMARK INTER + INTRA:         -11.362
REMARK INTER:                  -8.997
REMARK INTRA:                  -2.365
REMARK UNBOUND:                -2.365
REMARK  0 active torsions:
REMARK  status: ('A' for Active; 'I' for Inactive)
REMARK       I    between atoms: C3_3  and  O3_21 
REMARK       I    between atoms: C6_6  and  C7_7 
REMARK       I    between atoms: C8_8  and  C9_9 
REMARK       I    between atoms: C10_10  and  C11_11 
REMARK       I    between atoms: C12_12  and  C13_13 
REMARK       I    between atoms: C14_14  and  C15_15 
REMARK       I    between atoms: C23_25  and  O23_43 
REMARK       I    between atoms: C26_28  and  C27_29 
REMARK       I    between atoms: C28_30  and  C29_31 
REMARK       I    between atoms: C30_32  and  C31_33 
REMARK       I    between atoms: C32_34  and  C33_35 
REMARK       I    between atoms: C34_36  and  C35_37 
ROOT
HETATM    1  C1  VFQ V1620     -34.276 127.205   6.697  1.00 15.23    -0.018 C 
HETATM    2  C2  VFQ V1620     -34.088 127.271   5.194  1.00 15.23     0.045 C 
HETATM    3  C3  VFQ V1620     -33.201 128.391   4.719  1.00 15.23     0.123 C 
HETATM    4  C4  VFQ V1620     -31.969 128.392   5.574  1.00 15.23     0.066 C 
HETATM    5  C5  VFQ V1620     -32.324 128.668   7.002  1.00 15.23    -0.074 C 
HETATM    6  C6  VFQ V1620     -33.473 128.199   7.496  1.00 15.23    -0.048 C 
HETATM    7  C7  VFQ V1620     -34.136 128.830   8.641  1.00 15.23     0.009 C 
HETATM    8  C8  VFQ V1620     -34.342 130.135   8.440  1.00 15.23     0.007 C 
HETATM    9  C9  VFQ V1620     -35.173 130.937   9.359  1.00 15.23    -0.062 C 
HETATM   10  C10 VFQ V1620     -35.594 132.128   8.911  1.00 15.23     0.007 C 
HETATM   11  C11 VFQ V1620     -36.526 132.978   9.639  1.00 15.23     0.001 C 
HETATM   12  C12 VFQ V1620     -37.083 134.006   9.018  1.00 15.23     0.007 C 
HETATM   13  C13 VFQ V1620     -38.108 134.833   9.671  1.00 15.23    -0.062 C 
HETATM   14  C14 VFQ V1620     -38.770 135.705   8.905  1.00 15.23     0.007 C 
HETATM   15  C15 VFQ V1620     -39.850 136.563   9.382  1.00 15.23     0.001 C 
HETATM   16  C16 VFQ V1620     -33.751 125.850   7.133  1.00 15.23     0.020 C 
HETATM   17  C17 VFQ V1620     -35.758 127.338   6.995  1.00 15.23     0.020 C 
HETATM   18  C18 VFQ V1620     -31.498 129.740   7.649  1.00 15.23     0.044 C 
HETATM   19  C19 VFQ V1620     -35.548 130.390  10.706  1.00 15.23     0.048 C 
HETATM   20  C20 VFQ V1620     -38.389 134.631  11.122  1.00 15.23     0.048 C 
HETATM   21  O3  VFQ V1620     -32.781 128.124   3.386  1.00 15.23    -0.395 OA
ATOM     22  H3  VFQ V1620     -32.221 128.830   3.086  1.00  0.00     0.210 HD
HETATM   23  C21 VFQ V1620     -49.664 144.095  10.207  1.00 50.20    -0.018 C 
HETATM   24  C22 VFQ V1620     -50.682 144.950  10.952  1.00 50.20     0.045 C 
HETATM   25  C23 VFQ V1620     -50.217 146.334  11.379  1.00 50.20     0.123 C 
HETATM   26  C24 VFQ V1620     -48.793 146.306  11.891  1.00 50.20     0.066 C 
HETATM   27  C25 VFQ V1620     -47.922 145.791  10.784  1.00 50.20    -0.074 C 
HETATM   28  C26 VFQ V1620     -48.302 144.745  10.050  1.00 50.20    -0.048 C 
HETATM   29  C27 VFQ V1620     -47.379 144.184   9.041  1.00 50.20     0.009 C 
HETATM   30  C28 VFQ V1620     -46.524 143.226   9.389  1.00 50.20     0.007 C 
HETATM   31  C29 VFQ V1620     -45.593 142.621   8.431  1.00 15.23    -0.062 C 
HETATM   32  C30 VFQ V1620     -44.891 141.590   8.906  1.00 15.23     0.007 C 
HETATM   33  C31 VFQ V1620     -43.910 140.821   8.162  1.00 15.23     0.001 C 
HETATM   34  C32 VFQ V1620     -43.257 139.871   8.822  1.00 15.23     0.007 C 
HETATM   35  C33 VFQ V1620     -42.214 139.059   8.190  1.00 15.23    -0.062 C 
HETATM   36  C34 VFQ V1620     -41.548 138.204   8.977  1.00 15.23     0.007 C 
HETATM   37  C35 VFQ V1620     -40.466 137.347   8.516  1.00 15.23     0.001 C 
HETATM   38  C36 VFQ V1620     -50.200 143.813   8.811  1.00 50.20     0.020 C 
HETATM   39  C37 VFQ V1620     -49.533 142.772  10.954  1.00 50.20     0.020 C 
HETATM   40  C38 VFQ V1620     -46.629 146.503  10.528  1.00 50.20     0.044 C 
HETATM   41  C39 VFQ V1620     -45.518 143.130   7.026  1.00 15.23     0.048 C 
HETATM   42  C40 VFQ V1620     -41.950 139.254   6.734  1.00 15.23     0.048 C 
HETATM   43  O23 VFQ V1620     -51.081 146.821  12.408  1.00 50.20    -0.395 OA
ATOM     44  H23 VFQ V1620     -51.975 146.838  12.086  1.00  0.00     0.210 HD
ENDROOT
TORSDOF 12
