REMARK VINA RESULT:    -8.202      1.251     16.821
REMARK INTER + INTRA:         -10.439
REMARK INTER:                  -9.897
REMARK INTRA:                  -0.542
REMARK UNBOUND:                -2.238
REMARK  0 active torsions:
REMARK  status: ('A' for Active; 'I' for Inactive)
REMARK       I    between atoms: C3_3  and  O3_21 
REMARK       I    between atoms: C6_6  and  C7_7 
REMARK       I    between atoms: C8_8  and  C9_9 
REMARK       I    between atoms: C10_10  and  C11_11 
REMARK       I    between atoms: C12_12  and  C13_13 
REMARK       I    between atoms: C14_14  and  C15_15 
REMARK       I    between atoms: C23_25  and  O23_43 
REMARK       I    between atoms: C26_28  and  C27_29 
REMARK       I    between atoms: C28_30  and  C29_31 
REMARK       I    between atoms: C30_32  and  C31_33 
REMARK       I    between atoms: C32_34  and  C33_35 
REMARK       I    between atoms: C34_36  and  C35_37 
ROOT
HETATM    1  C1  VFQ F5620     -50.501 145.209  10.018  1.00 19.30    -0.018 C 
HETATM    2  C2  VFQ F5620     -51.502 145.565  11.133  1.00 17.68     0.045 C 
HETATM    3  C3  VFQ F5620     -51.055 146.503  12.249  1.00 17.79     0.123 C 
HETATM    4  C4  VFQ F5620     -49.849 147.385  11.923  1.00 18.50     0.066 C 
HETATM    5  C5  VFQ F5620     -48.804 146.863  10.991  1.00 19.40    -0.074 C 
HETATM    6  C6  VFQ F5620     -49.078 145.849  10.094  1.00 19.02    -0.048 C 
HETATM    7  C7  VFQ F5620     -48.046 145.323   9.188  1.00 18.60     0.009 C 
HETATM    8  C8  VFQ F5620     -47.051 144.469   9.506  1.00 18.09     0.007 C 
HETATM    9  C9  VFQ F5620     -45.950 144.032   8.642  1.00 18.23    -0.062 C 
HETATM   10  C10 VFQ F5620     -45.112 143.088   9.121  1.00 15.81     0.007 C 
HETATM   11  C11 VFQ F5620     -43.988 142.509   8.438  1.00 18.00     0.001 C 
HETATM   12  C12 VFQ F5620     -43.359 141.452   8.975  1.00 18.12     0.007 C 
HETATM   13  C13 VFQ F5620     -42.243 140.675   8.449  1.00 18.88    -0.062 C 
HETATM   14  C14 VFQ F5620     -41.870 139.581   9.147  1.00 21.10     0.007 C 
HETATM   15  C15 VFQ F5620     -40.867 138.610   8.798  1.00 24.06     0.001 C 
HETATM   16  C16 VFQ F5620     -51.214 145.681   8.738  1.00 17.17     0.020 C 
HETATM   17  C17 VFQ F5620     -50.407 143.667   9.969  1.00 16.95     0.020 C 
HETATM   18  C18 VFQ F5620     -47.528 147.605  11.231  1.00 19.80     0.044 C 
HETATM   19  C19 VFQ F5620     -45.861 144.631   7.256  1.00 17.09     0.048 C 
HETATM   20  C20 VFQ F5620     -41.643 141.095   7.143  1.00 16.35     0.048 C 
HETATM   21  O3  VFQ F5620     -52.139 147.305  12.678  1.00 17.38    -0.395 OA
ATOM     22  H3  VFQ F5620     -51.860 147.890  13.373  1.00  0.00     0.210 HD
HETATM   23  C21 VFQ F5620     -33.887 127.925   7.235  1.00 27.53    -0.018 C 
HETATM   24  C22 VFQ F5620     -33.046 127.400   6.073  1.00 27.53     0.045 C 
HETATM   25  C23 VFQ F5620     -31.821 128.263   5.841  1.00 27.53     0.123 C 
HETATM   26  C24 VFQ F5620     -32.346 129.627   5.458  1.00 27.53     0.066 C 
HETATM   27  C25 VFQ F5620     -32.919 130.192   6.726  1.00 27.53    -0.074 C 
HETATM   28  C26 VFQ F5620     -33.630 129.393   7.558  1.00 27.53    -0.048 C 
HETATM   29  C27 VFQ F5620     -34.359 129.963   8.709  1.00 27.53     0.009 C 
HETATM   30  C28 VFQ F5620     -35.077 131.056   8.431  1.00 27.53     0.007 C 
HETATM   31  C29 VFQ F5620     -36.034 131.659   9.415  1.00 26.61    -0.062 C 
HETATM   32  C30 VFQ F5620     -36.699 132.761   9.008  1.00 25.24     0.007 C 
HETATM   33  C31 VFQ F5620     -37.696 133.482   9.743  1.00 26.40     0.001 C 
HETATM   34  C32 VFQ F5620     -38.260 134.600   9.250  1.00 26.29     0.007 C 
HETATM   35  C33 VFQ F5620     -39.275 135.461   9.868  1.00 26.99    -0.062 C 
HETATM   36  C34 VFQ F5620     -39.659 136.561   9.186  1.00 26.65     0.007 C 
HETATM   37  C35 VFQ F5620     -40.621 137.552   9.579  1.00 25.43     0.001 C 
HETATM   38  C36 VFQ F5620     -33.636 127.025   8.442  1.00 27.53     0.020 C 
HETATM   39  C37 VFQ F5620     -35.358 127.834   6.833  1.00 27.53     0.020 C 
HETATM   40  C38 VFQ F5620     -32.501 131.608   7.045  1.00 27.53     0.044 C 
HETATM   41  C39 VFQ F5620     -36.204 131.026  10.774  1.00 26.87     0.048 C 
HETATM   42  C40 VFQ F5620     -39.795 135.073  11.221  1.00 24.17     0.048 C 
HETATM   43  O23 VFQ F5620     -30.988 127.740   4.803  1.00 27.53    -0.395 OA
ATOM     44  H23 VFQ F5620     -30.658 126.883   5.044  1.00  0.00     0.210 HD
ENDROOT
TORSDOF 12
