REMARK VINA RESULT:    -8.228      1.324     16.821
REMARK INTER + INTRA:         -10.893
REMARK INTER:                 -10.581
REMARK INTRA:                  -0.312
REMARK UNBOUND:                -2.665
REMARK  0 active torsions:
REMARK  status: ('A' for Active; 'I' for Inactive)
REMARK       I    between atoms: C3_3  and  O3_21 
REMARK       I    between atoms: C6_6  and  C7_7 
REMARK       I    between atoms: C8_8  and  C9_9 
REMARK       I    between atoms: C10_10  and  C11_11 
REMARK       I    between atoms: C12_12  and  C13_13 
REMARK       I    between atoms: C14_14  and  C15_15 
REMARK       I    between atoms: C23_25  and  O23_43 
REMARK       I    between atoms: C26_28  and  C27_29 
REMARK       I    between atoms: C28_30  and  C29_31 
REMARK       I    between atoms: C30_32  and  C31_33 
REMARK       I    between atoms: C32_34  and  C33_35 
REMARK       I    between atoms: C34_36  and  C35_37 
ROOT
HETATM    1  C1  VFQ 7 621     -49.742 145.171  12.747  1.00 16.14    -0.018 C 
HETATM    2  C2  VFQ 7 621     -50.488 145.640  13.995  1.00 16.14     0.045 C 
HETATM    3  C3  VFQ 7 621     -49.712 146.516  14.963  1.00 16.14     0.123 C 
HETATM    4  C4  VFQ 7 621     -48.892 147.537  14.211  1.00 16.14     0.066 C 
HETATM    5  C5  VFQ 7 621     -47.939 146.799  13.321  1.00 16.14    -0.074 C 
HETATM    6  C6  VFQ 7 621     -48.369 145.791  12.553  1.00 16.14    -0.048 C 
HETATM    7  C7  VFQ 7 621     -47.501 145.285  11.465  1.00 16.14     0.009 C 
HETATM    8  C8  VFQ 7 621     -46.547 144.368  11.648  1.00 16.14     0.007 C 
HETATM    9  C9  VFQ 7 621     -45.715 143.917  10.525  1.00 16.14    -0.062 C 
HETATM   10  C10 VFQ 7 621     -44.809 142.954  10.761  1.00 16.14     0.007 C 
HETATM   11  C11 VFQ 7 621     -43.885 142.347   9.800  1.00 16.14     0.001 C 
HETATM   12  C12 VFQ 7 621     -42.978 141.521  10.315  1.00 16.14     0.007 C 
HETATM   13  C13 VFQ 7 621     -41.987 140.758   9.534  1.00 16.14    -0.062 C 
HETATM   14  C14 VFQ 7 621     -41.489 139.664  10.123  1.00 16.14     0.007 C 
HETATM   15  C15 VFQ 7 621     -40.555 138.740   9.493  1.00 16.14     0.001 C 
HETATM   16  C16 VFQ 7 621     -50.650 145.446  11.553  1.00 16.14     0.020 C 
HETATM   17  C17 VFQ 7 621     -49.528 143.670  12.856  1.00 16.14     0.020 C 
HETATM   18  C18 VFQ 7 621     -46.739 147.631  12.972  1.00 16.14     0.044 C 
HETATM   19  C19 VFQ 7 621     -45.888 144.579   9.198  1.00 16.14     0.048 C 
HETATM   20  C20 VFQ 7 621     -41.575 141.156   8.151  1.00 16.14     0.048 C 
HETATM   21  O3  VFQ 7 621     -50.629 147.206  15.815  1.00 16.14    -0.395 OA
ATOM     22  H3  VFQ 7 621     -50.144 147.754  16.420  1.00  0.00     0.210 HD
HETATM   23  C21 VFQ 7 621     -34.108 128.144   6.998  1.00 13.13    -0.018 C 
HETATM   24  C22 VFQ 7 621     -33.337 127.403   5.916  1.00 13.13     0.045 C 
HETATM   25  C23 VFQ 7 621     -31.863 127.728   5.843  1.00 13.13     0.123 C 
HETATM   26  C24 VFQ 7 621     -31.679 129.221   5.757  1.00 13.13     0.066 C 
HETATM   27  C25 VFQ 7 621     -32.354 129.917   6.905  1.00 13.13    -0.074 C 
HETATM   28  C26 VFQ 7 621     -33.509 129.474   7.430  1.00 13.13    -0.048 C 
HETATM   29  C27 VFQ 7 621     -34.227 130.225   8.499  1.00 13.13     0.009 C 
HETATM   30  C28 VFQ 7 621     -35.035 131.272   8.287  1.00 13.13     0.007 C 
HETATM   31  C29 VFQ 7 621     -35.730 131.962   9.380  1.00 16.14    -0.062 C 
HETATM   32  C30 VFQ 7 621     -36.740 132.768   9.042  1.00 16.14     0.007 C 
HETATM   33  C31 VFQ 7 621     -37.527 133.532   9.998  1.00 16.14     0.001 C 
HETATM   34  C32 VFQ 7 621     -38.140 134.584   9.476  1.00 16.14     0.007 C 
HETATM   35  C33 VFQ 7 621     -38.985 135.528  10.219  1.00 16.14    -0.062 C 
HETATM   36  C34 VFQ 7 621     -39.457 136.582   9.540  1.00 16.14     0.007 C 
HETATM   37  C35 VFQ 7 621     -40.332 137.590  10.123  1.00 16.14     0.001 C 
HETATM   38  C36 VFQ 7 621     -34.154 127.262   8.237  1.00 13.13     0.020 C 
HETATM   39  C37 VFQ 7 621     -35.509 128.330   6.439  1.00 13.13     0.020 C 
HETATM   40  C38 VFQ 7 621     -31.635 131.123   7.426  1.00 13.13     0.044 C 
HETATM   41  C39 VFQ 7 621     -35.324 131.765  10.807  1.00 16.14     0.048 C 
HETATM   42  C40 VFQ 7 621     -39.267 135.328  11.675  1.00 16.14     0.048 C 
HETATM   43  O23 VFQ 7 621     -31.330 127.141   4.655  1.00 13.13    -0.395 OA
ATOM     44  H23 VFQ 7 621     -30.404 127.345   4.610  1.00  0.00     0.210 HD
ENDROOT
TORSDOF 12
