REMARK VINA RESULT:    -8.748      2.161      2.706
REMARK INTER + INTRA:         -11.815
REMARK INTER:                 -11.283
REMARK INTRA:                  -0.533
REMARK UNBOUND:                -3.067
REMARK  0 active torsions:
REMARK  status: ('A' for Active; 'I' for Inactive)
REMARK       I    between atoms: C3_3  and  O3_21 
REMARK       I    between atoms: C6_6  and  C7_7 
REMARK       I    between atoms: C8_8  and  C9_9 
REMARK       I    between atoms: C10_10  and  C11_11 
REMARK       I    between atoms: C12_12  and  C13_13 
REMARK       I    between atoms: C14_14  and  C15_15 
REMARK       I    between atoms: C23_25  and  O23_43 
REMARK       I    between atoms: C26_28  and  C27_29 
REMARK       I    between atoms: C28_30  and  C29_31 
REMARK       I    between atoms: C30_32  and  C31_33 
REMARK       I    between atoms: C32_34  and  C33_35 
REMARK       I    between atoms: C34_36  and  C35_37 
ROOT
HETATM    1  C1  VFQ A 621     -50.670 145.540   9.635  1.00 21.58    -0.018 C 
HETATM    2  C2  VFQ A 621     -51.677 146.046  10.689  1.00 21.20     0.045 C 
HETATM    3  C3  VFQ A 621     -51.273 147.145  11.676  1.00 20.61     0.123 C 
HETATM    4  C4  VFQ A 621     -49.921 147.820  11.396  1.00 19.82     0.066 C 
HETATM    5  C5  VFQ A 621     -48.927 147.220  10.450  1.00 19.81    -0.074 C 
HETATM    6  C6  VFQ A 621     -49.222 146.168   9.606  1.00 19.95    -0.048 C 
HETATM    7  C7  VFQ A 621     -48.260 145.569   8.636  1.00 17.10     0.009 C 
HETATM    8  C8  VFQ A 621     -47.306 144.670   8.964  1.00 17.58     0.007 C 
HETATM    9  C9  VFQ A 621     -46.297 144.009   8.128  1.00 19.11    -0.062 C 
HETATM   10  C10 VFQ A 621     -45.545 143.042   8.701  1.00 18.37     0.007 C 
HETATM   11  C11 VFQ A 621     -44.579 142.216   8.033  1.00 18.85     0.001 C 
HETATM   12  C12 VFQ A 621     -43.931 141.200   8.634  1.00 19.83     0.007 C 
HETATM   13  C13 VFQ A 621     -43.010 140.245   7.983  1.00 21.26    -0.062 C 
HETATM   14  C14 VFQ A 621     -42.486 139.254   8.740  1.00 20.79     0.007 C 
HETATM   15  C15 VFQ A 621     -41.615 138.184   8.319  1.00 20.26     0.001 C 
HETATM   16  C16 VFQ A 621     -51.415 145.826   8.311  1.00 19.38     0.020 C 
HETATM   17  C17 VFQ A 621     -50.582 144.006   9.810  1.00 19.65     0.020 C 
HETATM   18  C18 VFQ A 621     -47.657 147.983  10.562  1.00 20.06     0.044 C 
HETATM   19  C19 VFQ A 621     -46.223 144.387   6.675  1.00 17.70     0.048 C 
HETATM   20  C20 VFQ A 621     -42.753 140.414   6.513  1.00 18.78     0.048 C 
HETATM   21  O3  VFQ A 621     -52.296 148.124  11.769  1.00 18.88    -0.395 OA
ATOM     22  H3  VFQ A 621     -53.132 147.707  11.943  1.00  0.00     0.210 HD
HETATM   23  C21 VFQ A 621     -33.946 127.984   7.135  1.00 37.79    -0.018 C 
HETATM   24  C22 VFQ A 621     -33.126 127.301   6.054  1.00 37.79     0.045 C 
HETATM   25  C23 VFQ A 621     -31.748 127.868   5.804  1.00 37.79     0.123 C 
HETATM   26  C24 VFQ A 621     -31.846 129.360   5.628  1.00 37.79     0.066 C 
HETATM   27  C25 VFQ A 621     -32.572 130.024   6.757  1.00 37.79    -0.074 C 
HETATM   28  C26 VFQ A 621     -33.586 129.432   7.404  1.00 37.79    -0.048 C 
HETATM   29  C27 VFQ A 621     -34.366 130.156   8.443  1.00 37.79     0.009 C 
HETATM   30  C28 VFQ A 621     -35.373 130.990   8.164  1.00 37.79     0.007 C 
HETATM   31  C29 VFQ A 621     -36.166 131.708   9.208  1.00 26.46    -0.062 C 
HETATM   32  C30 VFQ A 621     -37.131 132.559   8.789  1.00 24.31     0.007 C 
HETATM   33  C31 VFQ A 621     -38.010 133.356   9.614  1.00 21.85     0.001 C 
HETATM   34  C32 VFQ A 621     -38.786 134.306   9.039  1.00 20.83     0.007 C 
HETATM   35  C33 VFQ A 621     -39.706 135.286   9.642  1.00 21.05    -0.062 C 
HETATM   36  C34 VFQ A 621     -40.277 136.196   8.824  1.00 19.63     0.007 C 
HETATM   37  C35 VFQ A 621     -41.154 137.277   9.199  1.00 20.78     0.001 C 
HETATM   38  C36 VFQ A 621     -33.724 127.254   8.438  1.00 37.79     0.020 C 
HETATM   39  C37 VFQ A 621     -35.402 127.799   6.733  1.00 37.79     0.020 C 
HETATM   40  C38 VFQ A 621     -32.066 131.390   7.105  1.00 37.79     0.044 C 
HETATM   41  C39 VFQ A 621     -35.799 131.501  10.650  1.00 25.84     0.048 C 
HETATM   42  C40 VFQ A 621     -39.889 135.257  11.135  1.00 18.97     0.048 C 
HETATM   43  O23 VFQ A 621     -31.261 127.331   4.575  1.00 37.79    -0.395 OA
ATOM     44  H23 VFQ A 621     -31.199 126.390   4.686  1.00  0.00     0.210 HD
ENDROOT
TORSDOF 12
