REMARK VINA RESULT:    -5.851      2.585     16.648
REMARK INTER + INTRA:         -12.396
REMARK INTER:                  -9.932
REMARK INTRA:                  -2.464
REMARK UNBOUND:                -6.546
REMARK  0 active torsions:
REMARK  status: ('A' for Active; 'I' for Inactive)
REMARK       I    between atoms: C3_3  and  O3_21 
REMARK       I    between atoms: C6_6  and  C7_7 
REMARK       I    between atoms: C8_8  and  C9_9 
REMARK       I    between atoms: C10_10  and  C11_11 
REMARK       I    between atoms: C12_12  and  C13_13 
REMARK       I    between atoms: C14_14  and  C15_15 
REMARK       I    between atoms: C23_25  and  O23_43 
REMARK       I    between atoms: C26_28  and  C27_29 
REMARK       I    between atoms: C28_30  and  C29_31 
REMARK       I    between atoms: C30_32  and  C31_33 
REMARK       I    between atoms: C32_34  and  C33_35 
REMARK       I    between atoms: C34_36  and  C35_37 
ROOT
HETATM    1  C1  VFQ 1 617     -34.235 127.095   6.515  1.00 38.90    -0.018 C 
HETATM    2  C2  VFQ 1 617     -34.275 127.220   4.993  1.00 38.90     0.045 C 
HETATM    3  C3  VFQ 1 617     -33.175 128.079   4.376  1.00 38.90     0.123 C 
HETATM    4  C4  VFQ 1 617     -31.994 128.185   5.322  1.00 38.90     0.066 C 
HETATM    5  C5  VFQ 1 617     -32.522 128.846   6.562  1.00 38.90    -0.074 C 
HETATM    6  C6  VFQ 1 617     -33.542 128.255   7.190  1.00 38.90    -0.048 C 
HETATM    7  C7  VFQ 1 617     -34.140 128.848   8.399  1.00 38.90     0.009 C 
HETATM    8  C8  VFQ 1 617     -34.384 130.151   8.270  1.00 38.90     0.007 C 
HETATM    9  C9  VFQ 1 617     -35.156 130.898   9.280  1.00 38.90    -0.062 C 
HETATM   10  C10 VFQ 1 617     -35.658 132.072   8.876  1.00 38.90     0.007 C 
HETATM   11  C11 VFQ 1 617     -36.551 132.903   9.677  1.00 38.90     0.001 C 
HETATM   12  C12 VFQ 1 617     -37.159 133.927   9.092  1.00 38.90     0.007 C 
HETATM   13  C13 VFQ 1 617     -38.138 134.768   9.801  1.00 38.90    -0.062 C 
HETATM   14  C14 VFQ 1 617     -38.814 135.650   9.050  1.00 38.90     0.007 C 
HETATM   15  C15 VFQ 1 617     -39.848 136.552   9.543  1.00 38.90     0.001 C 
HETATM   16  C16 VFQ 1 617     -33.432 125.850   6.886  1.00 38.90     0.020 C 
HETATM   17  C17 VFQ 1 617     -35.649 126.965   7.065  1.00 38.90     0.020 C 
HETATM   18  C18 VFQ 1 617     -31.543 129.769   7.249  1.00 38.90     0.044 C 
HETATM   19  C19 VFQ 1 617     -35.382 130.321  10.648  1.00 38.90     0.048 C 
HETATM   20  C20 VFQ 1 617     -38.344 134.577  11.274  1.00 38.90     0.048 C 
HETATM   21  O3  VFQ 1 617     -32.732 127.500   3.146  1.00 38.90    -0.395 OA
ATOM     22  H3  VFQ 1 617     -32.047 128.035   2.762  1.00  0.00     0.210 HD
HETATM   23  C21 VFQ 1 617     -49.460 145.207   9.544  1.00 22.20    -0.018 C 
HETATM   24  C22 VFQ 1 617     -50.380 145.963  10.494  1.00 22.20     0.045 C 
HETATM   25  C23 VFQ 1 617     -49.991 145.977  11.957  1.00 22.20     0.123 C 
HETATM   26  C24 VFQ 1 617     -49.128 144.780  12.271  1.00 22.20     0.066 C 
HETATM   27  C25 VFQ 1 617     -47.928 144.896  11.391  1.00 22.20    -0.074 C 
HETATM   28  C26 VFQ 1 617     -48.091 144.905  10.083  1.00 22.20    -0.048 C 
HETATM   29  C27 VFQ 1 617     -47.068 144.439   9.137  1.00 22.20     0.009 C 
HETATM   30  C28 VFQ 1 617     -46.285 143.423   9.486  1.00 22.20     0.007 C 
HETATM   31  C29 VFQ 1 617     -45.417 142.779   8.464  1.00 38.90    -0.062 C 
HETATM   32  C30 VFQ 1 617     -44.711 141.746   8.940  1.00 38.90     0.007 C 
HETATM   33  C31 VFQ 1 617     -43.775 140.932   8.180  1.00 38.90     0.001 C 
HETATM   34  C32 VFQ 1 617     -43.134 139.989   8.860  1.00 38.90     0.007 C 
HETATM   35  C33 VFQ 1 617     -42.127 139.108   8.251  1.00 38.90    -0.062 C 
HETATM   36  C34 VFQ 1 617     -41.484 138.269   9.083  1.00 38.90     0.007 C 
HETATM   37  C35 VFQ 1 617     -40.440 137.342   8.659  1.00 38.90     0.001 C 
HETATM   38  C36 VFQ 1 617     -49.374 145.996   8.261  1.00 22.20     0.020 C 
HETATM   39  C37 VFQ 1 617     -50.063 143.850   9.231  1.00 22.20     0.020 C 
HETATM   40  C38 VFQ 1 617     -46.600 145.141  12.015  1.00 22.20     0.044 C 
HETATM   41  C39 VFQ 1 617     -45.392 143.251   7.040  1.00 38.90     0.048 C 
HETATM   42  C40 VFQ 1 617     -41.865 139.221   6.780  1.00 38.90     0.048 C 
HETATM   43  O23 VFQ 1 617     -51.200 145.914  12.702  1.00 22.20    -0.395 OA
ATOM     44  H23 VFQ 1 617     -50.956 145.924  13.620  1.00  0.00     0.210 HD
ENDROOT
TORSDOF 12
