REMARK VINA RESULT:    -7.381      1.683      2.474
REMARK INTER + INTRA:          -7.350
REMARK INTER:                  -5.262
REMARK INTRA:                  -2.089
REMARK UNBOUND:                 0.030
REMARK  0 active torsions:
REMARK  status: ('A' for Active; 'I' for Inactive)
REMARK       I    between atoms: C3_3  and  O3_21 
REMARK       I    between atoms: C6_6  and  C7_7 
REMARK       I    between atoms: C8_8  and  C9_9 
REMARK       I    between atoms: C10_10  and  C11_11 
REMARK       I    between atoms: C12_12  and  C13_13 
REMARK       I    between atoms: C14_14  and  C15_15 
REMARK       I    between atoms: C23_25  and  O23_43 
REMARK       I    between atoms: C26_28  and  C27_29 
REMARK       I    between atoms: C28_30  and  C29_31 
REMARK       I    between atoms: C30_32  and  C31_33 
REMARK       I    between atoms: C32_34  and  C33_35 
REMARK       I    between atoms: C34_36  and  C35_37 
ROOT
HETATM    1  C1  VFQ 6 321     -34.837 127.622   5.762  1.00 93.31    -0.018 C 
HETATM    2  C2  VFQ 6 321     -33.582 127.077   5.078  1.00 93.93     0.045 C 
HETATM    3  C3  VFQ 6 321     -32.289 127.826   5.370  1.00 93.98     0.123 C 
HETATM    4  C4  VFQ 6 321     -32.144 128.036   6.866  1.00 93.16     0.066 C 
HETATM    5  C5  VFQ 6 321     -33.333 128.802   7.381  1.00 92.19    -0.074 C 
HETATM    6  C6  VFQ 6 321     -34.566 128.568   6.919  1.00 91.50    -0.048 C 
HETATM    7  C7  VFQ 6 321     -35.723 129.239   7.558  1.00 98.60     0.009 C 
HETATM    8  C8  VFQ 6 321     -36.084 130.483   7.237  1.00 95.09     0.007 C 
HETATM    9  C9  VFQ 6 321     -37.242 131.131   7.889  1.00 91.76    -0.062 C 
HETATM   10  C10 VFQ 6 321     -37.460 132.438   7.687  1.00 98.95     0.007 C 
HETATM   11  C11 VFQ 6 321     -38.589 133.132   8.304  1.00 96.41     0.001 C 
HETATM   12  C12 VFQ 6 321     -38.748 134.432   8.071  1.00 94.60     0.007 C 
HETATM   13  C13 VFQ 6 321     -39.870 135.182   8.664  1.00 93.62    -0.062 C 
HETATM   14  C14 VFQ 6 321     -40.028 136.485   8.381  1.00 93.18     0.007 C 
HETATM   15  C15 VFQ 6 321     -41.141 137.232   8.962  1.00 93.10     0.001 C 
HETATM   16  C16 VFQ 6 321     -35.660 126.443   6.268  1.00 93.81     0.020 C 
HETATM   17  C17 VFQ 6 321     -35.651 128.390   4.727  1.00 92.50     0.020 C 
HETATM   18  C18 VFQ 6 321     -33.121 129.625   8.620  1.00 91.81     0.044 C 
HETATM   19  C19 VFQ 6 321     -38.162 130.336   8.767  1.00 91.57     0.048 C 
HETATM   20  C20 VFQ 6 321     -40.834 134.486   9.577  1.00 93.41     0.048 C 
HETATM   21  O3  VFQ 6 321     -31.177 127.058   4.894  1.00 94.06    -0.395 OA
ATOM     22  H3  VFQ 6 321     -30.370 127.526   5.076  1.00  0.00     0.210 HD
HETATM   23  C21 VFQ 6 321     -50.494 145.288  11.124  1.00 66.61    -0.018 C 
HETATM   24  C22 VFQ 6 321     -51.684 145.939  11.821  1.00 66.61     0.045 C 
HETATM   25  C23 VFQ 6 321     -51.426 146.741  13.088  1.00 66.61     0.123 C 
HETATM   26  C24 VFQ 6 321     -50.265 146.175  13.877  1.00 66.61     0.066 C 
HETATM   27  C25 VFQ 6 321     -49.057 146.096  12.989  1.00 66.61    -0.074 C 
HETATM   28  C26 VFQ 6 321     -49.148 145.611  11.746  1.00 66.61    -0.048 C 
HETATM   29  C27 VFQ 6 321     -47.926 145.391  10.931  1.00 66.61     0.009 C 
HETATM   30  C28 VFQ 6 321     -47.237 144.249  10.999  1.00 66.61     0.007 C 
HETATM   31  C29 VFQ 6 321     -46.027 143.996  10.194  1.00 92.38    -0.062 C 
HETATM   32  C30 VFQ 6 321     -45.442 142.796  10.329  1.00 92.82     0.007 C 
HETATM   33  C31 VFQ 6 321     -44.242 142.384   9.603  1.00 93.26     0.001 C 
HETATM   34  C32 VFQ 6 321     -43.844 141.129   9.795  1.00 94.43     0.007 C 
HETATM   35  C33 VFQ 6 321     -42.661 140.536   9.141  1.00 94.12    -0.062 C 
HETATM   36  C34 VFQ 6 321     -42.428 139.226   9.326  1.00 93.68     0.007 C 
HETATM   37  C35 VFQ 6 321     -41.294 138.534   8.724  1.00 93.36     0.001 C 
HETATM   38  C36 VFQ 6 321     -50.477 145.789   9.688  1.00 66.61     0.020 C 
HETATM   39  C37 VFQ 6 321     -50.739 143.784  11.108  1.00 66.61     0.020 C 
HETATM   40  C38 VFQ 6 321     -47.767 146.599  13.568  1.00 66.61     0.044 C 
HETATM   41  C39 VFQ 6 321     -45.472 145.035   9.264  1.00 91.58     0.048 C 
HETATM   42  C40 VFQ 6 321     -41.749 141.374   8.294  1.00 93.59     0.048 C 
HETATM   43  O23 VFQ 6 321     -52.600 146.689  13.903  1.00 66.61    -0.395 OA
ATOM     44  H23 VFQ 6 321     -52.439 147.190  14.694  1.00  0.00     0.210 HD
ENDROOT
TORSDOF 12
