REMARK VINA RESULT:    -8.894      1.645     16.304
REMARK INTER + INTRA:         -11.381
REMARK INTER:                  -9.274
REMARK INTRA:                  -2.107
REMARK UNBOUND:                -2.487
REMARK  0 active torsions:
REMARK  status: ('A' for Active; 'I' for Inactive)
REMARK       I    between atoms: C3_3  and  O3_21 
REMARK       I    between atoms: C6_6  and  C7_7 
REMARK       I    between atoms: C8_8  and  C9_9 
REMARK       I    between atoms: C10_10  and  C11_11 
REMARK       I    between atoms: C12_12  and  C13_13 
REMARK       I    between atoms: C14_14  and  C15_15 
REMARK       I    between atoms: C23_25  and  O23_43 
REMARK       I    between atoms: C26_28  and  C27_29 
REMARK       I    between atoms: C28_30  and  C29_31 
REMARK       I    between atoms: C30_32  and  C31_33 
REMARK       I    between atoms: C32_34  and  C33_35 
REMARK       I    between atoms: C34_36  and  C35_37 
ROOT
HETATM    1  C1  VFQ 6 619     -49.465 145.515   8.595  1.00 45.52    -0.018 C 
HETATM    2  C2  VFQ 6 619     -50.391 144.305   8.698  1.00 45.52     0.045 C 
HETATM    3  C3  VFQ 6 619     -50.534 143.747  10.108  1.00 45.52     0.123 C 
HETATM    4  C4  VFQ 6 619     -50.428 144.877  11.115  1.00 45.52     0.066 C 
HETATM    5  C5  VFQ 6 619     -49.030 145.416  11.011  1.00 45.52    -0.074 C 
HETATM    6  C6  VFQ 6 619     -48.549 145.654   9.784  1.00 45.52    -0.048 C 
HETATM    7  C7  VFQ 6 619     -47.107 145.744   9.546  1.00 45.52     0.009 C 
HETATM    8  C8  VFQ 6 619     -46.537 144.595   9.916  1.00 45.52     0.007 C 
HETATM    9  C9  VFQ 6 619     -45.112 144.289   9.664  1.00 45.52    -0.062 C 
HETATM   10  C10 VFQ 6 619     -44.738 143.016   9.855  1.00 45.52     0.007 C 
HETATM   11  C11 VFQ 6 619     -43.398 142.503   9.583  1.00 45.52     0.001 C 
HETATM   12  C12 VFQ 6 619     -43.193 141.198   9.677  1.00 45.52     0.007 C 
HETATM   13  C13 VFQ 6 619     -41.898 140.577   9.364  1.00 45.52    -0.062 C 
HETATM   14  C14 VFQ 6 619     -41.894 139.239   9.342  1.00 45.52     0.007 C 
HETATM   15  C15 VFQ 6 619     -40.741 138.406   9.027  1.00 45.52     0.001 C 
HETATM   16  C16 VFQ 6 619     -50.302 146.788   8.542  1.00 45.52     0.020 C 
HETATM   17  C17 VFQ 6 619     -48.609 145.421   7.341  1.00 45.52     0.020 C 
HETATM   18  C18 VFQ 6 619     -48.219 145.491  12.281  1.00 45.52     0.044 C 
HETATM   19  C19 VFQ 6 619     -44.172 145.365   9.198  1.00 45.52     0.048 C 
HETATM   20  C20 VFQ 6 619     -40.697 141.434   9.090  1.00 45.52     0.048 C 
HETATM   21  O3  VFQ 6 619     -51.805 143.106  10.255  1.00 45.52    -0.395 OA
ATOM     22  H3  VFQ 6 619     -51.894 142.759  11.135  1.00  0.00     0.210 HD
HETATM   23  C21 VFQ 6 619     -34.416 127.324   6.194  1.00 31.86    -0.018 C 
HETATM   24  C22 VFQ 6 619     -33.027 126.758   5.875  1.00 31.86     0.045 C 
HETATM   25  C23 VFQ 6 619     -31.841 127.698   6.057  1.00 31.86     0.123 C 
HETATM   26  C24 VFQ 6 619     -32.274 129.157   6.088  1.00 31.86     0.066 C 
HETATM   27  C25 VFQ 6 619     -33.304 129.276   7.170  1.00 31.86    -0.074 C 
HETATM   28  C26 VFQ 6 619     -34.419 128.552   7.077  1.00 31.86    -0.048 C 
HETATM   29  C27 VFQ 6 619     -35.709 129.003   7.641  1.00 31.86     0.009 C 
HETATM   30  C28 VFQ 6 619     -35.982 130.311   7.681  1.00 31.86     0.007 C 
HETATM   31  C29 VFQ 6 619     -37.357 130.750   8.020  1.00 45.52    -0.062 C 
HETATM   32  C30 VFQ 6 619     -37.538 132.077   8.028  1.00 45.52     0.007 C 
HETATM   33  C31 VFQ 6 619     -38.796 132.743   8.331  1.00 45.52     0.001 C 
HETATM   34  C32 VFQ 6 619     -38.794 134.067   8.335  1.00 45.52     0.007 C 
HETATM   35  C33 VFQ 6 619     -39.995 134.847   8.654  1.00 45.52    -0.062 C 
HETATM   36  C34 VFQ 6 619     -39.853 136.183   8.698  1.00 45.52     0.007 C 
HETATM   37  C35 VFQ 6 619     -40.942 137.098   9.012  1.00 45.52     0.001 C 
HETATM   38  C36 VFQ 6 619     -35.250 126.207   6.800  1.00 31.86     0.020 C 
HETATM   39  C37 VFQ 6 619     -35.085 127.767   4.895  1.00 31.86     0.020 C 
HETATM   40  C38 VFQ 6 619     -32.990 130.106   8.383  1.00 31.86     0.044 C 
HETATM   41  C39 VFQ 6 619     -38.434 129.744   8.292  1.00 45.52     0.048 C 
HETATM   42  C40 VFQ 6 619     -41.277 134.113   8.925  1.00 45.52     0.048 C 
HETATM   43  O23 VFQ 6 619     -30.976 127.470   4.945  1.00 31.86    -0.395 OA
ATOM     44  H23 VFQ 6 619     -30.237 128.056   5.058  1.00  0.00     0.210 HD
ENDROOT
TORSDOF 12
