REMARK VINA RESULT:    -8.730      1.114     16.610
REMARK INTER + INTRA:         -10.946
REMARK INTER:                 -10.631
REMARK INTRA:                  -0.315
REMARK UNBOUND:                -2.216
REMARK  0 active torsions:
REMARK  status: ('A' for Active; 'I' for Inactive)
REMARK       I    between atoms: C3_3  and  O3_21 
REMARK       I    between atoms: C6_6  and  C7_7 
REMARK       I    between atoms: C8_8  and  C9_9 
REMARK       I    between atoms: C10_10  and  C11_11 
REMARK       I    between atoms: C12_12  and  C13_13 
REMARK       I    between atoms: C14_14  and  C15_15 
REMARK       I    between atoms: C23_25  and  O23_43 
REMARK       I    between atoms: C26_28  and  C27_29 
REMARK       I    between atoms: C28_30  and  C29_31 
REMARK       I    between atoms: C30_32  and  C31_33 
REMARK       I    between atoms: C32_34  and  C33_35 
REMARK       I    between atoms: C34_36  and  C35_37 
ROOT
HETATM    1  C1  VFQ 8 619     -50.533 144.741  11.254  1.00 35.06    -0.018 C 
HETATM    2  C2  VFQ 8 619     -50.981 144.365  12.667  1.00 35.06     0.045 C 
HETATM    3  C3  VFQ 8 619     -50.296 145.120  13.800  1.00 35.06     0.123 C 
HETATM    4  C4  VFQ 8 619     -49.693 146.414  13.284  1.00 35.06     0.066 C 
HETATM    5  C5  VFQ 8 619     -48.691 146.001  12.248  1.00 35.06    -0.074 C 
HETATM    6  C6  VFQ 8 619     -49.131 145.295  11.205  1.00 35.06    -0.048 C 
HETATM    7  C7  VFQ 8 619     -48.243 144.887  10.101  1.00 35.06     0.009 C 
HETATM    8  C8  VFQ 8 619     -47.022 144.484  10.451  1.00 35.06     0.007 C 
HETATM    9  C9  VFQ 8 619     -46.130 143.862   9.455  1.00 35.06    -0.062 C 
HETATM   10  C10 VFQ 8 619     -45.145 143.083   9.924  1.00 35.06     0.007 C 
HETATM   11  C11 VFQ 8 619     -44.253 142.300   9.080  1.00 35.06     0.001 C 
HETATM   12  C12 VFQ 8 619     -43.423 141.446   9.663  1.00 35.06     0.007 C 
HETATM   13  C13 VFQ 8 619     -42.550 140.561   8.883  1.00 35.06    -0.062 C 
HETATM   14  C14 VFQ 8 619     -41.931 139.584   9.559  1.00 35.06     0.007 C 
HETATM   15  C15 VFQ 8 619     -41.059 138.582   8.961  1.00 35.06     0.001 C 
HETATM   16  C16 VFQ 8 619     -51.436 145.850  10.726  1.00 35.06     0.020 C 
HETATM   17  C17 VFQ 8 619     -50.639 143.533  10.336  1.00 35.06     0.020 C 
HETATM   18  C18 VFQ 8 619     -47.503 146.930  12.191  1.00 35.06     0.044 C 
HETATM   19  C19 VFQ 8 619     -46.400 144.078   7.994  1.00 35.06     0.048 C 
HETATM   20  C20 VFQ 8 619     -42.431 140.785   7.406  1.00 35.06     0.048 C 
HETATM   21  O3  VFQ 8 619     -51.249 145.431  14.823  1.00 35.06    -0.395 OA
ATOM     22  H3  VFQ 8 619     -50.822 145.901  15.529  1.00  0.00     0.210 HD
HETATM   23  C21 VFQ 8 619     -34.036 128.217   7.214  1.00 48.43    -0.018 C 
HETATM   24  C22 VFQ 8 619     -33.126 127.383   6.323  1.00 44.61     0.045 C 
HETATM   25  C23 VFQ 8 619     -31.734 127.935   6.081  1.00 44.41     0.123 C 
HETATM   26  C24 VFQ 8 619     -31.781 129.427   5.856  1.00 41.53     0.066 C 
HETATM   27  C25 VFQ 8 619     -32.362 130.059   7.081  1.00 37.72    -0.074 C 
HETATM   28  C26 VFQ 8 619     -33.480 129.571   7.617  1.00 43.52    -0.048 C 
HETATM   29  C27 VFQ 8 619     -34.228 130.313   8.660  1.00 44.60     0.009 C 
HETATM   30  C28 VFQ 8 619     -35.074 131.293   8.364  1.00 43.22     0.007 C 
HETATM   31  C29 VFQ 8 619     -35.841 131.986   9.411  1.00 35.06    -0.062 C 
HETATM   32  C30 VFQ 8 619     -36.658 132.953   8.973  1.00 35.06     0.007 C 
HETATM   33  C31 VFQ 8 619     -37.505 133.784   9.814  1.00 35.06     0.001 C 
HETATM   34  C32 VFQ 8 619     -38.205 134.730   9.202  1.00 35.06     0.007 C 
HETATM   35  C33 VFQ 8 619     -39.076 135.667   9.925  1.00 35.06    -0.062 C 
HETATM   36  C34 VFQ 8 619     -39.664 136.632   9.199  1.00 35.06     0.007 C 
HETATM   37  C35 VFQ 8 619     -40.540 137.657   9.754  1.00 35.06     0.001 C 
HETATM   38  C36 VFQ 8 619     -34.259 127.489   8.526  1.00 47.48     0.020 C 
HETATM   39  C37 VFQ 8 619     -35.359 128.330   6.464  1.00 54.25     0.020 C 
HETATM   40  C38 VFQ 8 619     -31.635 131.225   7.661  1.00 37.77     0.044 C 
HETATM   41  C39 VFQ 8 619     -35.693 131.587  10.848  1.00 35.06     0.048 C 
HETATM   42  C40 VFQ 8 619     -39.226 135.506  11.407  1.00 35.06     0.048 C 
HETATM   43  O23 VFQ 8 619     -31.184 127.312   4.919  1.00 48.83    -0.395 OA
ATOM     44  H23 VFQ 8 619     -30.312 127.658   4.768  1.00  0.00     0.210 HD
ENDROOT
TORSDOF 12
