REMARK VINA RESULT:    -8.032      0.919      1.424
REMARK INTER + INTRA:         -11.398
REMARK INTER:                 -11.277
REMARK INTRA:                  -0.121
REMARK UNBOUND:                -3.367
REMARK  0 active torsions:
REMARK  status: ('A' for Active; 'I' for Inactive)
REMARK       I    between atoms: C3_3  and  O3_21 
REMARK       I    between atoms: C6_6  and  C7_7 
REMARK       I    between atoms: C8_8  and  C9_9 
REMARK       I    between atoms: C10_10  and  C11_11 
REMARK       I    between atoms: C12_12  and  C13_13 
REMARK       I    between atoms: C14_14  and  C15_15 
REMARK       I    between atoms: C23_25  and  O23_43 
REMARK       I    between atoms: C26_28  and  C27_29 
REMARK       I    between atoms: C28_30  and  C29_31 
REMARK       I    between atoms: C30_32  and  C31_33 
REMARK       I    between atoms: C32_34  and  C33_35 
REMARK       I    between atoms: C34_36  and  C35_37 
ROOT
HETATM    1  C1  VFQ g1621     -34.293 128.048   6.741  1.00 57.17    -0.018 C 
HETATM    2  C2  VFQ g1621     -33.662 127.483   5.475  1.00 57.17     0.045 C 
HETATM    3  C3  VFQ g1621     -32.350 128.093   5.016  1.00 57.17     0.123 C 
HETATM    4  C4  VFQ g1621     -31.487 128.454   6.205  1.00 57.17     0.066 C 
HETATM    5  C5  VFQ g1621     -32.249 129.408   7.077  1.00 57.17    -0.074 C 
HETATM    6  C6  VFQ g1621     -33.510 129.142   7.436  1.00 57.17    -0.048 C 
HETATM    7  C7  VFQ g1621     -34.182 129.887   8.535  1.00 57.17     0.009 C 
HETATM    8  C8  VFQ g1621     -34.727 131.091   8.342  1.00 57.17     0.007 C 
HETATM    9  C9  VFQ g1621     -35.418 131.860   9.390  1.00 57.17    -0.062 C 
HETATM   10  C10 VFQ g1621     -36.279 132.783   8.955  1.00 57.17     0.007 C 
HETATM   11  C11 VFQ g1621     -37.111 133.655   9.773  1.00 57.17     0.001 C 
HETATM   12  C12 VFQ g1621     -37.921 134.450   9.082  1.00 57.17     0.007 C 
HETATM   13  C13 VFQ g1621     -38.880 135.384   9.688  1.00 57.17    -0.062 C 
HETATM   14  C14 VFQ g1621     -39.577 136.200   8.886  1.00 57.17     0.007 C 
HETATM   15  C15 VFQ g1621     -40.580 137.115   9.414  1.00 57.17     0.001 C 
HETATM   16  C16 VFQ g1621     -34.531 126.874   7.679  1.00 57.17     0.020 C 
HETATM   17  C17 VFQ g1621     -35.624 128.648   6.350  1.00 57.17     0.020 C 
HETATM   18  C18 VFQ g1621     -31.332 130.244   7.920  1.00 57.17     0.044 C 
HETATM   19  C19 VFQ g1621     -35.168 131.618  10.846  1.00 57.17     0.048 C 
HETATM   20  C20 VFQ g1621     -39.101 135.379  11.169  1.00 57.17     0.048 C 
HETATM   21  O3  VFQ g1621     -31.667 127.115   4.232  1.00 57.17    -0.395 OA
ATOM     22  H3  VFQ g1621     -32.209 126.888   3.485  1.00  0.00     0.210 HD
HETATM   23  C21 VFQ g1621     -50.045 146.173   8.972  1.00 30.42    -0.018 C 
HETATM   24  C22 VFQ g1621     -51.109 146.897   9.802  1.00 30.42     0.045 C 
HETATM   25  C23 VFQ g1621     -51.208 146.526  11.276  1.00 30.42     0.123 C 
HETATM   26  C24 VFQ g1621     -50.545 145.187  11.568  1.00 30.42     0.066 C 
HETATM   27  C25 VFQ g1621     -49.135 145.287  11.067  1.00 30.42    -0.074 C 
HETATM   28  C26 VFQ g1621     -48.929 145.537   9.776  1.00 30.42    -0.048 C 
HETATM   29  C27 VFQ g1621     -47.738 145.048   9.050  1.00 30.42     0.009 C 
HETATM   30  C28 VFQ g1621     -47.185 143.887   9.413  1.00 30.42     0.007 C 
HETATM   31  C29 VFQ g1621     -46.143 143.271   8.548  1.00 57.17    -0.062 C 
HETATM   32  C30 VFQ g1621     -45.784 142.032   8.885  1.00 57.17     0.007 C 
HETATM   33  C31 VFQ g1621     -44.777 141.259   8.174  1.00 57.17     0.001 C 
HETATM   34  C32 VFQ g1621     -44.026 140.456   8.917  1.00 57.17     0.007 C 
HETATM   35  C33 VFQ g1621     -42.979 139.616   8.335  1.00 57.17    -0.062 C 
HETATM   36  C34 VFQ g1621     -42.346 138.719   9.096  1.00 57.17     0.007 C 
HETATM   37  C35 VFQ g1621     -41.310 137.837   8.573  1.00 57.17     0.001 C 
HETATM   38  C36 VFQ g1621     -49.496 147.153   7.948  1.00 30.42     0.020 C 
HETATM   39  C37 VFQ g1621     -50.700 145.015   8.220  1.00 30.42     0.020 C 
HETATM   40  C38 VFQ g1621     -48.008 145.231  12.060  1.00 30.42     0.044 C 
HETATM   41  C39 VFQ g1621     -45.522 143.988   7.390  1.00 57.17     0.048 C 
HETATM   42  C40 VFQ g1621     -42.640 139.810   6.904  1.00 57.17     0.048 C 
HETATM   43  O23 VFQ g1621     -52.600 146.456  11.579  1.00 30.42    -0.395 OA
ATOM     44  H23 VFQ g1621     -53.014 147.291  11.397  1.00  0.00     0.210 HD
ENDROOT
TORSDOF 12
