REMARK VINA RESULT:   -10.930      0.000      0.000
REMARK INTER + INTRA:         -11.594
REMARK INTER:                 -10.930
REMARK INTRA:                  -0.663
REMARK UNBOUND:                -0.663
REMARK  0 active torsions:
REMARK  status: ('A' for Active; 'I' for Inactive)
REMARK       I    between atoms: C3_3  and  O3_21 
REMARK       I    between atoms: C6_6  and  C7_7 
REMARK       I    between atoms: C8_8  and  C9_9 
REMARK       I    between atoms: C10_10  and  C11_11 
REMARK       I    between atoms: C12_12  and  C13_13 
REMARK       I    between atoms: C14_14  and  C15_15 
REMARK       I    between atoms: C23_25  and  O23_43 
REMARK       I    between atoms: C26_28  and  C27_29 
REMARK       I    between atoms: C28_30  and  C29_31 
REMARK       I    between atoms: C30_32  and  C31_33 
REMARK       I    between atoms: C32_34  and  C33_35 
REMARK       I    between atoms: C34_36  and  C35_37 
ROOT
HETATM    1  C1  VFQ s1620     -34.201 128.358   6.900  1.00 51.12    -0.018 C 
HETATM    2  C2  VFQ s1620     -33.453 127.963   5.635  1.00 51.12     0.045 C 
HETATM    3  C3  VFQ s1620     -32.037 128.475   5.415  1.00 51.12     0.123 C 
HETATM    4  C4  VFQ s1620     -31.398 129.017   6.675  1.00 51.12     0.066 C 
HETATM    5  C5  VFQ s1620     -32.350 129.944   7.357  1.00 51.12    -0.074 C 
HETATM    6  C6  VFQ s1620     -33.578 129.524   7.638  1.00 51.12    -0.048 C 
HETATM    7  C7  VFQ s1620     -34.370 130.172   8.699  1.00 51.12     0.009 C 
HETATM    8  C8  VFQ s1620     -35.009 131.307   8.456  1.00 51.12     0.007 C 
HETATM    9  C9  VFQ s1620     -35.823 131.953   9.481  1.00 51.12    -0.062 C 
HETATM   10  C10 VFQ s1620     -36.389 133.104   9.125  1.00 51.12     0.007 C 
HETATM   11  C11 VFQ s1620     -37.265 133.909   9.952  1.00 51.12     0.001 C 
HETATM   12  C12 VFQ s1620     -37.929 134.801   9.239  1.00 51.12     0.007 C 
HETATM   13  C13 VFQ s1620     -38.911 135.730   9.792  1.00 51.12    -0.062 C 
HETATM   14  C14 VFQ s1620     -39.584 136.483   8.922  1.00 51.12     0.007 C 
HETATM   15  C15 VFQ s1620     -40.620 137.408   9.345  1.00 51.12     0.001 C 
HETATM   16  C16 VFQ s1620     -34.325 127.118   7.777  1.00 51.12     0.020 C 
HETATM   17  C17 VFQ s1620     -35.601 128.785   6.498  1.00 51.12     0.020 C 
HETATM   18  C18 VFQ s1620     -31.522 130.725   8.329  1.00 51.12     0.044 C 
HETATM   19  C19 VFQ s1620     -35.999 131.323  10.827  1.00 51.12     0.048 C 
HETATM   20  C20 VFQ s1620     -39.150 135.807  11.262  1.00 51.12     0.048 C 
HETATM   21  O3  VFQ s1620     -31.226 127.384   4.969  1.00 51.12    -0.395 OA
ATOM     22  H3  VFQ s1620     -31.628 127.044   4.178  1.00  0.00     0.210 HD
HETATM   23  C21 VFQ s1620     -50.860 144.328  10.061  1.00 21.11    -0.018 C 
HETATM   24  C22 VFQ s1620     -52.106 144.892  10.766  1.00 20.11     0.045 C 
HETATM   25  C23 VFQ s1620     -51.954 145.981  11.828  1.00 19.41     0.123 C 
HETATM   26  C24 VFQ s1620     -50.532 146.519  12.042  1.00 18.39     0.066 C 
HETATM   27  C25 VFQ s1620     -49.397 146.129  11.156  1.00 18.34    -0.074 C 
HETATM   28  C26 VFQ s1620     -49.504 145.110  10.236  1.00 19.81    -0.048 C 
HETATM   29  C27 VFQ s1620     -48.423 144.661   9.330  1.00 19.02     0.009 C 
HETATM   30  C28 VFQ s1620     -47.421 143.830   9.677  1.00 17.97     0.007 C 
HETATM   31  C29 VFQ s1620     -46.358 143.375   8.821  1.00 51.12    -0.062 C 
HETATM   32  C30 VFQ s1620     -45.807 142.185   9.069  1.00 51.12     0.007 C 
HETATM   33  C31 VFQ s1620     -44.755 141.594   8.257  1.00 51.12     0.001 C 
HETATM   34  C32 VFQ s1620     -44.106 140.582   8.810  1.00 51.12     0.007 C 
HETATM   35  C33 VFQ s1620     -43.034 139.836   8.138  1.00 51.12    -0.062 C 
HETATM   36  C34 VFQ s1620     -42.358 138.966   8.890  1.00 51.12     0.007 C 
HETATM   37  C35 VFQ s1620     -41.294 138.092   8.427  1.00 51.12     0.001 C 
HETATM   38  C36 VFQ s1620     -51.242 144.225   8.570  1.00 19.56     0.020 C 
HETATM   39  C37 VFQ s1620     -50.741 142.890  10.625  1.00 18.49     0.020 C 
HETATM   40  C38 VFQ s1620     -48.244 147.021  11.432  1.00 16.89     0.044 C 
HETATM   41  C39 VFQ s1620     -45.909 144.226   7.677  1.00 51.12     0.048 C 
HETATM   42  C40 VFQ s1620     -42.749 140.028   6.682  1.00 51.12     0.048 C 
HETATM   43  O23 VFQ s1620     -52.504 145.544  13.058  1.00 18.27    -0.395 OA
ATOM     44  H23 VFQ s1620     -52.408 146.221  13.718  1.00  0.00     0.210 HD
ENDROOT
TORSDOF 12
