REMARK VINA RESULT:   -11.855      1.448      1.966
REMARK INTER + INTRA:         -12.027
REMARK INTER:                  -9.530
REMARK INTRA:                  -2.497
REMARK UNBOUND:                -0.172
REMARK  0 active torsions:
REMARK  status: ('A' for Active; 'I' for Inactive)
REMARK       I    between atoms: C3_3  and  O3_21 
REMARK       I    between atoms: C6_6  and  C7_7 
REMARK       I    between atoms: C8_8  and  C9_9 
REMARK       I    between atoms: C10_10  and  C11_11 
REMARK       I    between atoms: C12_12  and  C13_13 
REMARK       I    between atoms: C14_14  and  C15_15 
REMARK       I    between atoms: C23_25  and  O23_43 
REMARK       I    between atoms: C26_28  and  C27_29 
REMARK       I    between atoms: C28_30  and  C29_31 
REMARK       I    between atoms: C30_32  and  C31_33 
REMARK       I    between atoms: C32_34  and  C33_35 
REMARK       I    between atoms: C34_36  and  C35_37 
ROOT
HETATM    1  C1  VFQ X1621     -34.433 127.003   6.421  1.00 31.86    -0.018 C 
HETATM    2  C2  VFQ X1621     -34.244 126.702   4.931  1.00 31.86     0.045 C 
HETATM    3  C3  VFQ X1621     -33.048 127.349   4.242  1.00 31.86     0.123 C 
HETATM    4  C4  VFQ X1621     -31.999 127.811   5.246  1.00 31.86     0.066 C 
HETATM    5  C5  VFQ X1621     -32.700 128.720   6.210  1.00 31.86    -0.074 C 
HETATM    6  C6  VFQ X1621     -33.717 128.238   6.922  1.00 31.86    -0.048 C 
HETATM    7  C7  VFQ X1621     -34.300 128.965   8.070  1.00 31.86     0.009 C 
HETATM    8  C8  VFQ X1621     -34.304 130.301   8.062  1.00 31.86     0.007 C 
HETATM    9  C9  VFQ X1621     -35.096 131.010   9.092  1.00 31.86    -0.062 C 
HETATM   10  C10 VFQ X1621     -35.523 132.251   8.783  1.00 31.86     0.007 C 
HETATM   11  C11 VFQ X1621     -36.450 133.013   9.618  1.00 31.86     0.001 C 
HETATM   12  C12 VFQ X1621     -37.033 134.101   9.119  1.00 31.86     0.007 C 
HETATM   13  C13 VFQ X1621     -38.046 134.857   9.888  1.00 31.86    -0.062 C 
HETATM   14  C14 VFQ X1621     -38.688 135.857   9.248  1.00 31.86     0.007 C 
HETATM   15  C15 VFQ X1621     -39.732 136.684   9.856  1.00 31.86     0.001 C 
HETATM   16  C16 VFQ X1621     -33.854 125.850   7.239  1.00 31.86     0.020 C 
HETATM   17  C17 VFQ X1621     -35.926 127.079   6.700  1.00 31.86     0.020 C 
HETATM   18  C18 VFQ X1621     -31.588 129.513   6.840  1.00 31.86     0.044 C 
HETATM   19  C19 VFQ X1621     -35.470 130.304  10.375  1.00 31.86     0.048 C 
HETATM   20  C20 VFQ X1621     -38.327 134.455  11.315  1.00 31.86     0.048 C 
HETATM   21  O3  VFQ X1621     -32.495 126.355   3.383  1.00 31.86    -0.395 OA
ATOM     22  H3  VFQ X1621     -33.149 126.068   2.757  1.00  0.00     0.210 HD
HETATM   23  C21 VFQ X1621     -48.624 145.625  11.995  1.00 66.61    -0.018 C 
HETATM   24  C22 VFQ X1621     -49.426 146.614  12.832  1.00 66.61     0.045 C 
HETATM   25  C23 VFQ X1621     -48.665 147.566  13.743  1.00 66.61     0.123 C 
HETATM   26  C24 VFQ X1621     -47.396 146.935  14.272  1.00 66.61     0.066 C 
HETATM   27  C25 VFQ X1621     -46.564 146.456  13.117  1.00 66.61    -0.074 C 
HETATM   28  C26 VFQ X1621     -47.119 145.780  12.106  1.00 66.61    -0.048 C 
HETATM   29  C27 VFQ X1621     -46.269 145.177  11.048  1.00 66.61     0.009 C 
HETATM   30  C28 VFQ X1621     -45.752 143.953  11.180  1.00 66.61     0.007 C 
HETATM   31  C29 VFQ X1621     -44.919 143.330  10.140  1.00 31.86    -0.062 C 
HETATM   32  C30 VFQ X1621     -44.400 142.117  10.426  1.00 31.86     0.007 C 
HETATM   33  C31 VFQ X1621     -43.509 141.375   9.536  1.00 31.86     0.001 C 
HETATM   34  C32 VFQ X1621     -42.944 140.252   9.977  1.00 31.86     0.007 C 
HETATM   35  C33 VFQ X1621     -41.973 139.496   9.159  1.00 31.86    -0.062 C 
HETATM   36  C34 VFQ X1621     -41.347 138.465   9.763  1.00 31.86     0.007 C 
HETATM   37  C35 VFQ X1621     -40.316 137.635   9.135  1.00 31.86     0.001 C 
HETATM   38  C36 VFQ X1621     -49.010 145.839  10.540  1.00 66.61     0.020 C 
HETATM   39  C37 VFQ X1621     -49.057 144.222  12.406  1.00 66.61     0.020 C 
HETATM   40  C38 VFQ X1621     -45.102 146.789  13.162  1.00 66.61     0.044 C 
HETATM   41  C39 VFQ X1621     -44.701 144.065   8.842  1.00 31.86     0.048 C 
HETATM   42  C40 VFQ X1621     -41.696 139.937   7.746  1.00 31.86     0.048 C 
HETATM   43  O23 VFQ X1621     -49.505 147.899  14.852  1.00 66.61    -0.395 OA
ATOM     44  H23 VFQ X1621     -50.302 148.295  14.519  1.00  0.00     0.210 HD
ENDROOT
TORSDOF 12
