REMARK VINA RESULT:   -11.008      0.000      0.000
REMARK INTER + INTRA:         -12.555
REMARK INTER:                 -11.008
REMARK INTRA:                  -1.547
REMARK UNBOUND:                -1.547
REMARK  0 active torsions:
REMARK  status: ('A' for Active; 'I' for Inactive)
REMARK       I    between atoms: C3_3  and  O3_21 
REMARK       I    between atoms: C6_6  and  C7_7 
REMARK       I    between atoms: C8_8  and  C9_9 
REMARK       I    between atoms: C10_10  and  C11_11 
REMARK       I    between atoms: C12_12  and  C13_13 
REMARK       I    between atoms: C14_14  and  C15_15 
REMARK       I    between atoms: C23_25  and  O23_43 
REMARK       I    between atoms: C26_28  and  C27_29 
REMARK       I    between atoms: C28_30  and  C29_31 
REMARK       I    between atoms: C30_32  and  C31_33 
REMARK       I    between atoms: C32_34  and  C33_35 
REMARK       I    between atoms: C34_36  and  C35_37 
ROOT
HETATM    1  C1  VFQ 5 624     -34.405 127.510   6.701  1.00 23.68    -0.018 C 
HETATM    2  C2  VFQ 5 624     -33.839 126.931   5.406  1.00 23.68     0.045 C 
HETATM    3  C3  VFQ 5 624     -32.571 127.546   4.827  1.00 23.68     0.123 C 
HETATM    4  C4  VFQ 5 624     -31.704 128.174   5.901  1.00 23.68     0.066 C 
HETATM    5  C5  VFQ 5 624     -32.542 129.147   6.681  1.00 23.68    -0.074 C 
HETATM    6  C6  VFQ 5 624     -33.714 128.770   7.197  1.00 23.68    -0.048 C 
HETATM    7  C7  VFQ 5 624     -34.349 129.550   8.294  1.00 23.68     0.009 C 
HETATM    8  C8  VFQ 5 624     -35.110 130.627   8.080  1.00 23.68     0.007 C 
HETATM    9  C9  VFQ 5 624     -35.747 131.397   9.175  1.00 23.68    -0.062 C 
HETATM   10  C10 VFQ 5 624     -36.586 132.389   8.837  1.00 23.68     0.007 C 
HETATM   11  C11 VFQ 5 624     -37.337 133.258   9.742  1.00 23.68     0.001 C 
HETATM   12  C12 VFQ 5 624     -38.226 134.036   9.118  1.00 23.68     0.007 C 
HETATM   13  C13 VFQ 5 624     -39.176 135.009   9.695  1.00 23.68    -0.062 C 
HETATM   14  C14 VFQ 5 624     -39.848 135.794   8.837  1.00 23.68     0.007 C 
HETATM   15  C15 VFQ 5 624     -40.849 136.768   9.264  1.00 23.68     0.001 C 
HETATM   16  C16 VFQ 5 624     -34.332 126.398   7.733  1.00 23.68     0.020 C 
HETATM   17  C17 VFQ 5 624     -35.866 127.861   6.464  1.00 23.68     0.020 C 
HETATM   18  C18 VFQ 5 624     -31.644 130.106   7.400  1.00 23.68     0.044 C 
HETATM   19  C19 VFQ 5 624     -35.470 131.082  10.611  1.00 23.68     0.048 C 
HETATM   20  C20 VFQ 5 624     -39.406 135.105  11.171  1.00 23.68     0.048 C 
HETATM   21  O3  VFQ 5 624     -31.829 126.514   4.174  1.00 23.68    -0.395 OA
ATOM     22  H3  VFQ 5 624     -31.038 126.897   3.812  1.00  0.00     0.210 HD
HETATM   23  C21 VFQ 5 624     -50.179 145.871   9.545  1.00 27.99    -0.018 C 
HETATM   24  C22 VFQ 5 624     -51.380 146.301  10.398  1.00 27.99     0.045 C 
HETATM   25  C23 VFQ 5 624     -51.299 145.929  11.873  1.00 27.99     0.123 C 
HETATM   26  C24 VFQ 5 624     -50.737 144.525  11.987  1.00 27.99     0.066 C 
HETATM   27  C25 VFQ 5 624     -49.319 144.621  11.506  1.00 27.99    -0.074 C 
HETATM   28  C26 VFQ 5 624     -49.078 145.130  10.291  1.00 27.99    -0.048 C 
HETATM   29  C27 VFQ 5 624     -47.847 144.809   9.533  1.00 27.99     0.009 C 
HETATM   30  C28 VFQ 5 624     -47.363 143.563   9.626  1.00 27.99     0.007 C 
HETATM   31  C29 VFQ 5 624     -46.285 143.113   8.700  1.00 23.68    -0.062 C 
HETATM   32  C30 VFQ 5 624     -45.800 141.894   8.954  1.00 23.68     0.007 C 
HETATM   33  C31 VFQ 5 624     -44.763 141.221   8.183  1.00 23.68     0.001 C 
HETATM   34  C32 VFQ 5 624     -44.012 140.341   8.830  1.00 23.68     0.007 C 
HETATM   35  C33 VFQ 5 624     -42.947 139.558   8.187  1.00 23.68    -0.062 C 
HETATM   36  C34 VFQ 5 624     -42.376 138.581   8.910  1.00 23.68     0.007 C 
HETATM   37  C35 VFQ 5 624     -41.339 137.676   8.418  1.00 23.68     0.001 C 
HETATM   38  C36 VFQ 5 624     -49.642 147.102   8.816  1.00 27.99     0.020 C 
HETATM   39  C37 VFQ 5 624     -50.678 144.839   8.531  1.00 27.99     0.020 C 
HETATM   40  C38 VFQ 5 624     -48.224 144.266  12.472  1.00 27.99     0.044 C 
HETATM   41  C39 VFQ 5 624     -45.787 143.948   7.560  1.00 23.68     0.048 C 
HETATM   42  C40 VFQ 5 624     -42.543 139.858   6.777  1.00 23.68     0.048 C 
HETATM   43  O23 VFQ 5 624     -52.600 145.995  12.473  1.00 27.99    -0.395 OA
ATOM     44  H23 VFQ 5 624     -52.952 146.874  12.401  1.00  0.00     0.210 HD
ENDROOT
TORSDOF 12
