REMARK VINA RESULT:    -9.790      1.950      2.453
REMARK INTER + INTRA:         -12.442
REMARK INTER:                 -12.196
REMARK INTRA:                  -0.246
REMARK UNBOUND:                -2.652
REMARK  0 active torsions:
REMARK  status: ('A' for Active; 'I' for Inactive)
REMARK       I    between atoms: C3_3  and  O3_21 
REMARK       I    between atoms: C6_6  and  C7_7 
REMARK       I    between atoms: C8_8  and  C9_9 
REMARK       I    between atoms: C10_10  and  C11_11 
REMARK       I    between atoms: C12_12  and  C13_13 
REMARK       I    between atoms: C14_14  and  C15_15 
REMARK       I    between atoms: C23_25  and  O23_43 
REMARK       I    between atoms: C26_28  and  C27_29 
REMARK       I    between atoms: C28_30  and  C29_31 
REMARK       I    between atoms: C30_32  and  C31_33 
REMARK       I    between atoms: C32_34  and  C33_35 
REMARK       I    between atoms: C34_36  and  C35_37 
ROOT
HETATM    1  C1  VFQ I8621     -50.701 145.446   9.707  1.00 22.25    -0.018 C 
HETATM    2  C2  VFQ I8621     -51.751 145.911  10.727  1.00 20.45     0.045 C 
HETATM    3  C3  VFQ I8621     -51.383 146.941  11.792  1.00 22.17     0.123 C 
HETATM    4  C4  VFQ I8621     -50.057 147.684  11.571  1.00 20.30     0.066 C 
HETATM    5  C5  VFQ I8621     -49.021 147.133  10.649  1.00 20.75    -0.074 C 
HETATM    6  C6  VFQ I8621     -49.281 146.102   9.770  1.00 21.23    -0.048 C 
HETATM    7  C7  VFQ I8621     -48.299 145.524   8.825  1.00 18.62     0.009 C 
HETATM    8  C8  VFQ I8621     -47.352 144.624   9.155  1.00 19.71     0.007 C 
HETATM    9  C9  VFQ I8621     -46.334 144.016   8.293  1.00 18.91    -0.062 C 
HETATM   10  C10 VFQ I8621     -45.575 143.032   8.820  1.00 16.97     0.007 C 
HETATM   11  C11 VFQ I8621     -44.599 142.252   8.121  1.00 17.11     0.001 C 
HETATM   12  C12 VFQ I8621     -43.960 141.224   8.699  1.00 17.32     0.007 C 
HETATM   13  C13 VFQ I8621     -43.013 140.302   8.059  1.00 18.45    -0.062 C 
HETATM   14  C14 VFQ I8621     -42.509 139.295   8.804  1.00 18.02     0.007 C 
HETATM   15  C15 VFQ I8621     -41.631 138.255   8.362  1.00 17.18     0.001 C 
HETATM   16  C16 VFQ I8621     -51.377 145.765   8.359  1.00 20.14     0.020 C 
HETATM   17  C17 VFQ I8621     -50.599 143.901   9.840  1.00 21.86     0.020 C 
HETATM   18  C18 VFQ I8621     -47.756 147.895  10.833  1.00 20.13     0.044 C 
HETATM   19  C19 VFQ I8621     -46.265 144.468   6.861  1.00 18.10     0.048 C 
HETATM   20  C20 VFQ I8621     -42.702 140.512   6.600  1.00 17.04     0.048 C 
HETATM   21  O3  VFQ I8621     -52.449 147.866  11.968  1.00 24.42    -0.395 OA
ATOM     22  H3  VFQ I8621     -52.219 148.507  12.631  1.00  0.00     0.210 HD
HETATM   23  C21 VFQ I8621     -33.941 127.936   7.269  1.00 16.49    -0.018 C 
HETATM   24  C22 VFQ I8621     -33.137 127.131   6.231  1.00 14.93     0.045 C 
HETATM   25  C23 VFQ I8621     -31.827 127.690   5.684  1.00 15.86     0.123 C 
HETATM   26  C24 VFQ I8621     -31.667 129.217   5.820  1.00 14.41     0.066 C 
HETATM   27  C25 VFQ I8621     -32.463 129.979   6.846  1.00 15.44    -0.074 C 
HETATM   28  C26 VFQ I8621     -33.529 129.423   7.526  1.00 14.73    -0.048 C 
HETATM   29  C27 VFQ I8621     -34.343 130.144   8.535  1.00 14.04     0.009 C 
HETATM   30  C28 VFQ I8621     -35.361 130.990   8.253  1.00 12.72     0.007 C 
HETATM   31  C29 VFQ I8621     -36.173 131.782   9.178  1.00 22.55    -0.062 C 
HETATM   32  C30 VFQ I8621     -37.121 132.609   8.685  1.00 20.56     0.007 C 
HETATM   33  C31 VFQ I8621     -38.008 133.442   9.462  1.00 20.09     0.001 C 
HETATM   34  C32 VFQ I8621     -38.799 134.384   8.900  1.00 17.50     0.007 C 
HETATM   35  C33 VFQ I8621     -39.710 135.337   9.549  1.00 16.61    -0.062 C 
HETATM   36  C34 VFQ I8621     -40.301 136.266   8.769  1.00 17.58     0.007 C 
HETATM   37  C35 VFQ I8621     -41.173 137.332   9.203  1.00 19.85     0.001 C 
HETATM   38  C36 VFQ I8621     -33.895 127.142   8.600  1.00 14.27     0.020 C 
HETATM   39  C37 VFQ I8621     -35.374 127.856   6.684  1.00 12.26     0.020 C 
HETATM   40  C38 VFQ I8621     -31.927 131.359   7.032  1.00 13.78     0.044 C 
HETATM   41  C39 VFQ I8621     -35.843 131.671  10.639  1.00 24.32     0.048 C 
HETATM   42  C40 VFQ I8621     -39.860 135.276  11.037  1.00 12.09     0.048 C 
HETATM   43  O23 VFQ I8621     -31.647 127.288   4.334  1.00 14.46    -0.395 OA
ATOM     44  H23 VFQ I8621     -31.746 126.346   4.251  1.00  0.00     0.210 HD
ENDROOT
TORSDOF 12
