REMARK VINA RESULT:   -10.745      0.000      0.000
REMARK INTER + INTRA:         -13.322
REMARK INTER:                 -10.745
REMARK INTRA:                  -2.577
REMARK UNBOUND:                -2.577
REMARK  0 active torsions:
REMARK  status: ('A' for Active; 'I' for Inactive)
REMARK       I    between atoms: C3_3  and  O3_21 
REMARK       I    between atoms: C6_6  and  C7_7 
REMARK       I    between atoms: C8_8  and  C9_9 
REMARK       I    between atoms: C10_10  and  C11_11 
REMARK       I    between atoms: C12_12  and  C13_13 
REMARK       I    between atoms: C14_14  and  C15_15 
REMARK       I    between atoms: C23_25  and  O23_43 
REMARK       I    between atoms: C26_28  and  C27_29 
REMARK       I    between atoms: C28_30  and  C29_31 
REMARK       I    between atoms: C30_32  and  C31_33 
REMARK       I    between atoms: C32_34  and  C33_35 
REMARK       I    between atoms: C34_36  and  C35_37 
ROOT
HETATM    1  C1  VFQ 1 619     -34.382 126.873   6.410  1.00 34.54    -0.018 C 
HETATM    2  C2  VFQ 1 619     -34.141 126.313   5.008  1.00 34.54     0.045 C 
HETATM    3  C3  VFQ 1 619     -33.100 126.989   4.115  1.00 34.54     0.123 C 
HETATM    4  C4  VFQ 1 619     -32.087 127.820   4.886  1.00 34.54     0.066 C 
HETATM    5  C5  VFQ 1 619     -32.834 128.734   5.815  1.00 34.54    -0.074 C 
HETATM    6  C6  VFQ 1 619     -33.776 128.249   6.631  1.00 34.54    -0.048 C 
HETATM    7  C7  VFQ 1 619     -34.216 129.070   7.783  1.00 34.54     0.009 C 
HETATM    8  C8  VFQ 1 619     -35.213 129.939   7.638  1.00 34.54     0.007 C 
HETATM    9  C9  VFQ 1 619     -35.713 130.808   8.714  1.00 34.54    -0.062 C 
HETATM   10  C10 VFQ 1 619     -36.557 131.759   8.320  1.00 34.54     0.007 C 
HETATM   11  C11 VFQ 1 619     -37.181 132.754   9.174  1.00 34.54     0.001 C 
HETATM   12  C12 VFQ 1 619     -37.987 133.572   8.512  1.00 34.54     0.007 C 
HETATM   13  C13 VFQ 1 619     -38.725 134.671   9.141  1.00 34.54    -0.062 C 
HETATM   14  C14 VFQ 1 619     -39.716 135.238   8.444  1.00 34.54     0.007 C 
HETATM   15  C15 VFQ 1 619     -40.480 136.342   8.999  1.00 34.54     0.001 C 
HETATM   16  C16 VFQ 1 619     -33.850 125.850   7.411  1.00 34.54     0.020 C 
HETATM   17  C17 VFQ 1 619     -35.883 126.991   6.634  1.00 34.54     0.020 C 
HETATM   18  C18 VFQ 1 619     -31.955 129.883   6.218  1.00 34.54     0.044 C 
HETATM   19  C19 VFQ 1 619     -35.302 130.648  10.146  1.00 34.54     0.048 C 
HETATM   20  C20 VFQ 1 619     -38.359 135.147  10.515  1.00 34.54     0.048 C 
HETATM   21  O3  VFQ 1 619     -32.403 125.978   3.380  1.00 34.54    -0.395 OA
ATOM     22  H3  VFQ 1 619     -33.036 125.459   2.898  1.00  0.00     0.210 HD
HETATM   23  C21 VFQ 1 619     -50.943 143.860  11.493  1.00 30.42    -0.018 C 
HETATM   24  C22 VFQ 1 619     -51.462 145.138  12.160  1.00 30.42     0.045 C 
HETATM   25  C23 VFQ 1 619     -50.435 146.026  12.852  1.00 30.42     0.123 C 
HETATM   26  C24 VFQ 1 619     -49.146 145.271  13.150  1.00 30.42     0.066 C 
HETATM   27  C25 VFQ 1 619     -48.669 144.701  11.848  1.00 30.42    -0.074 C 
HETATM   28  C26 VFQ 1 619     -49.458 143.854  11.189  1.00 30.42    -0.048 C 
HETATM   29  C27 VFQ 1 619     -48.929 142.782  10.323  1.00 30.42     0.009 C 
HETATM   30  C28 VFQ 1 619     -47.759 142.214  10.630  1.00 30.42     0.007 C 
HETATM   31  C29 VFQ 1 619     -47.346 140.987   9.907  1.00 34.54    -0.062 C 
HETATM   32  C30 VFQ 1 619     -46.054 140.643   9.958  1.00 34.54     0.007 C 
HETATM   33  C31 VFQ 1 619     -45.535 139.461   9.282  1.00 34.54     0.001 C 
HETATM   34  C32 VFQ 1 619     -44.220 139.279   9.321  1.00 34.54     0.007 C 
HETATM   35  C33 VFQ 1 619     -43.573 138.126   8.678  1.00 34.54    -0.062 C 
HETATM   36  C34 VFQ 1 619     -42.291 137.890   8.966  1.00 34.54     0.007 C 
HETATM   37  C35 VFQ 1 619     -41.567 136.777   8.375  1.00 34.54     0.001 C 
HETATM   38  C36 VFQ 1 619     -51.763 143.618  10.236  1.00 30.42     0.020 C 
HETATM   39  C37 VFQ 1 619     -51.159 142.680  12.439  1.00 30.42     0.020 C 
HETATM   40  C38 VFQ 1 619     -47.376 145.203  11.268  1.00 30.42     0.044 C 
HETATM   41  C39 VFQ 1 619     -48.337 140.162   9.141  1.00 34.54     0.048 C 
HETATM   42  C40 VFQ 1 619     -44.333 137.246   7.728  1.00 34.54     0.048 C 
HETATM   43  O23 VFQ 1 619     -51.035 146.463  14.067  1.00 30.42    -0.395 OA
ATOM     44  H23 VFQ 1 619     -51.839 146.933  13.881  1.00  0.00     0.210 HD
ENDROOT
TORSDOF 12
