REMARK VINA RESULT:    -9.581      1.933     16.623
REMARK INTER + INTRA:         -10.024
REMARK INTER:                  -5.752
REMARK INTRA:                  -4.272
REMARK UNBOUND:                -0.443
REMARK  0 active torsions:
REMARK  status: ('A' for Active; 'I' for Inactive)
REMARK       I    between atoms: C3_3  and  O3_21 
REMARK       I    between atoms: C6_6  and  C7_7 
REMARK       I    between atoms: C8_8  and  C9_9 
REMARK       I    between atoms: C10_10  and  C11_11 
REMARK       I    between atoms: C12_12  and  C13_13 
REMARK       I    between atoms: C14_14  and  C15_15 
REMARK       I    between atoms: C23_25  and  O23_43 
REMARK       I    between atoms: C26_28  and  C27_29 
REMARK       I    between atoms: C28_30  and  C29_31 
REMARK       I    between atoms: C30_32  and  C31_33 
REMARK       I    between atoms: C32_34  and  C33_35 
REMARK       I    between atoms: C34_36  and  C35_37 
ROOT
HETATM    1  C1  VFQ S1620     -47.912 145.078  12.432  1.00 51.40    -0.018 C 
HETATM    2  C2  VFQ S1620     -48.499 145.385  13.803  1.00 51.40     0.045 C 
HETATM    3  C3  VFQ S1620     -47.813 146.408  14.697  1.00 51.40     0.123 C 
HETATM    4  C4  VFQ S1620     -46.825 147.280  13.953  1.00 51.40     0.066 C 
HETATM    5  C5  VFQ S1620     -45.942 146.423  13.107  1.00 51.40    -0.074 C 
HETATM    6  C6  VFQ S1620     -46.490 145.563  12.256  1.00 51.40    -0.048 C 
HETATM    7  C7  VFQ S1620     -45.731 145.071  11.092  1.00 51.40     0.009 C 
HETATM    8  C8  VFQ S1620     -44.855 144.088  11.237  1.00 51.40     0.007 C 
HETATM    9  C9  VFQ S1620     -44.112 143.560  10.096  1.00 51.40    -0.062 C 
HETATM   10  C10 VFQ S1620     -43.237 142.597  10.375  1.00 51.40     0.007 C 
HETATM   11  C11 VFQ S1620     -42.412 141.897   9.411  1.00 51.40     0.001 C 
HETATM   12  C12 VFQ S1620     -41.902 140.789   9.918  1.00 51.40     0.007 C 
HETATM   13  C13 VFQ S1620     -41.058 139.857   9.174  1.00 51.40    -0.062 C 
HETATM   14  C14 VFQ S1620     -40.720 138.724   9.791  1.00 51.40     0.007 C 
HETATM   15  C15 VFQ S1620     -39.929 137.700   9.137  1.00 51.40     0.001 C 
HETATM   16  C16 VFQ S1620     -48.854 145.651  11.381  1.00 51.40     0.020 C 
HETATM   17  C17 VFQ S1620     -47.890 143.570  12.264  1.00 51.40     0.020 C 
HETATM   18  C18 VFQ S1620     -44.777 147.289  12.742  1.00 51.40     0.044 C 
HETATM   19  C19 VFQ S1620     -44.356 144.084   8.716  1.00 51.40     0.048 C 
HETATM   20  C20 VFQ S1620     -40.617 140.167   7.782  1.00 51.40     0.048 C 
HETATM   21  O3  VFQ S1620     -48.811 147.273  15.243  1.00 51.40    -0.395 OA
ATOM     22  H3  VFQ S1620     -48.382 147.912  15.801  1.00  0.00     0.210 HD
HETATM   23  C21 VFQ S1620     -34.840 126.880   5.291  1.00 21.49    -0.018 C 
HETATM   24  C22 VFQ S1620     -34.137 125.925   4.301  1.00 21.50     0.045 C 
HETATM   25  C23 VFQ S1620     -32.635 126.080   4.038  1.00 22.37     0.123 C 
HETATM   26  C24 VFQ S1620     -32.027 127.413   4.484  1.00 21.17     0.066 C 
HETATM   27  C25 VFQ S1620     -32.667 128.179   5.596  1.00 19.70    -0.074 C 
HETATM   28  C26 VFQ S1620     -33.970 127.957   5.998  1.00 20.41    -0.048 C 
HETATM   29  C27 VFQ S1620     -34.594 128.712   7.102  1.00 19.41     0.009 C 
HETATM   30  C28 VFQ S1620     -35.085 129.959   7.069  1.00 18.90     0.007 C 
HETATM   31  C29 VFQ S1620     -35.554 130.712   8.204  1.00 51.40    -0.062 C 
HETATM   32  C30 VFQ S1620     -36.500 131.634   8.008  1.00 51.40     0.007 C 
HETATM   33  C31 VFQ S1620     -37.087 132.433   9.072  1.00 51.40     0.001 C 
HETATM   34  C32 VFQ S1620     -37.756 133.506   8.680  1.00 51.40     0.007 C 
HETATM   35  C33 VFQ S1620     -38.444 134.419   9.601  1.00 51.40    -0.062 C 
HETATM   36  C34 VFQ S1620     -38.920 135.548   9.071  1.00 51.40     0.007 C 
HETATM   37  C35 VFQ S1620     -39.670 136.567   9.782  1.00 51.40     0.001 C 
HETATM   38  C36 VFQ S1620     -35.567 126.002   6.342  1.00 19.84     0.020 C 
HETATM   39  C37 VFQ S1620     -35.906 127.567   4.415  1.00 19.63     0.020 C 
HETATM   40  C38 VFQ S1620     -31.654 129.133   6.120  1.00 19.29     0.044 C 
HETATM   41  C39 VFQ S1620     -34.993 130.441   9.564  1.00 51.40     0.048 C 
HETATM   42  C40 VFQ S1620     -38.622 134.075  11.046  1.00 51.40     0.048 C 
HETATM   43  O23 VFQ S1620     -32.348 125.850   2.669  1.00 22.38    -0.395 OA
ATOM     44  H23 VFQ S1620     -32.725 125.024   2.392  1.00  0.00     0.210 HD
ENDROOT
TORSDOF 12
