REMARK VINA RESULT:   -10.887      1.690      2.126
REMARK INTER + INTRA:         -11.299
REMARK INTER:                  -9.593
REMARK INTRA:                  -1.706
REMARK UNBOUND:                -0.412
REMARK  0 active torsions:
REMARK  status: ('A' for Active; 'I' for Inactive)
REMARK       I    between atoms: C3_3  and  O3_21 
REMARK       I    between atoms: C6_6  and  C7_7 
REMARK       I    between atoms: C8_8  and  C9_9 
REMARK       I    between atoms: C10_10  and  C11_11 
REMARK       I    between atoms: C12_12  and  C13_13 
REMARK       I    between atoms: C14_14  and  C15_15 
REMARK       I    between atoms: C23_25  and  O23_43 
REMARK       I    between atoms: C26_28  and  C27_29 
REMARK       I    between atoms: C28_30  and  C29_31 
REMARK       I    between atoms: C30_32  and  C31_33 
REMARK       I    between atoms: C32_34  and  C33_35 
REMARK       I    between atoms: C34_36  and  C35_37 
ROOT
HETATM    1  C1  VFQ n1621     -48.121 145.334  12.470  1.00 48.43    -0.018 C 
HETATM    2  C2  VFQ n1621     -48.843 145.791  13.730  1.00 44.61     0.045 C 
HETATM    3  C3  VFQ n1621     -48.036 146.636  14.696  1.00 44.41     0.123 C 
HETATM    4  C4  VFQ n1621     -47.194 147.644  13.953  1.00 41.53     0.066 C 
HETATM    5  C5  VFQ n1621     -46.265 146.892  13.053  1.00 37.72    -0.074 C 
HETATM    6  C6  VFQ n1621     -46.733 145.919  12.273  1.00 43.52    -0.048 C 
HETATM    7  C7  VFQ n1621     -45.936 145.375  11.149  1.00 44.60     0.009 C 
HETATM    8  C8  VFQ n1621     -44.992 144.459  11.327  1.00 43.22     0.007 C 
HETATM    9  C9  VFQ n1621     -44.253 143.906  10.193  1.00 45.04    -0.062 C 
HETATM   10  C10 VFQ n1621     -43.513 142.841  10.471  1.00 43.71     0.007 C 
HETATM   11  C11 VFQ n1621     -42.740 142.090   9.511  1.00 42.87     0.001 C 
HETATM   12  C12 VFQ n1621     -42.211 141.009  10.046  1.00 44.70     0.007 C 
HETATM   13  C13 VFQ n1621     -41.443 140.030   9.281  1.00 42.63    -0.062 C 
HETATM   14  C14 VFQ n1621     -41.018 138.953   9.943  1.00 42.62     0.007 C 
HETATM   15  C15 VFQ n1621     -40.286 137.902   9.268  1.00 44.33     0.001 C 
HETATM   16  C16 VFQ n1621     -49.058 145.661  11.314  1.00 47.48     0.020 C 
HETATM   17  C17 VFQ n1621     -47.900 143.834  12.533  1.00 54.25     0.020 C 
HETATM   18  C18 VFQ n1621     -45.051 147.687  12.705  1.00 37.77     0.044 C 
HETATM   19  C19 VFQ n1621     -44.355 144.496   8.823  1.00 46.17     0.048 C 
HETATM   20  C20 VFQ n1621     -41.209 140.221   7.815  1.00 40.87     0.048 C 
HETATM   21  O3  VFQ n1621     -48.933 147.336  15.559  1.00 48.83    -0.395 OA
ATOM     22  H3  VFQ n1621     -48.428 147.866  16.164  1.00  0.00     0.210 HD
HETATM   23  C21 VFQ n1621     -34.360 127.051   6.809  1.00 71.39    -0.018 C 
HETATM   24  C22 VFQ n1621     -33.566 126.086   5.939  1.00 71.39     0.045 C 
HETATM   25  C23 VFQ n1621     -32.444 126.654   5.079  1.00 71.39     0.123 C 
HETATM   26  C24 VFQ n1621     -32.723 128.086   4.676  1.00 71.39     0.066 C 
HETATM   27  C25 VFQ n1621     -32.934 128.862   5.941  1.00 71.39    -0.074 C 
HETATM   28  C26 VFQ n1621     -33.792 128.452   6.873  1.00 71.39    -0.048 C 
HETATM   29  C27 VFQ n1621     -34.219 129.328   7.997  1.00 71.39     0.009 C 
HETATM   30  C28 VFQ n1621     -35.198 130.224   7.851  1.00 71.39     0.007 C 
HETATM   31  C29 VFQ n1621     -35.673 131.081   8.917  1.00 54.19    -0.062 C 
HETATM   32  C30 VFQ n1621     -36.795 131.762   8.677  1.00 54.84     0.007 C 
HETATM   33  C31 VFQ n1621     -37.419 132.660   9.626  1.00 51.40     0.001 C 
HETATM   34  C32 VFQ n1621     -37.987 133.724   9.084  1.00 48.08     0.007 C 
HETATM   35  C33 VFQ n1621     -38.662 134.739   9.892  1.00 45.58    -0.062 C 
HETATM   36  C34 VFQ n1621     -39.161 135.809   9.272  1.00 47.58     0.007 C 
HETATM   37  C35 VFQ n1621     -39.865 136.866   9.975  1.00 48.15     0.001 C 
HETATM   38  C36 VFQ n1621     -34.367 126.508   8.222  1.00 71.39     0.020 C 
HETATM   39  C37 VFQ n1621     -35.800 127.069   6.310  1.00 71.39     0.020 C 
HETATM   40  C38 VFQ n1621     -32.110 130.093   6.100  1.00 71.39     0.044 C 
HETATM   41  C39 VFQ n1621     -34.933 131.134  10.215  1.00 53.01     0.048 C 
HETATM   42  C40 VFQ n1621     -38.772 134.554  11.365  1.00 46.34     0.048 C 
HETATM   43  O23 VFQ n1621     -32.335 125.877   3.882  1.00 71.39    -0.395 OA
ATOM     44  H23 VFQ n1621     -31.635 126.231   3.345  1.00  0.00     0.210 HD
ENDROOT
TORSDOF 12
