REMARK VINA RESULT:    -9.953      1.566      1.987
REMARK INTER + INTRA:         -10.300
REMARK INTER:                  -7.534
REMARK INTRA:                  -2.765
REMARK UNBOUND:                -0.346
REMARK  0 active torsions:
REMARK  status: ('A' for Active; 'I' for Inactive)
REMARK       I    between atoms: C3_3  and  O3_21 
REMARK       I    between atoms: C6_6  and  C7_7 
REMARK       I    between atoms: C8_8  and  C9_9 
REMARK       I    between atoms: C10_10  and  C11_11 
REMARK       I    between atoms: C12_12  and  C13_13 
REMARK       I    between atoms: C14_14  and  C15_15 
REMARK       I    between atoms: C23_25  and  O23_43 
REMARK       I    between atoms: C26_28  and  C27_29 
REMARK       I    between atoms: C28_30  and  C29_31 
REMARK       I    between atoms: C30_32  and  C31_33 
REMARK       I    between atoms: C32_34  and  C33_35 
REMARK       I    between atoms: C34_36  and  C35_37 
ROOT
HETATM    1  C1  VFQ D3620     -34.605 127.032   6.118  1.00 21.49    -0.018 C 
HETATM    2  C2  VFQ D3620     -34.117 126.379   4.806  1.00 21.50     0.045 C 
HETATM    3  C3  VFQ D3620     -32.869 126.929   4.107  1.00 22.37     0.123 C 
HETATM    4  C4  VFQ D3620     -31.984 127.836   4.966  1.00 21.17     0.066 C 
HETATM    5  C5  VFQ D3620     -32.588 128.592   6.103  1.00 19.70    -0.074 C 
HETATM    6  C6  VFQ D3620     -33.805 128.248   6.662  1.00 20.41    -0.048 C 
HETATM    7  C7  VFQ D3620     -34.396 129.000   7.787  1.00 19.41     0.009 C 
HETATM    8  C8  VFQ D3620     -35.038 130.176   7.740  1.00 18.90     0.007 C 
HETATM    9  C9  VFQ D3620     -35.495 130.984   8.874  1.00 20.60    -0.062 C 
HETATM   10  C10 VFQ D3620     -36.220 132.089   8.600  1.00 18.78     0.007 C 
HETATM   11  C11 VFQ D3620     -36.775 133.008   9.546  1.00 19.97     0.001 C 
HETATM   12  C12 VFQ D3620     -37.621 133.960   9.118  1.00 23.02     0.007 C 
HETATM   13  C13 VFQ D3620     -38.331 134.975   9.899  1.00 23.57    -0.062 C 
HETATM   14  C14 VFQ D3620     -39.217 135.756   9.244  1.00 23.43     0.007 C 
HETATM   15  C15 VFQ D3620     -40.083 136.755   9.798  1.00 24.57     0.001 C 
HETATM   16  C16 VFQ D3620     -34.539 125.872   7.131  1.00 19.84     0.020 C 
HETATM   17  C17 VFQ D3620     -36.094 127.416   5.917  1.00 19.63     0.020 C 
HETATM   18  C18 VFQ D3620     -31.651 129.692   6.456  1.00 19.29     0.044 C 
HETATM   19  C19 VFQ D3620     -35.171 130.505  10.272  1.00 18.57     0.048 C 
HETATM   20  C20 VFQ D3620     -38.079 135.027  11.374  1.00 22.43     0.048 C 
HETATM   21  O3  VFQ D3620     -32.098 125.868   3.568  1.00 22.38    -0.395 OA
ATOM     22  H3  VFQ D3620     -31.324 126.209   3.135  1.00  0.00     0.210 HD
HETATM   23  C21 VFQ D3620     -49.515 144.476  12.895  1.00 26.49    -0.018 C 
HETATM   24  C22 VFQ D3620     -50.199 145.472  13.828  1.00 26.49     0.045 C 
HETATM   25  C23 VFQ D3620     -49.608 146.871  13.903  1.00 26.49     0.123 C 
HETATM   26  C24 VFQ D3620     -48.096 146.798  13.889  1.00 26.49     0.066 C 
HETATM   27  C25 VFQ D3620     -47.694 146.145  12.599  1.00 26.49    -0.074 C 
HETATM   28  C26 VFQ D3620     -48.287 145.018  12.180  1.00 26.49    -0.048 C 
HETATM   29  C27 VFQ D3620     -47.745 144.313  10.983  1.00 26.49     0.009 C 
HETATM   30  C28 VFQ D3620     -46.817 143.360  11.082  1.00 26.49     0.007 C 
HETATM   31  C29 VFQ D3620     -46.207 142.612   9.945  1.00 31.15    -0.062 C 
HETATM   32  C30 VFQ D3620     -45.267 141.686  10.231  1.00 29.00     0.007 C 
HETATM   33  C31 VFQ D3620     -44.565 140.865   9.292  1.00 26.88     0.001 C 
HETATM   34  C32 VFQ D3620     -43.618 140.015   9.700  1.00 27.02     0.007 C 
HETATM   35  C33 VFQ D3620     -42.777 139.115   8.903  1.00 27.13    -0.062 C 
HETATM   36  C34 VFQ D3620     -41.865 138.365   9.562  1.00 25.88     0.007 C 
HETATM   37  C35 VFQ D3620     -40.940 137.416   9.012  1.00 25.96     0.001 C 
HETATM   38  C36 VFQ D3620     -50.525 144.088  11.832  1.00 26.49     0.020 C 
HETATM   39  C37 VFQ D3620     -49.178 143.240  13.719  1.00 26.49     0.020 C 
HETATM   40  C38 VFQ D3620     -46.629 146.835  11.800  1.00 26.49     0.044 C 
HETATM   41  C39 VFQ D3620     -46.656 142.941   8.550  1.00 30.08     0.048 C 
HETATM   42  C40 VFQ D3620     -42.979 139.097   7.416  1.00 24.80     0.048 C 
HETATM   43  O23 VFQ D3620     -50.054 147.505  15.105  1.00 26.49    -0.395 OA
ATOM     44  H23 VFQ D3620     -49.685 148.379  15.152  1.00  0.00     0.210 HD
ENDROOT
TORSDOF 12
