REMARK VINA RESULT:   -11.763      1.456      1.938
REMARK INTER + INTRA:         -11.934
REMARK INTER:                  -9.336
REMARK INTRA:                  -2.598
REMARK UNBOUND:                -0.171
REMARK  0 active torsions:
REMARK  status: ('A' for Active; 'I' for Inactive)
REMARK       I    between atoms: C3_3  and  O3_21 
REMARK       I    between atoms: C6_6  and  C7_7 
REMARK       I    between atoms: C8_8  and  C9_9 
REMARK       I    between atoms: C10_10  and  C11_11 
REMARK       I    between atoms: C12_12  and  C13_13 
REMARK       I    between atoms: C14_14  and  C15_15 
REMARK       I    between atoms: C23_25  and  O23_43 
REMARK       I    between atoms: C26_28  and  C27_29 
REMARK       I    between atoms: C28_30  and  C29_31 
REMARK       I    between atoms: C30_32  and  C31_33 
REMARK       I    between atoms: C32_34  and  C33_35 
REMARK       I    between atoms: C34_36  and  C35_37 
ROOT
HETATM    1  C1  VFQ X1621     -34.438 127.004   6.427  1.00 31.86    -0.018 C 
HETATM    2  C2  VFQ X1621     -34.236 126.701   4.939  1.00 31.86     0.045 C 
HETATM    3  C3  VFQ X1621     -33.030 127.343   4.262  1.00 31.86     0.123 C 
HETATM    4  C4  VFQ X1621     -31.990 127.801   5.274  1.00 31.86     0.066 C 
HETATM    5  C5  VFQ X1621     -32.696 128.714   6.231  1.00 31.86    -0.074 C 
HETATM    6  C6  VFQ X1621     -33.722 128.238   6.933  1.00 31.86    -0.048 C 
HETATM    7  C7  VFQ X1621     -34.313 128.968   8.075  1.00 31.86     0.009 C 
HETATM    8  C8  VFQ X1621     -34.312 130.304   8.065  1.00 31.86     0.007 C 
HETATM    9  C9  VFQ X1621     -35.112 131.017   9.087  1.00 31.86    -0.062 C 
HETATM   10  C10 VFQ X1621     -35.531 132.260   8.771  1.00 31.86     0.007 C 
HETATM   11  C11 VFQ X1621     -36.463 133.026   9.597  1.00 31.86     0.001 C 
HETATM   12  C12 VFQ X1621     -37.036 134.115   9.090  1.00 31.86     0.007 C 
HETATM   13  C13 VFQ X1621     -38.054 134.877   9.849  1.00 31.86    -0.062 C 
HETATM   14  C14 VFQ X1621     -38.685 135.878   9.202  1.00 31.86     0.007 C 
HETATM   15  C15 VFQ X1621     -39.732 136.710   9.798  1.00 31.86     0.001 C 
HETATM   16  C16 VFQ X1621     -33.872 125.850   7.252  1.00 31.86     0.020 C 
HETATM   17  C17 VFQ X1621     -35.933 127.087   6.691  1.00 31.86     0.020 C 
HETATM   18  C18 VFQ X1621     -31.588 129.504   6.871  1.00 31.86     0.044 C 
HETATM   19  C19 VFQ X1621     -35.501 130.314  10.366  1.00 31.86     0.048 C 
HETATM   20  C20 VFQ X1621     -38.351 134.478  11.273  1.00 31.86     0.048 C 
HETATM   21  O3  VFQ X1621     -32.472 126.346   3.409  1.00 31.86    -0.395 OA
ATOM     22  H3  VFQ X1621     -33.121 126.060   2.777  1.00  0.00     0.210 HD
HETATM   23  C21 VFQ X1621     -48.619 145.770  11.772  1.00 90.34    -0.018 C 
HETATM   24  C22 VFQ X1621     -49.440 146.600  12.753  1.00 90.34     0.045 C 
HETATM   25  C23 VFQ X1621     -48.697 147.332  13.860  1.00 90.34     0.123 C 
HETATM   26  C24 VFQ X1621     -47.467 146.566  14.303  1.00 90.34     0.066 C 
HETATM   27  C25 VFQ X1621     -46.610 146.341  13.093  1.00 90.34    -0.074 C 
HETATM   28  C26 VFQ X1621     -47.121 145.802  11.988  1.00 90.34    -0.048 C 
HETATM   29  C27 VFQ X1621     -46.255 145.234  10.925  1.00 90.34     0.009 C 
HETATM   30  C28 VFQ X1621     -45.734 144.011  11.044  1.00 90.34     0.007 C 
HETATM   31  C29 VFQ X1621     -44.895 143.377  10.024  1.00 31.86    -0.062 C 
HETATM   32  C30 VFQ X1621     -44.384 142.162  10.316  1.00 31.86     0.007 C 
HETATM   33  C31 VFQ X1621     -43.487 141.416   9.435  1.00 31.86     0.001 C 
HETATM   34  C32 VFQ X1621     -42.931 140.291   9.883  1.00 31.86     0.007 C 
HETATM   35  C33 VFQ X1621     -41.955 139.530   9.076  1.00 31.86    -0.062 C 
HETATM   36  C34 VFQ X1621     -41.339 138.497   9.687  1.00 31.86     0.007 C 
HETATM   37  C35 VFQ X1621     -40.305 137.663   9.071  1.00 31.86     0.001 C 
HETATM   38  C36 VFQ X1621     -48.862 146.315  10.378  1.00 90.34     0.020 C 
HETATM   39  C37 VFQ X1621     -49.156 144.346  11.850  1.00 90.34     0.020 C 
HETATM   40  C38 VFQ X1621     -45.179 146.770  13.174  1.00 90.34     0.044 C 
HETATM   41  C39 VFQ X1621     -44.662 144.110   8.727  1.00 31.86     0.048 C 
HETATM   42  C40 VFQ X1621     -41.663 139.968   7.665  1.00 31.86     0.048 C 
HETATM   43  O23 VFQ X1621     -49.576 147.456  14.976  1.00 90.34    -0.395 OA
ATOM     44  H23 VFQ X1621     -50.348 147.935  14.698  1.00  0.00     0.210 HD
ENDROOT
TORSDOF 12
