REMARK VINA RESULT:   -10.390      0.000      0.000
REMARK INTER + INTRA:         -10.678
REMARK INTER:                 -10.390
REMARK INTRA:                  -0.288
REMARK UNBOUND:                -0.288
REMARK  0 active torsions:
REMARK  status: ('A' for Active; 'I' for Inactive)
REMARK       I    between atoms: C3_3  and  O3_21 
REMARK       I    between atoms: C6_6  and  C7_7 
REMARK       I    between atoms: C8_8  and  C9_9 
REMARK       I    between atoms: C10_10  and  C11_11 
REMARK       I    between atoms: C12_12  and  C13_13 
REMARK       I    between atoms: C14_14  and  C15_15 
REMARK       I    between atoms: C23_25  and  O23_43 
REMARK       I    between atoms: C26_28  and  C27_29 
REMARK       I    between atoms: C28_30  and  C29_31 
REMARK       I    between atoms: C30_32  and  C31_33 
REMARK       I    between atoms: C32_34  and  C33_35 
REMARK       I    between atoms: C34_36  and  C35_37 
ROOT
HETATM    1  C1  VFQ N1620     -50.006 144.403  12.179  1.00 57.79    -0.018 C 
HETATM    2  C2  VFQ N1620     -50.953 145.023  13.192  1.00 59.26     0.045 C 
HETATM    3  C3  VFQ N1620     -50.247 145.602  14.397  1.00 62.25     0.123 C 
HETATM    4  C4  VFQ N1620     -49.306 146.687  13.938  1.00 57.83     0.066 C 
HETATM    5  C5  VFQ N1620     -48.378 146.191  12.865  1.00 54.66    -0.074 C 
HETATM    6  C6  VFQ N1620     -48.686 145.158  12.050  1.00 55.29    -0.048 C 
HETATM    7  C7  VFQ N1620     -47.755 144.762  10.960  1.00 55.61     0.009 C 
HETATM    8  C8  VFQ N1620     -46.728 143.932  11.151  1.00 56.19     0.007 C 
HETATM    9  C9  VFQ N1620     -45.814 143.536  10.083  1.00 61.49    -0.062 C 
HETATM   10  C10 VFQ N1620     -44.892 142.642  10.429  1.00 57.47     0.007 C 
HETATM   11  C11 VFQ N1620     -43.894 142.098   9.535  1.00 53.29     0.001 C 
HETATM   12  C12 VFQ N1620     -43.171 141.141  10.084  1.00 52.45     0.007 C 
HETATM   13  C13 VFQ N1620     -42.131 140.434   9.342  1.00 52.04    -0.062 C 
HETATM   14  C14 VFQ N1620     -41.647 139.329   9.906  1.00 54.29     0.007 C 
HETATM   15  C15 VFQ N1620     -40.642 138.500   9.274  1.00 53.12     0.001 C 
HETATM   16  C16 VFQ N1620     -50.798 144.316  10.879  1.00 58.39     0.020 C 
HETATM   17  C17 VFQ N1620     -49.674 142.987  12.624  1.00 64.45     0.020 C 
HETATM   18  C18 VFQ N1620     -47.104 146.980  12.774  1.00 58.11     0.044 C 
HETATM   19  C19 VFQ N1620     -45.908 144.126   8.706  1.00 70.55     0.048 C 
HETATM   20  C20 VFQ N1620     -41.667 140.930   8.010  1.00 53.04     0.048 C 
HETATM   21  O3  VFQ N1620     -51.204 146.187  15.282  1.00 65.91    -0.395 OA
ATOM     22  H3  VFQ N1620     -50.761 146.551  16.040  1.00  0.00     0.210 HD
HETATM   23  C21 VFQ N1620     -34.025 128.110   7.071  1.00 48.43    -0.018 C 
HETATM   24  C22 VFQ N1620     -33.172 127.261   6.140  1.00 44.61     0.045 C 
HETATM   25  C23 VFQ N1620     -31.744 127.727   5.925  1.00 44.41     0.123 C 
HETATM   26  C24 VFQ N1620     -31.687 129.227   5.774  1.00 41.53     0.066 C 
HETATM   27  C25 VFQ N1620     -32.229 129.837   7.028  1.00 37.72    -0.074 C 
HETATM   28  C26 VFQ N1620     -33.379 129.402   7.539  1.00 43.52    -0.048 C 
HETATM   29  C27 VFQ N1620     -34.078 130.141   8.618  1.00 44.60     0.009 C 
HETATM   30  C28 VFQ N1620     -34.853 131.189   8.370  1.00 43.22     0.007 C 
HETATM   31  C29 VFQ N1620     -35.573 131.880   9.448  1.00 71.47    -0.062 C 
HETATM   32  C30 VFQ N1620     -36.463 132.784   9.045  1.00 69.97     0.007 C 
HETATM   33  C31 VFQ N1620     -37.310 133.569   9.921  1.00 65.68     0.001 C 
HETATM   34  C32 VFQ N1620     -37.989 134.514   9.298  1.00 62.75     0.007 C 
HETATM   35  C33 VFQ N1620     -38.928 135.400   9.989  1.00 61.08    -0.062 C 
HETATM   36  C34 VFQ N1620     -39.403 136.442   9.305  1.00 59.90     0.007 C 
HETATM   37  C35 VFQ N1620     -40.370 137.356   9.882  1.00 55.64     0.001 C 
HETATM   38  C36 VFQ N1620     -34.303 127.335   8.345  1.00 47.48     0.020 C 
HETATM   39  C37 VFQ N1620     -35.335 128.351   6.327  1.00 54.25     0.020 C 
HETATM   40  C38 VFQ N1620     -31.424 130.921   7.666  1.00 37.77     0.044 C 
HETATM   41  C39 VFQ N1620     -35.327 131.583  10.894  1.00 74.91     0.048 C 
HETATM   42  C40 VFQ N1620     -39.348 135.112  11.397  1.00 55.73     0.048 C 
HETATM   43  O23 VFQ N1620     -31.234 127.126   4.734  1.00 48.83    -0.395 OA
ATOM     44  H23 VFQ N1620     -31.271 126.182   4.829  1.00  0.00     0.210 HD
ENDROOT
TORSDOF 12
