REMARK VINA RESULT:    -8.471      1.556      1.911
REMARK INTER + INTRA:         -11.563
REMARK INTER:                 -10.943
REMARK INTRA:                  -0.621
REMARK UNBOUND:                -3.092
REMARK  0 active torsions:
REMARK  status: ('A' for Active; 'I' for Inactive)
REMARK       I    between atoms: C3_3  and  O3_21 
REMARK       I    between atoms: C6_6  and  C7_7 
REMARK       I    between atoms: C8_8  and  C9_9 
REMARK       I    between atoms: C10_10  and  C11_11 
REMARK       I    between atoms: C12_12  and  C13_13 
REMARK       I    between atoms: C14_14  and  C15_15 
REMARK       I    between atoms: C23_25  and  O23_43 
REMARK       I    between atoms: C26_28  and  C27_29 
REMARK       I    between atoms: C28_30  and  C29_31 
REMARK       I    between atoms: C30_32  and  C31_33 
REMARK       I    between atoms: C32_34  and  C33_35 
REMARK       I    between atoms: C34_36  and  C35_37 
ROOT
HETATM    1  C1  VFQ 3 621     -50.364 145.364  10.498  1.00 19.54    -0.018 C 
HETATM    2  C2  VFQ 3 621     -51.253 146.075  11.516  1.00 19.54     0.045 C 
HETATM    3  C3  VFQ 3 621     -50.601 146.976  12.546  1.00 19.54     0.123 C 
HETATM    4  C4  VFQ 3 621     -49.568 147.848  11.876  1.00 19.54     0.066 C 
HETATM    5  C5  VFQ 3 621     -48.594 147.018  11.079  1.00 19.54    -0.074 C 
HETATM    6  C6  VFQ 3 621     -48.971 145.950  10.356  1.00 19.54    -0.048 C 
HETATM    7  C7  VFQ 3 621     -48.044 145.341   9.355  1.00 19.54     0.009 C 
HETATM    8  C8  VFQ 3 621     -47.118 144.422   9.660  1.00 19.54     0.007 C 
HETATM    9  C9  VFQ 3 621     -46.202 143.812   8.676  1.00 19.54    -0.062 C 
HETATM   10  C10 VFQ 3 621     -45.340 142.891   9.134  1.00 19.54     0.007 C 
HETATM   11  C11 VFQ 3 621     -44.357 142.171   8.329  1.00 19.54     0.001 C 
HETATM   12  C12 VFQ 3 621     -43.554 141.362   9.012  1.00 19.54     0.007 C 
HETATM   13  C13 VFQ 3 621     -42.508 140.522   8.404  1.00 19.54    -0.062 C 
HETATM   14  C14 VFQ 3 621     -42.080 139.471   9.118  1.00 19.54     0.007 C 
HETATM   15  C15 VFQ 3 621     -41.071 138.535   8.640  1.00 19.54     0.001 C 
HETATM   16  C16 VFQ 3 621     -51.139 145.387   9.186  1.00 19.54     0.020 C 
HETATM   17  C17 VFQ 3 621     -50.185 143.915  10.927  1.00 19.54     0.020 C 
HETATM   18  C18 VFQ 3 621     -47.335 147.768  10.776  1.00 19.54     0.044 C 
HETATM   19  C19 VFQ 3 621     -46.223 144.220   7.234  1.00 19.54     0.048 C 
HETATM   20  C20 VFQ 3 621     -41.944 140.829   7.049  1.00 19.54     0.048 C 
HETATM   21  O3  VFQ 3 621     -51.603 147.824  13.110  1.00 19.54    -0.395 OA
ATOM     22  H3  VFQ 3 621     -51.195 148.389  13.756  1.00  0.00     0.210 HD
HETATM   23  C21 VFQ 3 621     -34.141 128.367   6.919  1.00 98.50    -0.018 C 
HETATM   24  C22 VFQ 3 621     -33.376 127.871   5.709  1.00 95.05     0.045 C 
HETATM   25  C23 VFQ 3 621     -31.894 127.764   5.986  1.00 91.19     0.123 C 
HETATM   26  C24 VFQ 3 621     -31.322 129.111   6.378  1.00 95.39     0.066 C 
HETATM   27  C25 VFQ 3 621     -32.253 129.978   7.183  1.00 94.24    -0.074 C 
HETATM   28  C26 VFQ 3 621     -33.499 129.600   7.546  1.00 98.17    -0.048 C 
HETATM   29  C27 VFQ 3 621     -34.276 130.327   8.593  1.00 96.30     0.009 C 
HETATM   30  C28 VFQ 3 621     -35.014 131.412   8.336  1.00 99.74     0.007 C 
HETATM   31  C29 VFQ 3 621     -35.805 132.127   9.328  1.00 19.54    -0.062 C 
HETATM   32  C30 VFQ 3 621     -36.836 132.855   8.897  1.00 19.54     0.007 C 
HETATM   33  C31 VFQ 3 621     -37.724 133.621   9.761  1.00 19.54     0.001 C 
HETATM   34  C32 VFQ 3 621     -38.398 134.576   9.137  1.00 19.54     0.007 C 
HETATM   35  C33 VFQ 3 621     -39.371 135.495   9.741  1.00 19.54    -0.062 C 
HETATM   36  C34 VFQ 3 621     -39.803 136.500   8.965  1.00 19.54     0.007 C 
HETATM   37  C35 VFQ 3 621     -40.782 137.484   9.405  1.00 19.54     0.001 C 
HETATM   38  C36 VFQ 3 621     -34.168 127.299   7.994  1.00 90.00     0.020 C 
HETATM   39  C37 VFQ 3 621     -35.572 128.557   6.436  1.00 93.85     0.020 C 
HETATM   40  C38 VFQ 3 621     -31.664 131.312   7.513  1.00 91.76     0.044 C 
HETATM   41  C39 VFQ 3 621     -35.476 132.047  10.781  1.00 19.54     0.048 C 
HETATM   42  C40 VFQ 3 621     -39.849 135.307  11.147  1.00 19.54     0.048 C 
HETATM   43  O23 VFQ 3 621     -31.231 127.335   4.797  1.00 92.07    -0.395 OA
ATOM     44  H23 VFQ 3 621     -30.300 127.267   4.972  1.00  0.00     0.210 HD
ENDROOT
TORSDOF 12
