REMARK VINA RESULT:    -9.196      1.784     16.675
REMARK INTER + INTRA:          -9.498
REMARK INTER:                  -6.298
REMARK INTRA:                  -3.200
REMARK UNBOUND:                -0.302
REMARK  0 active torsions:
REMARK  status: ('A' for Active; 'I' for Inactive)
REMARK       I    between atoms: C3_3  and  O3_21 
REMARK       I    between atoms: C6_6  and  C7_7 
REMARK       I    between atoms: C8_8  and  C9_9 
REMARK       I    between atoms: C10_10  and  C11_11 
REMARK       I    between atoms: C12_12  and  C13_13 
REMARK       I    between atoms: C14_14  and  C15_15 
REMARK       I    between atoms: C23_25  and  O23_43 
REMARK       I    between atoms: C26_28  and  C27_29 
REMARK       I    between atoms: C28_30  and  C29_31 
REMARK       I    between atoms: C30_32  and  C31_33 
REMARK       I    between atoms: C32_34  and  C33_35 
REMARK       I    between atoms: C34_36  and  C35_37 
ROOT
HETATM    1  C1  VFQ g1620     -49.246 145.320  12.618  1.00 66.61    -0.018 C 
HETATM    2  C2  VFQ g1620     -49.966 145.531  13.945  1.00 66.61     0.045 C 
HETATM    3  C3  VFQ g1620     -49.260 146.337  15.025  1.00 66.61     0.123 C 
HETATM    4  C4  VFQ g1620     -48.379 147.413  14.429  1.00 66.61     0.066 C 
HETATM    5  C5  VFQ g1620     -47.418 146.784  13.461  1.00 66.61    -0.074 C 
HETATM    6  C6  VFQ g1620     -47.835 145.877  12.572  1.00 66.61    -0.048 C 
HETATM    7  C7  VFQ g1620     -46.926 145.401  11.499  1.00 66.61     0.009 C 
HETATM    8  C8  VFQ g1620     -46.090 144.378  11.693  1.00 66.61     0.007 C 
HETATM    9  C9  VFQ g1620     -45.190 143.881  10.644  1.00 66.61    -0.062 C 
HETATM   10  C10 VFQ g1620     -44.338 142.908  10.978  1.00 66.61     0.007 C 
HETATM   11  C11 VFQ g1620     -43.403 142.313  10.038  1.00 66.61     0.001 C 
HETATM   12  C12 VFQ g1620     -42.786 141.222  10.469  1.00 66.61     0.007 C 
HETATM   13  C13 VFQ g1620     -41.820 140.468   9.660  1.00 66.61    -0.062 C 
HETATM   14  C14 VFQ g1620     -41.363 139.316  10.159  1.00 66.61     0.007 C 
HETATM   15  C15 VFQ g1620     -40.424 138.474   9.436  1.00 66.61     0.001 C 
HETATM   16  C16 VFQ g1620     -50.112 145.939  11.526  1.00 66.61     0.020 C 
HETATM   17  C17 VFQ g1620     -49.166 143.822  12.376  1.00 66.61     0.020 C 
HETATM   18  C18 VFQ g1620     -46.101 147.491  13.338  1.00 66.61     0.044 C 
HETATM   19  C19 VFQ g1620     -45.243 144.442   9.255  1.00 66.61     0.048 C 
HETATM   20  C20 VFQ g1620     -41.372 140.972   8.321  1.00 66.61     0.048 C 
HETATM   21  O3  VFQ g1620     -50.253 146.963  15.843  1.00 66.61    -0.395 OA
ATOM     22  H3  VFQ g1620     -50.806 146.287  16.217  1.00  0.00     0.210 HD
HETATM   23  C21 VFQ g1620     -34.582 128.083   6.156  1.00 70.34    -0.018 C 
HETATM   24  C22 VFQ g1620     -33.792 126.976   5.490  1.00 70.34     0.045 C 
HETATM   25  C23 VFQ g1620     -32.353 127.298   5.122  1.00 70.34     0.123 C 
HETATM   26  C24 VFQ g1620     -31.614 128.031   6.226  1.00 70.34     0.066 C 
HETATM   27  C25 VFQ g1620     -32.439 128.893   7.137  1.00 70.34    -0.074 C 
HETATM   28  C26 VFQ g1620     -33.773 128.865   7.167  1.00 70.34    -0.048 C 
HETATM   29  C27 VFQ g1620     -34.520 129.573   8.234  1.00 70.34     0.009 C 
HETATM   30  C28 VFQ g1620     -34.989 130.807   8.085  1.00 70.34     0.007 C 
HETATM   31  C29 VFQ g1620     -35.748 131.485   9.141  1.00 66.61    -0.062 C 
HETATM   32  C30 VFQ g1620     -36.486 132.533   8.767  1.00 66.61     0.007 C 
HETATM   33  C31 VFQ g1620     -37.320 133.317   9.668  1.00 66.61     0.001 C 
HETATM   34  C32 VFQ g1620     -37.885 134.391   9.135  1.00 66.61     0.007 C 
HETATM   35  C33 VFQ g1620     -38.774 135.282   9.889  1.00 66.61    -0.062 C 
HETATM   36  C34 VFQ g1620     -39.245 136.370   9.270  1.00 66.61     0.007 C 
HETATM   37  C35 VFQ g1620     -40.153 137.281   9.950  1.00 66.61     0.001 C 
HETATM   38  C36 VFQ g1620     -35.726 127.408   6.900  1.00 70.34     0.020 C 
HETATM   39  C37 VFQ g1620     -35.153 128.995   5.079  1.00 70.34     0.020 C 
HETATM   40  C38 VFQ g1620     -31.640 129.788   8.040  1.00 70.34     0.044 C 
HETATM   41  C39 VFQ g1620     -35.698 131.014  10.564  1.00 66.61     0.048 C 
HETATM   42  C40 VFQ g1620     -39.148 134.956  11.304  1.00 66.61     0.048 C 
HETATM   43  O23 VFQ g1620     -32.278 128.039   3.903  1.00 70.34    -0.395 OA
ATOM     44  H23 VFQ g1620     -31.379 128.240   3.673  1.00  0.00     0.210 HD
ENDROOT
TORSDOF 12
