REMARK VINA RESULT:   -10.007      0.000      0.000
REMARK INTER + INTRA:         -11.653
REMARK INTER:                 -10.007
REMARK INTRA:                  -1.645
REMARK UNBOUND:                -1.645
REMARK  0 active torsions:
REMARK  status: ('A' for Active; 'I' for Inactive)
REMARK       I    between atoms: C3_3  and  O3_21 
REMARK       I    between atoms: C6_6  and  C7_7 
REMARK       I    between atoms: C8_8  and  C9_9 
REMARK       I    between atoms: C10_10  and  C11_11 
REMARK       I    between atoms: C12_12  and  C13_13 
REMARK       I    between atoms: C14_14  and  C15_15 
REMARK       I    between atoms: C23_25  and  O23_43 
REMARK       I    between atoms: C26_28  and  C27_29 
REMARK       I    between atoms: C28_30  and  C29_31 
REMARK       I    between atoms: C30_32  and  C31_33 
REMARK       I    between atoms: C32_34  and  C33_35 
REMARK       I    between atoms: C34_36  and  C35_37 
ROOT
HETATM    1  C1  VFQ 6 321     -49.142 146.127   9.548  1.00 93.31    -0.018 C 
HETATM    2  C2  VFQ 6 321     -49.866 147.174  10.396  1.00 93.93     0.045 C 
HETATM    3  C3  VFQ 6 321     -48.982 148.021  11.301  1.00 93.98     0.123 C 
HETATM    4  C4  VFQ 6 321     -47.806 148.562  10.509  1.00 93.16     0.066 C 
HETATM    5  C5  VFQ 6 321     -47.026 147.416   9.924  1.00 92.19    -0.074 C 
HETATM    6  C6  VFQ 6 321     -47.642 146.335   9.433  1.00 91.50    -0.048 C 
HETATM    7  C7  VFQ 6 321     -46.845 145.299   8.734  1.00 98.60     0.009 C 
HETATM    8  C8  VFQ 6 321     -46.190 144.343   9.397  1.00 95.09     0.007 C 
HETATM    9  C9  VFQ 6 321     -45.401 143.321   8.678  1.00 91.76    -0.062 C 
HETATM   10  C10 VFQ 6 321     -44.605 142.499   9.374  1.00 98.95     0.007 C 
HETATM   11  C11 VFQ 6 321     -43.803 141.467   8.717  1.00 96.41     0.001 C 
HETATM   12  C12 VFQ 6 321     -43.026 140.687   9.463  1.00 94.60     0.007 C 
HETATM   13  C13 VFQ 6 321     -42.199 139.629   8.854  1.00 93.62    -0.062 C 
HETATM   14  C14 VFQ 6 321     -41.453 138.831   9.635  1.00 93.18     0.007 C 
HETATM   15  C15 VFQ 6 321     -40.635 137.778   9.038  1.00 93.10     0.001 C 
HETATM   16  C16 VFQ 6 321     -49.752 146.131   8.152  1.00 93.81     0.020 C 
HETATM   17  C17 VFQ 6 321     -49.364 144.759  10.184  1.00 92.50     0.020 C 
HETATM   18  C18 VFQ 6 321     -45.568 147.656   9.658  1.00 91.81     0.044 C 
HETATM   19  C19 VFQ 6 321     -45.491 143.205   7.185  1.00 91.57     0.048 C 
HETATM   20  C20 VFQ 6 321     -42.198 139.445   7.366  1.00 93.41     0.048 C 
HETATM   21  O3  VFQ 6 321     -49.745 149.119  11.818  1.00 94.06    -0.395 OA
ATOM     22  H3  VFQ 6 321     -49.193 149.648  12.383  1.00  0.00     0.210 HD
HETATM   23  C21 VFQ 6 321     -34.250 127.110   6.943  1.00 57.46    -0.018 C 
HETATM   24  C22 VFQ 6 321     -33.351 126.096   6.251  1.00 54.62     0.045 C 
HETATM   25  C23 VFQ 6 321     -32.295 126.611   5.272  1.00 54.91     0.123 C 
HETATM   26  C24 VFQ 6 321     -32.038 128.111   5.299  1.00 56.99     0.066 C 
HETATM   27  C25 VFQ 6 321     -32.377 128.706   6.636  1.00 60.65    -0.074 C 
HETATM   28  C26 VFQ 6 321     -33.512 128.390   7.263  1.00 60.28    -0.048 C 
HETATM   29  C27 VFQ 6 321     -34.078 129.253   8.322  1.00 57.11     0.009 C 
HETATM   30  C28 VFQ 6 321     -34.786 130.338   8.036  1.00 53.31     0.007 C 
HETATM   31  C29 VFQ 6 321     -35.383 131.178   9.102  1.00 92.38    -0.062 C 
HETATM   32  C30 VFQ 6 321     -36.107 132.236   8.705  1.00 92.82     0.007 C 
HETATM   33  C31 VFQ 6 321     -36.768 133.165   9.619  1.00 93.26     0.001 C 
HETATM   34  C32 VFQ 6 321     -37.514 134.111   9.055  1.00 94.43     0.007 C 
HETATM   35  C33 VFQ 6 321     -38.261 135.130   9.819  1.00 94.12    -0.062 C 
HETATM   36  C34 VFQ 6 321     -39.069 135.959   9.139  1.00 93.68     0.007 C 
HETATM   37  C35 VFQ 6 321     -39.859 136.999   9.791  1.00 93.36     0.001 C 
HETATM   38  C36 VFQ 6 321     -34.713 126.501   8.255  1.00 59.48     0.020 C 
HETATM   39  C37 VFQ 6 321     -35.500 127.376   6.104  1.00 57.14     0.020 C 
HETATM   40  C38 VFQ 6 321     -31.396 129.656   7.249  1.00 65.36     0.044 C 
HETATM   41  C39 VFQ 6 321     -35.189 130.866  10.557  1.00 91.58     0.048 C 
HETATM   42  C40 VFQ 6 321     -38.119 135.231  11.309  1.00 93.59     0.048 C 
HETATM   43  O23 VFQ 6 321     -32.724 126.251   3.958  1.00 51.54    -0.395 OA
ATOM     44  H23 VFQ 6 321     -32.069 126.571   3.350  1.00  0.00     0.210 HD
ENDROOT
TORSDOF 12
