REMARK VINA RESULT:    -9.184      0.000      0.000
REMARK INTER + INTRA:         -12.141
REMARK INTER:                  -9.184
REMARK INTRA:                  -2.957
REMARK UNBOUND:                -2.957
REMARK  0 active torsions:
REMARK  status: ('A' for Active; 'I' for Inactive)
REMARK       I    between atoms: C3_3  and  O3_21 
REMARK       I    between atoms: C6_6  and  C7_7 
REMARK       I    between atoms: C8_8  and  C9_9 
REMARK       I    between atoms: C10_10  and  C11_11 
REMARK       I    between atoms: C12_12  and  C13_13 
REMARK       I    between atoms: C14_14  and  C15_15 
REMARK       I    between atoms: C23_25  and  O23_43 
REMARK       I    between atoms: C26_28  and  C27_29 
REMARK       I    between atoms: C28_30  and  C29_31 
REMARK       I    between atoms: C30_32  and  C31_33 
REMARK       I    between atoms: C32_34  and  C33_35 
REMARK       I    between atoms: C34_36  and  C35_37 
ROOT
HETATM    1  C1  VFQ 11620     -34.426 127.786   6.519  1.00 94.67    -0.018 C 
HETATM    2  C2  VFQ 11620     -33.754 127.414   5.204  1.00 94.67     0.045 C 
HETATM    3  C3  VFQ 11620     -32.448 128.113   4.890  1.00 94.67     0.123 C 
HETATM    4  C4  VFQ 11620     -31.594 128.132   6.128  1.00 94.67     0.066 C 
HETATM    5  C5  VFQ 11620     -32.302 128.871   7.219  1.00 94.67    -0.074 C 
HETATM    6  C6  VFQ 11620     -33.612 128.704   7.411  1.00 94.67    -0.048 C 
HETATM    7  C7  VFQ 11620     -34.314 129.403   8.515  1.00 94.67     0.009 C 
HETATM    8  C8  VFQ 11620     -34.827 130.619   8.345  1.00 94.67     0.007 C 
HETATM    9  C9  VFQ 11620     -35.544 131.338   9.397  1.00 94.67    -0.062 C 
HETATM   10  C10 VFQ 11620     -36.054 132.514   9.047  1.00 94.67     0.007 C 
HETATM   11  C11 VFQ 11620     -36.821 133.370   9.931  1.00 94.67     0.001 C 
HETATM   12  C12 VFQ 11620     -37.513 134.286   9.273  1.00 94.67     0.007 C 
HETATM   13  C13 VFQ 11620     -38.394 135.263   9.909  1.00 94.67    -0.062 C 
HETATM   14  C14 VFQ 11620     -39.092 136.046   9.090  1.00 94.67     0.007 C 
HETATM   15  C15 VFQ 11620     -40.042 137.048   9.545  1.00 94.67     0.001 C 
HETATM   16  C16 VFQ 11620     -34.735 126.467   7.219  1.00 94.67     0.020 C 
HETATM   17  C17 VFQ 11620     -35.719 128.516   6.185  1.00 94.67     0.020 C 
HETATM   18  C18 VFQ 11620     -31.452 129.742   8.096  1.00 94.67     0.044 C 
HETATM   19  C19 VFQ 11620     -35.693 130.773  10.776  1.00 94.67     0.048 C 
HETATM   20  C20 VFQ 11620     -38.514 135.350  11.397  1.00 94.67     0.048 C 
HETATM   21  O3  VFQ 11620     -31.760 127.366   3.886  1.00 94.67    -0.395 OA
ATOM     22  H3  VFQ 11620     -32.300 127.353   3.104  1.00  0.00     0.210 HD
HETATM   23  C21 VFQ 11620     -49.679 144.621   9.710  1.00 72.69    -0.018 C 
HETATM   24  C22 VFQ 11620     -50.643 145.559  10.437  1.00 72.50     0.045 C 
HETATM   25  C23 VFQ 11620     -50.111 146.915  10.891  1.00 72.53     0.123 C 
HETATM   26  C24 VFQ 11620     -48.621 146.886  11.179  1.00 73.67     0.066 C 
HETATM   27  C25 VFQ 11620     -47.890 146.328   9.990  1.00 74.71    -0.074 C 
HETATM   28  C26 VFQ 11620     -48.332 145.228   9.382  1.00 74.26    -0.048 C 
HETATM   29  C27 VFQ 11620     -47.494 144.541   8.374  1.00 75.37     0.009 C 
HETATM   30  C28 VFQ 11620     -46.546 143.692   8.772  1.00 77.10     0.007 C 
HETATM   31  C29 VFQ 11620     -45.692 142.968   7.823  1.00 94.67    -0.062 C 
HETATM   32  C30 VFQ 11620     -44.963 141.985   8.348  1.00 94.67     0.007 C 
HETATM   33  C31 VFQ 11620     -44.045 141.129   7.620  1.00 94.67     0.001 C 
HETATM   34  C32 VFQ 11620     -43.320 140.388   8.440  1.00 94.67     0.007 C 
HETATM   35  C33 VFQ 11620     -42.305 139.427   8.016  1.00 94.67    -0.062 C 
HETATM   36  C34 VFQ 11620     -41.783 138.628   8.951  1.00 94.67     0.007 C 
HETATM   37  C35 VFQ 11620     -40.781 137.631   8.611  1.00 94.67     0.001 C 
HETATM   38  C36 VFQ 11620     -50.315 144.195   8.392  1.00 72.40     0.020 C 
HETATM   39  C37 VFQ 11620     -49.465 143.390  10.581  1.00 73.92     0.020 C 
HETATM   40  C38 VFQ 11620     -46.655 147.031   9.507  1.00 74.98     0.044 C 
HETATM   41  C39 VFQ 11620     -45.653 143.309   6.367  1.00 94.67     0.048 C 
HETATM   42  C40 VFQ 11620     -41.863 139.368   6.590  1.00 94.67     0.048 C 
HETATM   43  O23 VFQ 11620     -50.798 147.287  12.092  1.00 71.08    -0.395 OA
ATOM     44  H23 VFQ 11620     -51.731 147.306  11.912  1.00  0.00     0.210 HD
ENDROOT
TORSDOF 12
