REMARK VINA RESULT:    -9.079      0.000      0.000
REMARK INTER + INTRA:         -11.709
REMARK INTER:                  -9.079
REMARK INTRA:                  -2.631
REMARK UNBOUND:                -2.631
REMARK  0 active torsions:
REMARK  status: ('A' for Active; 'I' for Inactive)
REMARK       I    between atoms: C3_3  and  O3_21 
REMARK       I    between atoms: C6_6  and  C7_7 
REMARK       I    between atoms: C8_8  and  C9_9 
REMARK       I    between atoms: C10_10  and  C11_11 
REMARK       I    between atoms: C12_12  and  C13_13 
REMARK       I    between atoms: C14_14  and  C15_15 
REMARK       I    between atoms: C23_25  and  O23_43 
REMARK       I    between atoms: C26_28  and  C27_29 
REMARK       I    between atoms: C28_30  and  C29_31 
REMARK       I    between atoms: C30_32  and  C31_33 
REMARK       I    between atoms: C32_34  and  C33_35 
REMARK       I    between atoms: C34_36  and  C35_37 
ROOT
HETATM    1  C1  VFQ F5620     -34.541 127.005   6.242  1.00 19.30    -0.018 C 
HETATM    2  C2  VFQ F5620     -34.107 126.362   4.911  1.00 17.68     0.045 C 
HETATM    3  C3  VFQ F5620     -32.922 126.959   4.159  1.00 17.79     0.123 C 
HETATM    4  C4  VFQ F5620     -31.973 127.814   5.000  1.00 18.50     0.066 C 
HETATM    5  C5  VFQ F5620     -32.528 128.587   6.152  1.00 19.40    -0.074 C 
HETATM    6  C6  VFQ F5620     -33.722 128.235   6.749  1.00 19.02    -0.048 C 
HETATM    7  C7  VFQ F5620     -34.278 129.005   7.872  1.00 18.60     0.009 C 
HETATM    8  C8  VFQ F5620     -34.921 130.190   7.800  1.00 18.09     0.007 C 
HETATM    9  C9  VFQ F5620     -35.373 131.021   8.920  1.00 18.23    -0.062 C 
HETATM   10  C10 VFQ F5620     -36.092 132.127   8.632  1.00 15.81     0.007 C 
HETATM   11  C11 VFQ F5620     -36.644 133.063   9.572  1.00 18.00     0.001 C 
HETATM   12  C12 VFQ F5620     -37.489 134.014   9.142  1.00 18.12     0.007 C 
HETATM   13  C13 VFQ F5620     -38.204 135.028   9.906  1.00 18.88    -0.062 C 
HETATM   14  C14 VFQ F5620     -39.086 135.799   9.234  1.00 21.10     0.007 C 
HETATM   15  C15 VFQ F5620     -39.970 136.801   9.768  1.00 24.06     0.001 C 
HETATM   16  C16 VFQ F5620     -34.420 125.850   7.251  1.00 17.17     0.020 C 
HETATM   17  C17 VFQ F5620     -36.039 127.363   6.104  1.00 16.95     0.020 C 
HETATM   18  C18 VFQ F5620     -31.597 129.713   6.472  1.00 19.80     0.044 C 
HETATM   19  C19 VFQ F5620     -35.046 130.554  10.321  1.00 17.09     0.048 C 
HETATM   20  C20 VFQ F5620     -37.971 135.096  11.384  1.00 16.35     0.048 C 
HETATM   21  O3  VFQ F5620     -32.197 125.937   3.501  1.00 17.38    -0.395 OA
ATOM     22  H3  VFQ F5620     -31.458 126.309   3.032  1.00  0.00     0.210 HD
HETATM   23  C21 VFQ F5620     -49.510 144.502  12.566  1.00 72.69    -0.018 C 
HETATM   24  C22 VFQ F5620     -50.261 145.412  13.536  1.00 72.50     0.045 C 
HETATM   25  C23 VFQ F5620     -49.547 146.663  14.041  1.00 72.53     0.123 C 
HETATM   26  C24 VFQ F5620     -48.040 146.492  14.076  1.00 73.67     0.066 C 
HETATM   27  C25 VFQ F5620     -47.552 146.029  12.730  1.00 74.71    -0.074 C 
HETATM   28  C26 VFQ F5620     -48.180 145.045  12.090  1.00 74.26    -0.048 C 
HETATM   29  C27 VFQ F5620     -47.573 144.426  10.890  1.00 75.37     0.009 C 
HETATM   30  C28 VFQ F5620     -46.656 143.470  11.036  1.00 77.10     0.007 C 
HETATM   31  C29 VFQ F5620     -45.998 142.776   9.887  1.00 26.61    -0.062 C 
HETATM   32  C30 VFQ F5620     -45.089 141.825  10.190  1.00 25.24     0.007 C 
HETATM   33  C31 VFQ F5620     -44.373 140.997   9.265  1.00 26.40     0.001 C 
HETATM   34  C32 VFQ F5620     -43.452 140.109   9.684  1.00 26.29     0.007 C 
HETATM   35  C33 VFQ F5620     -42.624 139.202   8.882  1.00 26.99    -0.062 C 
HETATM   36  C34 VFQ F5620     -41.734 138.426   9.537  1.00 26.65     0.007 C 
HETATM   37  C35 VFQ F5620     -40.817 137.472   8.979  1.00 25.43     0.001 C 
HETATM   38  C36 VFQ F5620     -50.377 144.284  11.331  1.00 72.40     0.020 C 
HETATM   39  C37 VFQ F5620     -49.276 143.163  13.253  1.00 73.92     0.020 C 
HETATM   40  C38 VFQ F5620     -46.349 146.695  12.131  1.00 74.98     0.044 C 
HETATM   41  C39 VFQ F5620     -46.373 143.166   8.478  1.00 26.87     0.048 C 
HETATM   42  C40 VFQ F5620     -42.807 139.219   7.393  1.00 24.17     0.048 C 
HETATM   43  O23 VFQ F5620     -50.004 146.936  15.371  1.00 71.08    -0.395 OA
ATOM     44  H23 VFQ F5620     -50.948 147.043  15.349  1.00  0.00     0.210 HD
ENDROOT
TORSDOF 12
