REMARK VINA RESULT:   -10.386      1.245     16.629
REMARK INTER + INTRA:         -10.673
REMARK INTER:                  -7.875
REMARK INTRA:                  -2.798
REMARK UNBOUND:                -0.288
REMARK  0 active torsions:
REMARK  status: ('A' for Active; 'I' for Inactive)
REMARK       I    between atoms: C3_3  and  O3_21 
REMARK       I    between atoms: C6_6  and  C7_7 
REMARK       I    between atoms: C8_8  and  C9_9 
REMARK       I    between atoms: C10_10  and  C11_11 
REMARK       I    between atoms: C12_12  and  C13_13 
REMARK       I    between atoms: C14_14  and  C15_15 
REMARK       I    between atoms: C23_25  and  O23_43 
REMARK       I    between atoms: C26_28  and  C27_29 
REMARK       I    between atoms: C28_30  and  C29_31 
REMARK       I    between atoms: C30_32  and  C31_33 
REMARK       I    between atoms: C32_34  and  C33_35 
REMARK       I    between atoms: C34_36  and  C35_37 
ROOT
HETATM    1  C1  VFQ N1620     -34.520 126.805   6.139  1.00 57.79    -0.018 C 
HETATM    2  C2  VFQ N1620     -33.814 125.944   5.107  1.00 59.26     0.045 C 
HETATM    3  C3  VFQ N1620     -32.942 126.737   4.159  1.00 62.25     0.123 C 
HETATM    4  C4  VFQ N1620     -31.878 127.450   4.954  1.00 57.83     0.066 C 
HETATM    5  C5  VFQ N1620     -32.477 128.268   6.064  1.00 54.66    -0.074 C 
HETATM    6  C6  VFQ N1620     -33.675 127.982   6.620  1.00 55.29    -0.048 C 
HETATM    7  C7  VFQ N1620     -34.179 128.787   7.764  1.00 55.61     0.009 C 
HETATM    8  C8  VFQ N1620     -34.848 129.930   7.605  1.00 56.19     0.007 C 
HETATM    9  C9  VFQ N1620     -35.350 130.722   8.726  1.00 61.49    -0.062 C 
HETATM   10  C10 VFQ N1620     -36.061 131.793   8.388  1.00 57.47     0.007 C 
HETATM   11  C11 VFQ N1620     -36.665 132.712   9.327  1.00 53.29     0.001 C 
HETATM   12  C12 VFQ N1620     -37.419 133.627   8.748  1.00 52.45     0.007 C 
HETATM   13  C13 VFQ N1620     -38.148 134.630   9.518  1.00 52.04    -0.062 C 
HETATM   14  C14 VFQ N1620     -39.067 135.332   8.858  1.00 54.29     0.007 C 
HETATM   15  C15 VFQ N1620     -39.897 136.334   9.494  1.00 53.12     0.001 C 
HETATM   16  C16 VFQ N1620     -34.938 125.850   7.252  1.00 58.39     0.020 C 
HETATM   17  C17 VFQ N1620     -35.781 127.382   5.514  1.00 64.45     0.020 C 
HETATM   18  C18 VFQ N1620     -31.596 129.400   6.506  1.00 58.11     0.044 C 
HETATM   19  C19 VFQ N1620     -35.052 130.350  10.149  1.00 70.55     0.048 C 
HETATM   20  C20 VFQ N1620     -37.877 134.826  10.975  1.00 53.04     0.048 C 
HETATM   21  O3  VFQ N1620     -32.296 125.851   3.242  1.00 65.91    -0.395 OA
ATOM     22  H3  VFQ N1620     -31.748 126.349   2.647  1.00  0.00     0.210 HD
HETATM   23  C21 VFQ N1620     -49.794 143.860  10.914  1.00 48.43    -0.018 C 
HETATM   24  C22 VFQ N1620     -50.718 144.671  11.811  1.00 44.61     0.045 C 
HETATM   25  C23 VFQ N1620     -50.160 145.978  12.342  1.00 44.41     0.123 C 
HETATM   26  C24 VFQ N1620     -48.720 145.816  12.762  1.00 41.53     0.066 C 
HETATM   27  C25 VFQ N1620     -47.936 145.388  11.562  1.00 37.72    -0.074 C 
HETATM   28  C26 VFQ N1620     -48.377 144.393  10.796  1.00 43.52    -0.048 C 
HETATM   29  C27 VFQ N1620     -47.517 143.768   9.763  1.00 44.60     0.009 C 
HETATM   30  C28 VFQ N1620     -46.621 142.835  10.057  1.00 43.22     0.007 C 
HETATM   31  C29 VFQ N1620     -45.809 142.196   9.013  1.00 71.47    -0.062 C 
HETATM   32  C30 VFQ N1620     -45.096 141.147   9.413  1.00 69.97     0.007 C 
HETATM   33  C31 VFQ N1620     -44.245 140.342   8.559  1.00 65.68     0.001 C 
HETATM   34  C32 VFQ N1620     -43.513 139.461   9.215  1.00 62.75     0.007 C 
HETATM   35  C33 VFQ N1620     -42.609 138.525   8.542  1.00 61.08    -0.062 C 
HETATM   36  C34 VFQ N1620     -41.774 137.823   9.310  1.00 59.90     0.007 C 
HETATM   37  C35 VFQ N1620     -40.867 136.840   8.748  1.00 55.64     0.001 C 
HETATM   38  C36 VFQ N1620     -50.329 143.875   9.495  1.00 47.48     0.020 C 
HETATM   39  C37 VFQ N1620     -49.836 142.434  11.457  1.00 54.25     0.020 C 
HETATM   40  C38 VFQ N1620     -46.672 146.129  11.271  1.00 37.77     0.044 C 
HETATM   41  C39 VFQ N1620     -45.792 142.689   7.599  1.00 74.91     0.048 C 
HETATM   42  C40 VFQ N1620     -42.658 138.357   7.056  1.00 55.73     0.048 C 
HETATM   43  O23 VFQ N1620     -50.926 146.382  13.477  1.00 48.83    -0.395 OA
ATOM     44  H23 VFQ N1620     -51.833 146.484  13.212  1.00  0.00     0.210 HD
ENDROOT
TORSDOF 12
