REMARK VINA RESULT:    -7.202      1.207     16.828
REMARK INTER + INTRA:         -10.421
REMARK INTER:                 -10.057
REMARK INTRA:                  -0.364
REMARK UNBOUND:                -3.219
REMARK  0 active torsions:
REMARK  status: ('A' for Active; 'I' for Inactive)
REMARK       I    between atoms: C3_3  and  O3_21 
REMARK       I    between atoms: C6_6  and  C7_7 
REMARK       I    between atoms: C8_8  and  C9_9 
REMARK       I    between atoms: C10_10  and  C11_11 
REMARK       I    between atoms: C12_12  and  C13_13 
REMARK       I    between atoms: C14_14  and  C15_15 
REMARK       I    between atoms: C23_25  and  O23_43 
REMARK       I    between atoms: C26_28  and  C27_29 
REMARK       I    between atoms: C28_30  and  C29_31 
REMARK       I    between atoms: C30_32  and  C31_33 
REMARK       I    between atoms: C32_34  and  C33_35 
REMARK       I    between atoms: C34_36  and  C35_37 
ROOT
HETATM    1  C1  VFQ N1621     -51.082 144.712  10.650  1.00 51.88    -0.018 C 
HETATM    2  C2  VFQ N1621     -51.858 144.977  11.932  1.00 51.88     0.045 C 
HETATM    3  C3  VFQ N1621     -51.267 145.988  12.890  1.00 51.88     0.123 C 
HETATM    4  C4  VFQ N1621     -50.704 147.157  12.116  1.00 51.88     0.066 C 
HETATM    5  C5  VFQ N1621     -49.642 146.661  11.181  1.00 51.88    -0.074 C 
HETATM    6  C6  VFQ N1621     -49.843 145.565  10.448  1.00 51.88    -0.048 C 
HETATM    7  C7  VFQ N1621     -48.883 145.122   9.402  1.00 51.88     0.009 C 
HETATM    8  C8  VFQ N1621     -47.799 144.398   9.689  1.00 51.88     0.007 C 
HETATM    9  C9  VFQ N1621     -46.850 143.899   8.685  1.00 51.88    -0.062 C 
HETATM   10  C10 VFQ N1621     -46.086 142.886   9.092  1.00 51.88     0.007 C 
HETATM   11  C11 VFQ N1621     -45.096 142.171   8.303  1.00 51.88     0.001 C 
HETATM   12  C12 VFQ N1621     -44.496 141.180   8.950  1.00 51.88     0.007 C 
HETATM   13  C13 VFQ N1621     -43.507 140.301   8.315  1.00 51.88    -0.062 C 
HETATM   14  C14 VFQ N1621     -42.934 139.343   9.055  1.00 51.88     0.007 C 
HETATM   15  C15 VFQ N1621     -41.973 138.412   8.478  1.00 51.88     0.001 C 
HETATM   16  C16 VFQ N1621     -52.050 144.858   9.487  1.00 51.88     0.020 C 
HETATM   17  C17 VFQ N1621     -50.633 143.270  10.690  1.00 51.88     0.020 C 
HETATM   18  C18 VFQ N1621     -48.519 147.618  10.924  1.00 51.88     0.044 C 
HETATM   19  C19 VFQ N1621     -46.757 144.478   7.308  1.00 51.88     0.048 C 
HETATM   20  C20 VFQ N1621     -43.193 140.460   6.860  1.00 51.88     0.048 C 
HETATM   21  O3  VFQ N1621     -52.308 146.479  13.739  1.00 51.88    -0.395 OA
ATOM     22  H3  VFQ N1621     -51.936 147.114  14.341  1.00  0.00     0.210 HD
HETATM   23  C21 VFQ N1621     -34.017 128.452   7.518  1.00 94.67    -0.018 C 
HETATM   24  C22 VFQ N1621     -32.982 127.550   6.858  1.00 94.67     0.045 C 
HETATM   25  C23 VFQ N1621     -31.661 128.191   6.490  1.00 94.67     0.123 C 
HETATM   26  C24 VFQ N1621     -31.926 129.529   5.854  1.00 94.67     0.066 C 
HETATM   27  C25 VFQ N1621     -32.655 130.411   6.819  1.00 94.67    -0.074 C 
HETATM   28  C26 VFQ N1621     -33.631 129.918   7.583  1.00 94.67    -0.048 C 
HETATM   29  C27 VFQ N1621     -34.366 130.789   8.533  1.00 94.67     0.009 C 
HETATM   30  C28 VFQ N1621     -35.450 131.462   8.153  1.00 94.67     0.007 C 
HETATM   31  C29 VFQ N1621     -36.218 132.317   9.060  1.00 51.88    -0.062 C 
HETATM   32  C30 VFQ N1621     -37.343 132.862   8.584  1.00 51.88     0.007 C 
HETATM   33  C31 VFQ N1621     -38.229 133.735   9.343  1.00 51.88     0.001 C 
HETATM   34  C32 VFQ N1621     -38.853 134.701   8.671  1.00 51.88     0.007 C 
HETATM   35  C33 VFQ N1621     -39.773 135.637   9.334  1.00 51.88    -0.062 C 
HETATM   36  C34 VFQ N1621     -40.393 136.597   8.631  1.00 51.88     0.007 C 
HETATM   37  C35 VFQ N1621     -41.328 137.536   9.246  1.00 51.88     0.001 C 
HETATM   38  C36 VFQ N1621     -34.196 127.973   8.950  1.00 94.67     0.020 C 
HETATM   39  C37 VFQ N1621     -35.308 128.254   6.733  1.00 94.67     0.020 C 
HETATM   40  C38 VFQ N1621     -32.218 131.845   6.873  1.00 94.67     0.044 C 
HETATM   41  C39 VFQ N1621     -35.744 132.559  10.460  1.00 51.88     0.048 C 
HETATM   42  C40 VFQ N1621     -39.999 135.489  10.796  1.00 51.88     0.048 C 
HETATM   43  O23 VFQ N1621     -31.004 127.365   5.529  1.00 94.67    -0.395 OA
ATOM     44  H23 VFQ N1621     -30.175 127.766   5.299  1.00  0.00     0.210 HD
ENDROOT
TORSDOF 12
