REMARK VINA RESULT:    -7.949      0.415     16.961
REMARK INTER + INTRA:         -10.078
REMARK INTER:                  -7.059
REMARK INTRA:                  -3.019
REMARK UNBOUND:                -2.128
REMARK  0 active torsions:
REMARK  status: ('A' for Active; 'I' for Inactive)
REMARK       I    between atoms: C3_3  and  O3_21 
REMARK       I    between atoms: C6_6  and  C7_7 
REMARK       I    between atoms: C8_8  and  C9_9 
REMARK       I    between atoms: C10_10  and  C11_11 
REMARK       I    between atoms: C12_12  and  C13_13 
REMARK       I    between atoms: C14_14  and  C15_15 
REMARK       I    between atoms: C23_25  and  O23_43 
REMARK       I    between atoms: C26_28  and  C27_29 
REMARK       I    between atoms: C28_30  and  C29_31 
REMARK       I    between atoms: C30_32  and  C31_33 
REMARK       I    between atoms: C32_34  and  C33_35 
REMARK       I    between atoms: C34_36  and  C35_37 
ROOT
HETATM    1  C1  VFQ A 620     -34.566 126.949   5.954  1.00 22.96    -0.018 C 
HETATM    2  C2  VFQ A 620     -33.981 126.208   4.731  1.00 23.40     0.045 C 
HETATM    3  C3  VFQ A 620     -32.822 126.846   3.967  1.00 22.69     0.123 C 
HETATM    4  C4  VFQ A 620     -31.920 127.731   4.826  1.00 22.06     0.066 C 
HETATM    5  C5  VFQ A 620     -32.526 128.494   5.957  1.00 21.38    -0.074 C 
HETATM    6  C6  VFQ A 620     -33.747 128.159   6.505  1.00 22.58    -0.048 C 
HETATM    7  C7  VFQ A 620     -34.314 128.925   7.633  1.00 22.00     0.009 C 
HETATM    8  C8  VFQ A 620     -34.930 130.123   7.589  1.00 20.93     0.007 C 
HETATM    9  C9  VFQ A 620     -35.357 130.919   8.742  1.00 21.87    -0.062 C 
HETATM   10  C10 VFQ A 620     -36.062 132.049   8.509  1.00 20.24     0.007 C 
HETATM   11  C11 VFQ A 620     -36.583 132.957   9.500  1.00 21.04     0.001 C 
HETATM   12  C12 VFQ A 620     -37.434 133.930   9.142  1.00 22.18     0.007 C 
HETATM   13  C13 VFQ A 620     -38.122 134.935   9.965  1.00 24.17    -0.062 C 
HETATM   14  C14 VFQ A 620     -39.023 135.724   9.339  1.00 25.88     0.007 C 
HETATM   15  C15 VFQ A 620     -39.890 136.722   9.899  1.00 26.51     0.001 C 
HETATM   16  C16 VFQ A 620     -34.674 125.850   7.028  1.00 20.65     0.020 C 
HETATM   17  C17 VFQ A 620     -35.996 127.388   5.586  1.00 21.73     0.020 C 
HETATM   18  C18 VFQ A 620     -31.575 129.578   6.325  1.00 21.05     0.044 C 
HETATM   19  C19 VFQ A 620     -35.026 130.392  10.112  1.00 19.19     0.048 C 
HETATM   20  C20 VFQ A 620     -37.843 134.967  11.438  1.00 21.80     0.048 C 
HETATM   21  O3  VFQ A 620     -32.049 125.850   3.314  1.00 22.00    -0.395 OA
ATOM     22  H3  VFQ A 620     -31.329 126.247   2.839  1.00  0.00     0.210 HD
HETATM   23  C21 VFQ A 620     -49.469 144.434  12.840  1.00 19.54    -0.018 C 
HETATM   24  C22 VFQ A 620     -49.999 145.276  13.997  1.00 19.54     0.045 C 
HETATM   25  C23 VFQ A 620     -49.480 146.691  14.165  1.00 19.54     0.123 C 
HETATM   26  C24 VFQ A 620     -47.982 146.704  13.995  1.00 19.54     0.066 C 
HETATM   27  C25 VFQ A 620     -47.577 146.048  12.699  1.00 19.54    -0.074 C 
HETATM   28  C26 VFQ A 620     -48.179 144.944  12.224  1.00 19.54    -0.048 C 
HETATM   29  C27 VFQ A 620     -47.621 144.220  11.043  1.00 19.54     0.009 C 
HETATM   30  C28 VFQ A 620     -46.664 143.288  11.126  1.00 19.54     0.007 C 
HETATM   31  C29 VFQ A 620     -46.089 142.542   9.965  1.00 37.91    -0.062 C 
HETATM   32  C30 VFQ A 620     -45.120 141.638  10.226  1.00 37.54     0.007 C 
HETATM   33  C31 VFQ A 620     -44.423 140.804   9.281  1.00 35.36     0.001 C 
HETATM   34  C32 VFQ A 620     -43.452 139.966   9.695  1.00 32.59     0.007 C 
HETATM   35  C33 VFQ A 620     -42.602 139.047   8.923  1.00 30.48    -0.062 C 
HETATM   36  C34 VFQ A 620     -41.687 138.326   9.605  1.00 28.06     0.007 C 
HETATM   37  C35 VFQ A 620     -40.753 137.363   9.095  1.00 27.79     0.001 C 
HETATM   38  C36 VFQ A 620     -50.506 144.417  11.727  1.00 19.54     0.020 C 
HETATM   39  C37 VFQ A 620     -49.328 143.019  13.389  1.00 19.54     0.020 C 
HETATM   40  C38 VFQ A 620     -46.461 146.715  11.958  1.00 19.54     0.044 C 
HETATM   41  C39 VFQ A 620     -46.606 142.841   8.589  1.00 38.40     0.048 C 
HETATM   42  C40 VFQ A 620     -42.807 138.979   7.432  1.00 28.72     0.048 C 
HETATM   43  O23 VFQ A 620     -49.783 147.134  15.490  1.00 19.54    -0.395 OA
ATOM     44  H23 VFQ A 620     -49.458 148.021  15.595  1.00  0.00     0.210 HD
ENDROOT
TORSDOF 12
