REMARK VINA RESULT:    -7.663      1.374     16.918
REMARK INTER + INTRA:          -9.931
REMARK INTER:                  -9.675
REMARK INTRA:                  -0.257
REMARK UNBOUND:                -2.269
REMARK  0 active torsions:
REMARK  status: ('A' for Active; 'I' for Inactive)
REMARK       I    between atoms: C3_3  and  O3_21 
REMARK       I    between atoms: C6_6  and  C7_7 
REMARK       I    between atoms: C8_8  and  C9_9 
REMARK       I    between atoms: C10_10  and  C11_11 
REMARK       I    between atoms: C12_12  and  C13_13 
REMARK       I    between atoms: C14_14  and  C15_15 
REMARK       I    between atoms: C23_25  and  O23_43 
REMARK       I    between atoms: C26_28  and  C27_29 
REMARK       I    between atoms: C28_30  and  C29_31 
REMARK       I    between atoms: C30_32  and  C31_33 
REMARK       I    between atoms: C32_34  and  C33_35 
REMARK       I    between atoms: C34_36  and  C35_37 
ROOT
HETATM    1  C1  VFQ I8620     -34.166 128.159   6.792  1.00 16.69    -0.018 C 
HETATM    2  C2  VFQ I8620     -33.249 127.544   5.722  1.00 15.88     0.045 C 
HETATM    3  C3  VFQ I8620     -31.968 128.280   5.355  1.00 15.19     0.123 C 
HETATM    4  C4  VFQ I8620     -31.341 129.079   6.501  1.00 16.30     0.066 C 
HETATM    5  C5  VFQ I8620     -32.254 129.725   7.492  1.00 15.97    -0.074 C 
HETATM    6  C6  VFQ I8620     -33.559 129.320   7.642  1.00 16.56    -0.048 C 
HETATM    7  C7  VFQ I8620     -34.440 129.978   8.608  1.00 18.44     0.009 C 
HETATM    8  C8  VFQ I8620     -35.050 131.166   8.448  1.00 18.42     0.007 C 
HETATM    9  C9  VFQ I8620     -35.823 131.876   9.453  1.00 20.59    -0.062 C 
HETATM   10  C10 VFQ I8620     -36.449 133.011   9.076  1.00 20.51     0.007 C 
HETATM   11  C11 VFQ I8620     -37.265 133.846   9.901  1.00 21.63     0.001 C 
HETATM   12  C12 VFQ I8620     -37.978 134.836   9.356  1.00 21.98     0.007 C 
HETATM   13  C13 VFQ I8620     -38.891 135.766  10.018  1.00 23.28    -0.062 C 
HETATM   14  C14 VFQ I8620     -39.589 136.607   9.223  1.00 23.72     0.007 C 
HETATM   15  C15 VFQ I8620     -40.599 137.552   9.605  1.00 25.53     0.001 C 
HETATM   16  C16 VFQ I8620     -34.520 126.966   7.698  1.00 15.77     0.020 C 
HETATM   17  C17 VFQ I8620     -35.461 128.605   6.086  1.00 17.40     0.020 C 
HETATM   18  C18 VFQ I8620     -31.498 130.800   8.192  1.00 16.04     0.044 C 
HETATM   19  C19 VFQ I8620     -35.914 131.267  10.829  1.00 19.43     0.048 C 
HETATM   20  C20 VFQ I8620     -39.040 135.671  11.513  1.00 18.80     0.048 C 
HETATM   21  O3  VFQ I8620     -31.024 127.371   4.826  1.00 16.64    -0.395 OA
ATOM     22  H3  VFQ I8620     -30.225 127.831   4.597  1.00  0.00     0.210 HD
HETATM   23  C21 VFQ I8620     -50.743 145.136  10.193  1.00 71.46    -0.018 C 
HETATM   24  C22 VFQ I8620     -51.630 145.825  11.216  1.00 75.98     0.045 C 
HETATM   25  C23 VFQ I8620     -51.159 147.151  11.771  1.00 84.37     0.123 C 
HETATM   26  C24 VFQ I8620     -49.705 147.089  12.148  1.00 79.68     0.066 C 
HETATM   27  C25 VFQ I8620     -48.898 146.647  10.967  1.00 81.86    -0.074 C 
HETATM   28  C26 VFQ I8620     -49.315 145.666  10.151  1.00 72.92    -0.048 C 
HETATM   29  C27 VFQ I8620     -48.383 145.097   9.148  1.00 76.42     0.009 C 
HETATM   30  C28 VFQ I8620     -47.521 144.136   9.473  1.00 69.46     0.007 C 
HETATM   31  C29 VFQ I8620     -46.559 143.530   8.505  1.00 33.65    -0.062 C 
HETATM   32  C30 VFQ I8620     -45.742 142.561   8.969  1.00 30.63     0.007 C 
HETATM   33  C31 VFQ I8620     -44.783 141.796   8.216  1.00 28.70     0.001 C 
HETATM   34  C32 VFQ I8620     -43.988 140.879   8.808  1.00 25.67     0.007 C 
HETATM   35  C33 VFQ I8620     -42.964 140.019   8.212  1.00 24.63    -0.062 C 
HETATM   36  C34 VFQ I8620     -42.270 139.206   9.035  1.00 23.98     0.007 C 
HETATM   37  C35 VFQ I8620     -41.222 138.291   8.680  1.00 25.49     0.001 C 
HETATM   38  C36 VFQ I8620     -51.361 145.321   8.816  1.00 75.59     0.020 C 
HETATM   39  C37 VFQ I8620     -50.824 143.652  10.518  1.00 74.59     0.020 C 
HETATM   40  C38 VFQ I8620     -47.614 147.390  10.750  1.00 90.73     0.044 C 
HETATM   41  C39 VFQ I8620     -46.550 144.028   7.082  1.00 33.66     0.048 C 
HETATM   42  C40 VFQ I8620     -42.740 140.113   6.738  1.00 25.13     0.048 C 
HETATM   43  O23 VFQ I8620     -51.906 147.433  12.954  1.00 94.57    -0.395 OA
ATOM     44  H23 VFQ I8620     -51.610 148.265  13.302  1.00  0.00     0.210 HD
ENDROOT
TORSDOF 12
