REMARK VINA RESULT:   -11.204      1.225      1.762
REMARK INTER + INTRA:         -11.985
REMARK INTER:                  -9.137
REMARK INTRA:                  -2.849
REMARK UNBOUND:                -0.781
REMARK  0 active torsions:
REMARK  status: ('A' for Active; 'I' for Inactive)
REMARK       I    between atoms: C3_3  and  O3_21 
REMARK       I    between atoms: C6_6  and  C7_7 
REMARK       I    between atoms: C8_8  and  C9_9 
REMARK       I    between atoms: C10_10  and  C11_11 
REMARK       I    between atoms: C12_12  and  C13_13 
REMARK       I    between atoms: C14_14  and  C15_15 
REMARK       I    between atoms: C23_25  and  O23_43 
REMARK       I    between atoms: C26_28  and  C27_29 
REMARK       I    between atoms: C28_30  and  C29_31 
REMARK       I    between atoms: C30_32  and  C31_33 
REMARK       I    between atoms: C32_34  and  C33_35 
REMARK       I    between atoms: C34_36  and  C35_37 
ROOT
HETATM    1  C1  VFQ B1621     -47.813 146.159  12.842  1.00 16.49    -0.018 C 
HETATM    2  C2  VFQ B1621     -48.613 146.779  14.003  1.00 14.93     0.045 C 
HETATM    3  C3  VFQ B1621     -47.889 147.578  15.082  1.00 15.86     0.123 C 
HETATM    4  C4  VFQ B1621     -46.512 148.132  14.666  1.00 14.41     0.066 C 
HETATM    5  C5  VFQ B1621     -45.751 147.504  13.530  1.00 15.44    -0.074 C 
HETATM    6  C6  VFQ B1621     -46.324 146.598  12.658  1.00 14.73    -0.048 C 
HETATM    7  C7  VFQ B1621     -45.619 145.993  11.501  1.00 14.04     0.009 C 
HETATM    8  C8  VFQ B1621     -44.783 144.931  11.569  1.00 12.72     0.007 C 
HETATM    9  C9  VFQ B1621     -44.002 144.301  10.500  1.00 12.70    -0.062 C 
HETATM   10  C10 VFQ B1621     -43.342 143.159  10.803  1.00 13.26     0.007 C 
HETATM   11  C11 VFQ B1621     -42.596 142.314   9.899  1.00 13.12     0.001 C 
HETATM   12  C12 VFQ B1621     -42.034 141.155  10.319  1.00 12.34     0.007 C 
HETATM   13  C13 VFQ B1621     -41.360 140.143   9.483  1.00 12.89    -0.062 C 
HETATM   14  C14 VFQ B1621     -40.880 139.032  10.089  1.00 12.03     0.007 C 
HETATM   15  C15 VFQ B1621     -40.235 137.900   9.454  1.00 13.59     0.001 C 
HETATM   16  C16 VFQ B1621     -48.665 146.579  11.617  1.00 14.27     0.020 C 
HETATM   17  C17 VFQ B1621     -47.890 144.620  13.004  1.00 12.26     0.020 C 
HETATM   18  C18 VFQ B1621     -44.365 148.052  13.440  1.00 13.78     0.044 C 
HETATM   19  C19 VFQ B1621     -44.049 144.922   9.135  1.00  8.79     0.048 C 
HETATM   20  C20 VFQ B1621     -41.284 140.405   7.997  1.00  8.63     0.048 C 
HETATM   21  O3  VFQ B1621     -48.724 148.623  15.560  1.00 14.46    -0.395 OA
ATOM     22  H3  VFQ B1621     -48.273 149.122  16.231  1.00  0.00     0.210 HD
HETATM   23  C21 VFQ B1621     -34.455 126.842   6.221  1.00 98.50    -0.018 C 
HETATM   24  C22 VFQ B1621     -34.091 126.295   4.855  1.00 95.05     0.045 C 
HETATM   25  C23 VFQ B1621     -32.603 126.370   4.599  1.00 91.19     0.123 C 
HETATM   26  C24 VFQ B1621     -32.117 127.802   4.670  1.00 95.39     0.066 C 
HETATM   27  C25 VFQ B1621     -32.823 128.654   5.690  1.00 94.24    -0.074 C 
HETATM   28  C26 VFQ B1621     -33.808 128.195   6.495  1.00 98.17    -0.048 C 
HETATM   29  C27 VFQ B1621     -34.269 128.952   7.696  1.00 96.30     0.009 C 
HETATM   30  C28 VFQ B1621     -35.188 129.923   7.642  1.00 99.74     0.007 C 
HETATM   31  C29 VFQ B1621     -35.705 130.686   8.801  1.00 21.33    -0.062 C 
HETATM   32  C30 VFQ B1621     -36.596 131.677   8.577  1.00 19.38     0.007 C 
HETATM   33  C31 VFQ B1621     -37.189 132.532   9.580  1.00 19.44     0.001 C 
HETATM   34  C32 VFQ B1621     -37.912 133.628   9.226  1.00 17.56     0.007 C 
HETATM   35  C33 VFQ B1621     -38.532 134.648  10.086  1.00 14.52    -0.062 C 
HETATM   36  C34 VFQ B1621     -39.113 135.712   9.489  1.00 13.82     0.007 C 
HETATM   37  C35 VFQ B1621     -39.744 136.850  10.138  1.00 15.60     0.001 C 
HETATM   38  C36 VFQ B1621     -33.969 125.903   7.306  1.00 90.00     0.020 C 
HETATM   39  C37 VFQ B1621     -35.975 126.833   6.262  1.00 93.85     0.020 C 
HETATM   40  C38 VFQ B1621     -32.340 130.070   5.699  1.00 91.76     0.044 C 
HETATM   41  C39 VFQ B1621     -35.143 130.367  10.150  1.00 21.43     0.048 C 
HETATM   42  C40 VFQ B1621     -38.417 134.470  11.565  1.00 13.28     0.048 C 
HETATM   43  O23 VFQ B1621     -32.336 125.881   3.285  1.00 92.07    -0.395 OA
ATOM     44  H23 VFQ B1621     -32.641 124.982   3.241  1.00  0.00     0.210 HD
ENDROOT
TORSDOF 12
