REMARK VINA RESULT:    -9.718      0.569      1.057
REMARK INTER + INTRA:         -12.161
REMARK INTER:                 -10.743
REMARK INTRA:                  -1.418
REMARK UNBOUND:                -2.443
REMARK  0 active torsions:
REMARK  status: ('A' for Active; 'I' for Inactive)
REMARK       I    between atoms: C3_3  and  O3_21 
REMARK       I    between atoms: C6_6  and  C7_7 
REMARK       I    between atoms: C8_8  and  C9_9 
REMARK       I    between atoms: C10_10  and  C11_11 
REMARK       I    between atoms: C12_12  and  C13_13 
REMARK       I    between atoms: C14_14  and  C15_15 
REMARK       I    between atoms: C23_25  and  O23_43 
REMARK       I    between atoms: C26_28  and  C27_29 
REMARK       I    between atoms: C28_30  and  C29_31 
REMARK       I    between atoms: C30_32  and  C31_33 
REMARK       I    between atoms: C32_34  and  C33_35 
REMARK       I    between atoms: C34_36  and  C35_37 
ROOT
HETATM    1  C1  VFQ y1620     -34.212 127.679   6.858  1.00 32.28    -0.018 C 
HETATM    2  C2  VFQ y1620     -33.589 127.223   5.550  1.00 32.10     0.045 C 
HETATM    3  C3  VFQ y1620     -32.435 128.043   5.019  1.00 30.03     0.123 C 
HETATM    4  C4  VFQ y1620     -31.463 128.426   6.098  1.00 27.01     0.066 C 
HETATM    5  C5  VFQ y1620     -32.157 129.069   7.258  1.00 26.85    -0.074 C 
HETATM    6  C6  VFQ y1620     -33.422 128.764   7.586  1.00 32.38    -0.048 C 
HETATM    7  C7  VFQ y1620     -34.086 129.491   8.696  1.00 31.45     0.009 C 
HETATM    8  C8  VFQ y1620     -34.819 130.577   8.459  1.00 30.07     0.007 C 
HETATM    9  C9  VFQ y1620     -35.500 131.345   9.499  1.00 31.62    -0.062 C 
HETATM   10  C10 VFQ y1620     -36.050 132.490   9.094  1.00 26.80     0.007 C 
HETATM   11  C11 VFQ y1620     -36.782 133.406   9.941  1.00 22.84     0.001 C 
HETATM   12  C12 VFQ y1620     -37.518 134.242   9.242  1.00 24.53     0.007 C 
HETATM   13  C13 VFQ y1620     -38.397 135.241   9.841  1.00 24.57    -0.062 C 
HETATM   14  C14 VFQ y1620     -39.113 135.978   8.997  1.00 24.07     0.007 C 
HETATM   15  C15 VFQ y1620     -40.064 136.972   9.441  1.00 24.13     0.001 C 
HETATM   16  C16 VFQ y1620     -34.367 126.400   7.675  1.00 30.09     0.020 C 
HETATM   17  C17 VFQ y1620     -35.592 128.242   6.555  1.00 35.00     0.020 C 
HETATM   18  C18 VFQ y1620     -31.389 130.194   7.881  1.00 25.72     0.044 C 
HETATM   19  C19 VFQ y1620     -35.536 130.870  10.918  1.00 32.28     0.048 C 
HETATM   20  C20 VFQ y1620     -38.505 135.385  11.322  1.00 25.14     0.048 C 
HETATM   21  O3  VFQ y1620     -31.717 127.246   4.074  1.00 33.60    -0.395 OA
ATOM     22  H3  VFQ y1620     -32.332 127.003   3.391  1.00  0.00     0.210 HD
HETATM   23  C21 VFQ y1620     -50.007 144.666   9.710  1.00 23.07    -0.018 C 
HETATM   24  C22 VFQ y1620     -50.943 145.569  10.534  1.00 21.39     0.045 C 
HETATM   25  C23 VFQ y1620     -50.400 146.913  11.007  1.00 23.10     0.123 C 
HETATM   26  C24 VFQ y1620     -48.887 146.941  11.239  1.00 23.25     0.066 C 
HETATM   27  C25 VFQ y1620     -48.022 146.170  10.294  1.00 22.57    -0.074 C 
HETATM   28  C26 VFQ y1620     -48.516 145.108   9.571  1.00 22.63    -0.048 C 
HETATM   29  C27 VFQ y1620     -47.665 144.349   8.644  1.00 23.01     0.009 C 
HETATM   30  C28 VFQ y1620     -46.762 143.411   8.990  1.00 21.85     0.007 C 
HETATM   31  C29 VFQ y1620     -45.842 142.747   8.111  1.00 31.74    -0.062 C 
HETATM   32  C30 VFQ y1620     -45.196 141.713   8.615  1.00 30.48     0.007 C 
HETATM   33  C31 VFQ y1620     -44.253 140.910   7.871  1.00 30.78     0.001 C 
HETATM   34  C32 VFQ y1620     -43.568 140.074   8.624  1.00 30.06     0.007 C 
HETATM   35  C33 VFQ y1620     -42.580 139.157   8.067  1.00 27.63    -0.062 C 
HETATM   36  C34 VFQ y1620     -41.879 138.430   8.934  1.00 25.49     0.007 C 
HETATM   37  C35 VFQ y1620     -40.888 137.458   8.529  1.00 24.60     0.001 C 
HETATM   38  C36 VFQ y1620     -50.648 144.485   8.315  1.00 21.40     0.020 C 
HETATM   39  C37 VFQ y1620     -50.086 143.319  10.453  1.00 21.74     0.020 C 
HETATM   40  C38 VFQ y1620     -46.658 146.765  10.307  1.00 21.99     0.044 C 
HETATM   41  C39 VFQ y1620     -45.637 143.203   6.705  1.00 33.51     0.048 C 
HETATM   42  C40 VFQ y1620     -42.400 139.055   6.587  1.00 28.91     0.048 C 
HETATM   43  O23 VFQ y1620     -51.078 147.332  12.178  1.00 24.94    -0.395 OA
ATOM     44  H23 VFQ y1620     -50.739 148.169  12.472  1.00  0.00     0.210 HD
ENDROOT
TORSDOF 12
