REMARK VINA RESULT:    -7.503      2.099     16.944
REMARK INTER + INTRA:          -9.148
REMARK INTER:                  -9.139
REMARK INTRA:                  -0.010
REMARK UNBOUND:                -1.645
REMARK  0 active torsions:
REMARK  status: ('A' for Active; 'I' for Inactive)
REMARK       I    between atoms: C3_3  and  O3_21 
REMARK       I    between atoms: C6_6  and  C7_7 
REMARK       I    between atoms: C8_8  and  C9_9 
REMARK       I    between atoms: C10_10  and  C11_11 
REMARK       I    between atoms: C12_12  and  C13_13 
REMARK       I    between atoms: C14_14  and  C15_15 
REMARK       I    between atoms: C23_25  and  O23_43 
REMARK       I    between atoms: C26_28  and  C27_29 
REMARK       I    between atoms: C28_30  and  C29_31 
REMARK       I    between atoms: C30_32  and  C31_33 
REMARK       I    between atoms: C32_34  and  C33_35 
REMARK       I    between atoms: C34_36  and  C35_37 
ROOT
HETATM    1  C1  VFQ 6 321     -34.090 127.998   7.273  1.00 93.31    -0.018 C 
HETATM    2  C2  VFQ 6 321     -33.187 127.263   6.281  1.00 93.93     0.045 C 
HETATM    3  C3  VFQ 6 321     -32.385 128.147   5.335  1.00 93.98     0.123 C 
HETATM    4  C4  VFQ 6 321     -31.688 129.242   6.123  1.00 93.16     0.066 C 
HETATM    5  C5  VFQ 6 321     -32.714 130.052   6.868  1.00 92.19    -0.074 C 
HETATM    6  C6  VFQ 6 321     -33.775 129.473   7.442  1.00 91.50    -0.048 C 
HETATM    7  C7  VFQ 6 321     -34.678 130.288   8.290  1.00 98.60     0.009 C 
HETATM    8  C8  VFQ 6 321     -35.654 131.035   7.768  1.00 95.09     0.007 C 
HETATM    9  C9  VFQ 6 321     -36.541 131.839   8.634  1.00 91.76    -0.062 C 
HETATM   10  C10 VFQ 6 321     -37.379 132.722   8.073  1.00 98.95     0.007 C 
HETATM   11  C11 VFQ 6 321     -38.282 133.543   8.879  1.00 96.41     0.001 C 
HETATM   12  C12 VFQ 6 321     -39.085 134.407   8.263  1.00 94.60     0.007 C 
HETATM   13  C13 VFQ 6 321     -40.017 135.258   9.025  1.00 93.62    -0.062 C 
HETATM   14  C14 VFQ 6 321     -40.842 136.094   8.376  1.00 93.18     0.007 C 
HETATM   15  C15 VFQ 6 321     -41.772 136.936   9.125  1.00 93.10     0.001 C 
HETATM   16  C16 VFQ 6 321     -33.978 127.308   8.627  1.00 93.81     0.020 C 
HETATM   17  C17 VFQ 6 321     -35.529 127.893   6.779  1.00 92.50     0.020 C 
HETATM   18  C18 VFQ 6 321     -32.354 131.475   7.181  1.00 91.81     0.044 C 
HETATM   19  C19 VFQ 6 321     -36.506 131.670  10.125  1.00 91.57     0.048 C 
HETATM   20  C20 VFQ 6 321     -40.042 135.184  10.523  1.00 93.41     0.048 C 
HETATM   21  O3  VFQ 6 321     -31.399 127.353   4.663  1.00 94.06    -0.395 OA
ATOM     22  H3  VFQ 6 321     -30.899 127.904   4.074  1.00  0.00     0.210 HD
HETATM   23  C21 VFQ 6 321     -51.725 143.804  12.692  1.00 57.46    -0.018 C 
HETATM   24  C22 VFQ 6 321     -52.600 144.720  13.535  1.00 54.62     0.045 C 
HETATM   25  C23 VFQ 6 321     -51.918 145.685  14.505  1.00 54.91     0.123 C 
HETATM   26  C24 VFQ 6 321     -50.415 145.855  14.329  1.00 56.99     0.066 C 
HETATM   27  C25 VFQ 6 321     -49.987 145.559  12.919  1.00 60.65    -0.074 C 
HETATM   28  C26 VFQ 6 321     -50.441 144.483  12.273  1.00 60.28    -0.048 C 
HETATM   29  C27 VFQ 6 321     -49.732 143.930  11.098  1.00 57.11     0.009 C 
HETATM   30  C28 VFQ 6 321     -48.671 143.144  11.229  1.00 53.31     0.007 C 
HETATM   31  C29 VFQ 6 321     -47.989 142.562  10.048  1.00 92.38    -0.062 C 
HETATM   32  C30 VFQ 6 321     -46.944 141.755  10.290  1.00 92.82     0.007 C 
HETATM   33  C31 VFQ 6 321     -46.161 141.095   9.248  1.00 93.26     0.001 C 
HETATM   34  C32 VFQ 6 321     -45.211 140.262   9.667  1.00 94.43     0.007 C 
HETATM   35  C33 VFQ 6 321     -44.328 139.503   8.759  1.00 94.12    -0.062 C 
HETATM   36  C34 VFQ 6 321     -43.486 138.609   9.302  1.00 93.68     0.007 C 
HETATM   37  C35 VFQ 6 321     -42.574 137.799   8.501  1.00 93.36     0.001 C 
HETATM   38  C36 VFQ 6 321     -52.497 143.455  11.432  1.00 59.48     0.020 C 
HETATM   39  C37 VFQ 6 321     -51.453 142.495  13.431  1.00 57.14     0.020 C 
HETATM   40  C38 VFQ 6 321     -49.046 146.517  12.259  1.00 65.36     0.044 C 
HETATM   41  C39 VFQ 6 321     -48.438 142.858   8.648  1.00 91.58     0.048 C 
HETATM   42  C40 VFQ 6 321     -44.376 139.725   7.276  1.00 93.59     0.048 C 
HETATM   43  O23 VFQ 6 321     -52.164 145.202  15.827  1.00 51.54    -0.395 OA
ATOM     44  H23 VFQ 6 321     -51.740 145.801  16.430  1.00  0.00     0.210 HD
ENDROOT
TORSDOF 12
