REMARK VINA RESULT:    -9.623      1.813     16.463
REMARK INTER + INTRA:         -12.506
REMARK INTER:                  -9.887
REMARK INTRA:                  -2.619
REMARK UNBOUND:                -2.883
REMARK  0 active torsions:
REMARK  status: ('A' for Active; 'I' for Inactive)
REMARK       I    between atoms: C3_3  and  O3_21 
REMARK       I    between atoms: C6_6  and  C7_7 
REMARK       I    between atoms: C8_8  and  C9_9 
REMARK       I    between atoms: C10_10  and  C11_11 
REMARK       I    between atoms: C12_12  and  C13_13 
REMARK       I    between atoms: C14_14  and  C15_15 
REMARK       I    between atoms: C23_25  and  O23_43 
REMARK       I    between atoms: C26_28  and  C27_29 
REMARK       I    between atoms: C28_30  and  C29_31 
REMARK       I    between atoms: C30_32  and  C31_33 
REMARK       I    between atoms: C32_34  and  C33_35 
REMARK       I    between atoms: C34_36  and  C35_37 
ROOT
HETATM    1  C1  VFQ N1621     -34.334 127.484   6.547  1.00 48.43    -0.018 C 
HETATM    2  C2  VFQ N1621     -33.715 126.836   5.316  1.00 44.61     0.045 C 
HETATM    3  C3  VFQ N1621     -32.500 127.530   4.732  1.00 44.41     0.123 C 
HETATM    4  C4  VFQ N1621     -31.577 128.008   5.826  1.00 41.53     0.066 C 
HETATM    5  C5  VFQ N1621     -32.338 128.971   6.681  1.00 37.72    -0.074 C 
HETATM    6  C6  VFQ N1621     -33.556 128.657   7.120  1.00 43.52    -0.048 C 
HETATM    7  C7  VFQ N1621     -34.207 129.414   8.214  1.00 44.60     0.009 C 
HETATM    8  C8  VFQ N1621     -34.835 130.565   8.002  1.00 43.22     0.007 C 
HETATM    9  C9  VFQ N1621     -35.507 131.268   9.093  1.00 45.04    -0.062 C 
HETATM   10  C10 VFQ N1621     -36.290 132.270   8.716  1.00 43.71     0.007 C 
HETATM   11  C11 VFQ N1621     -37.098 133.076   9.601  1.00 42.87     0.001 C 
HETATM   12  C12 VFQ N1621     -37.870 133.911   8.935  1.00 44.70     0.007 C 
HETATM   13  C13 VFQ N1621     -38.841 134.790   9.580  1.00 42.63    -0.062 C 
HETATM   14  C14 VFQ N1621     -39.597 135.540   8.776  1.00 42.62     0.007 C 
HETATM   15  C15 VFQ N1621     -40.621 136.413   9.310  1.00 44.33     0.001 C 
HETATM   16  C16 VFQ N1621     -34.519 126.360   7.560  1.00 47.48     0.020 C 
HETATM   17  C17 VFQ N1621     -35.688 128.064   6.182  1.00 54.25     0.020 C 
HETATM   18  C18 VFQ N1621     -31.437 129.906   7.416  1.00 37.77     0.044 C 
HETATM   19  C19 VFQ N1621     -35.335 130.859  10.520  1.00 46.17     0.048 C 
HETATM   20  C20 VFQ N1621     -39.003 134.789  11.068  1.00 40.87     0.048 C 
HETATM   21  O3  VFQ N1621     -31.791 126.606   3.905  1.00 48.83    -0.395 OA
ATOM     22  H3  VFQ N1621     -31.030 127.042   3.539  1.00  0.00     0.210 HD
HETATM   23  C21 VFQ N1621     -50.246 144.815  10.117  1.00 98.00    -0.018 C 
HETATM   24  C22 VFQ N1621     -51.243 144.447  11.211  1.00 98.00     0.045 C 
HETATM   25  C23 VFQ N1621     -50.816 144.865  12.616  1.00 98.00     0.123 C 
HETATM   26  C24 VFQ N1621     -49.411 144.376  12.927  1.00 98.00     0.066 C 
HETATM   27  C25 VFQ N1621     -48.504 144.864  11.831  1.00 98.00    -0.074 C 
HETATM   28  C26 VFQ N1621     -48.827 144.602  10.575  1.00 98.00    -0.048 C 
HETATM   29  C27 VFQ N1621     -47.804 144.137   9.627  1.00 98.00     0.009 C 
HETATM   30  C28 VFQ N1621     -47.225 142.962   9.839  1.00 98.00     0.007 C 
HETATM   31  C29 VFQ N1621     -46.222 142.444   8.909  1.00 54.19    -0.062 C 
HETATM   32  C30 VFQ N1621     -45.868 141.172   9.093  1.00 54.84     0.007 C 
HETATM   33  C31 VFQ N1621     -44.895 140.472   8.280  1.00 51.40     0.001 C 
HETATM   34  C32 VFQ N1621     -44.148 139.604   8.940  1.00 48.08     0.007 C 
HETATM   35  C33 VFQ N1621     -43.114 138.810   8.279  1.00 45.58    -0.062 C 
HETATM   36  C34 VFQ N1621     -42.368 137.998   9.029  1.00 47.58     0.007 C 
HETATM   37  C35 VFQ N1621     -41.326 137.154   8.473  1.00 48.15     0.001 C 
HETATM   38  C36 VFQ N1621     -50.384 146.285   9.750  1.00 98.00     0.020 C 
HETATM   39  C37 VFQ N1621     -50.539 143.980   8.877  1.00 98.00     0.020 C 
HETATM   40  C38 VFQ N1621     -47.285 145.678  12.161  1.00 98.00     0.044 C 
HETATM   41  C39 VFQ N1621     -45.680 143.305   7.813  1.00 53.01     0.048 C 
HETATM   42  C40 VFQ N1621     -42.920 138.931   6.808  1.00 46.34     0.048 C 
HETATM   43  O23 VFQ N1621     -51.729 144.334  13.580  1.00 98.00    -0.395 OA
ATOM     44  H23 VFQ N1621     -52.607 144.639  13.387  1.00  0.00     0.210 HD
ENDROOT
TORSDOF 12
