REMARK VINA RESULT:   -10.111      1.157     16.072
REMARK INTER + INTRA:         -10.102
REMARK INTER:                  -8.359
REMARK INTRA:                  -1.743
REMARK UNBOUND:                 0.009
REMARK  0 active torsions:
REMARK  status: ('A' for Active; 'I' for Inactive)
REMARK       I    between atoms: C3_3  and  O3_21 
REMARK       I    between atoms: C6_6  and  C7_7 
REMARK       I    between atoms: C8_8  and  C9_9 
REMARK       I    between atoms: C10_10  and  C11_11 
REMARK       I    between atoms: C12_12  and  C13_13 
REMARK       I    between atoms: C14_14  and  C15_15 
REMARK       I    between atoms: C23_25  and  O23_43 
REMARK       I    between atoms: C26_28  and  C27_29 
REMARK       I    between atoms: C28_30  and  C29_31 
REMARK       I    between atoms: C30_32  and  C31_33 
REMARK       I    between atoms: C32_34  and  C33_35 
REMARK       I    between atoms: C34_36  and  C35_37 
ROOT
HETATM    1  C1  VFQ V1620     -33.831 129.043   7.134  1.00 15.23    -0.018 C 
HETATM    2  C2  VFQ V1620     -33.025 129.546   5.952  1.00 15.23     0.045 C 
HETATM    3  C3  VFQ V1620     -32.083 130.678   6.269  1.00 15.23     0.123 C 
HETATM    4  C4  VFQ V1620     -31.334 130.314   7.516  1.00 15.23     0.066 C 
HETATM    5  C5  VFQ V1620     -32.278 130.172   8.669  1.00 15.23    -0.074 C 
HETATM    6  C6  VFQ V1620     -33.500 129.675   8.462  1.00 15.23    -0.048 C 
HETATM    7  C7  VFQ V1620     -34.622 129.982   9.355  1.00 15.23     0.009 C 
HETATM    8  C8  VFQ V1620     -34.794 131.298   9.503  1.00 15.23     0.007 C 
HETATM    9  C9  VFQ V1620     -35.979 131.851  10.186  1.00 15.23    -0.062 C 
HETATM   10  C10 VFQ V1620     -36.234 133.153   9.997  1.00 15.23     0.007 C 
HETATM   11  C11 VFQ V1620     -37.432 133.819  10.490  1.00 15.23     0.001 C 
HETATM   12  C12 VFQ V1620     -37.728 135.030  10.047  1.00 15.23     0.007 C 
HETATM   13  C13 VFQ V1620     -38.977 135.704  10.430  1.00 15.23    -0.062 C 
HETATM   14  C14 VFQ V1620     -39.297 136.821   9.769  1.00 15.23     0.007 C 
HETATM   15  C15 VFQ V1620     -40.523 137.582   9.989  1.00 15.23     0.001 C 
HETATM   16  C16 VFQ V1620     -33.468 127.580   7.304  1.00 15.23     0.020 C 
HETATM   17  C17 VFQ V1620     -35.304 129.205   6.806  1.00 15.23     0.020 C 
HETATM   18  C18 VFQ V1620     -31.866 130.921   9.902  1.00 15.23     0.044 C 
HETATM   19  C19 VFQ V1620     -36.861 130.955  11.006  1.00 15.23     0.048 C 
HETATM   20  C20 VFQ V1620     -39.838 135.095  11.485  1.00 15.23     0.048 C 
HETATM   21  O3  VFQ V1620     -31.122 130.794   5.226  1.00 15.23    -0.395 OA
ATOM     22  H3  VFQ V1620     -30.528 131.507   5.426  1.00  0.00     0.210 HD
HETATM   23  C21 VFQ V1620     -50.069 144.951   8.848  1.00 46.63    -0.018 C 
HETATM   24  C22 VFQ V1620     -51.413 145.408   9.410  1.00 46.63     0.045 C 
HETATM   25  C23 VFQ V1620     -51.343 146.052  10.788  1.00 46.63     0.123 C 
HETATM   26  C24 VFQ V1620     -50.257 145.384  11.612  1.00 46.63     0.066 C 
HETATM   27  C25 VFQ V1620     -48.946 145.648  10.925  1.00 46.63    -0.074 C 
HETATM   28  C26 VFQ V1620     -48.890 145.516   9.595  1.00 46.63    -0.048 C 
HETATM   29  C27 VFQ V1620     -47.605 145.566   8.902  1.00 46.63     0.009 C 
HETATM   30  C28 VFQ V1620     -46.922 144.473   9.263  1.00 46.63     0.007 C 
HETATM   31  C29 VFQ V1620     -45.638 144.110   8.647  1.00 15.23    -0.062 C 
HETATM   32  C30 VFQ V1620     -45.150 142.927   9.026  1.00 15.23     0.007 C 
HETATM   33  C31 VFQ V1620     -43.905 142.340   8.566  1.00 15.23     0.001 C 
HETATM   34  C32 VFQ V1620     -43.544 141.183   9.107  1.00 15.23     0.007 C 
HETATM   35  C33 VFQ V1620     -42.288 140.516   8.755  1.00 15.23    -0.062 C 
HETATM   36  C34 VFQ V1620     -41.974 139.408   9.440  1.00 15.23     0.007 C 
HETATM   37  C35 VFQ V1620     -40.754 138.642   9.235  1.00 15.23     0.001 C 
HETATM   38  C36 VFQ V1620     -49.953 145.370   7.389  1.00 46.63     0.020 C 
HETATM   39  C37 VFQ V1620     -49.966 143.435   8.952  1.00 46.63     0.020 C 
HETATM   40  C38 VFQ V1620     -47.798 146.138  11.766  1.00 46.63     0.044 C 
HETATM   41  C39 VFQ V1620     -45.001 145.015   7.640  1.00 15.23     0.048 C 
HETATM   42  C40 VFQ V1620     -41.441 141.121   7.686  1.00 15.23     0.048 C 
HETATM   43  O23 VFQ V1620     -52.600 145.897  11.455  1.00 46.63    -0.395 OA
ATOM     44  H23 VFQ V1620     -53.279 146.315  10.939  1.00  0.00     0.210 HD
ENDROOT
TORSDOF 12
