REMARK VINA RESULT:    -7.943      2.050     16.815
REMARK INTER + INTRA:         -10.831
REMARK INTER:                 -10.543
REMARK INTRA:                  -0.289
REMARK UNBOUND:                -2.888
REMARK  0 active torsions:
REMARK  status: ('A' for Active; 'I' for Inactive)
REMARK       I    between atoms: C3_3  and  O3_21 
REMARK       I    between atoms: C6_6  and  C7_7 
REMARK       I    between atoms: C8_8  and  C9_9 
REMARK       I    between atoms: C10_10  and  C11_11 
REMARK       I    between atoms: C12_12  and  C13_13 
REMARK       I    between atoms: C14_14  and  C15_15 
REMARK       I    between atoms: C23_25  and  O23_43 
REMARK       I    between atoms: C26_28  and  C27_29 
REMARK       I    between atoms: C28_30  and  C29_31 
REMARK       I    between atoms: C30_32  and  C31_33 
REMARK       I    between atoms: C32_34  and  C33_35 
REMARK       I    between atoms: C34_36  and  C35_37 
ROOT
HETATM    1  C1  VFQ 6 621     -50.536 144.153  13.362  1.00 27.76    -0.018 C 
HETATM    2  C2  VFQ 6 621     -50.901 144.531  14.795  1.00 27.76     0.045 C 
HETATM    3  C3  VFQ 6 621     -50.255 145.754  15.434  1.00 27.76     0.123 C 
HETATM    4  C4  VFQ 6 621     -49.827 146.782  14.409  1.00 27.76     0.066 C 
HETATM    5  C5  VFQ 6 621     -48.993 146.105  13.357  1.00 27.76    -0.074 C 
HETATM    6  C6  VFQ 6 621     -49.384 144.958  12.796  1.00 27.76    -0.048 C 
HETATM    7  C7  VFQ 6 621     -48.687 144.474  11.579  1.00 27.76     0.009 C 
HETATM    8  C8  VFQ 6 621     -47.655 143.624  11.622  1.00 27.76     0.007 C 
HETATM    9  C9  VFQ 6 621     -46.978 143.173  10.393  1.00 27.76    -0.062 C 
HETATM   10  C10 VFQ 6 621     -45.972 142.285  10.504  1.00 27.76     0.007 C 
HETATM   11  C11 VFQ 6 621     -45.168 141.736   9.411  1.00 27.76     0.001 C 
HETATM   12  C12 VFQ 6 621     -44.118 141.006   9.773  1.00 27.76     0.007 C 
HETATM   13  C13 VFQ 6 621     -43.152 140.319   8.895  1.00 27.76    -0.062 C 
HETATM   14  C14 VFQ 6 621     -42.385 139.383   9.470  1.00 27.76     0.007 C 
HETATM   15  C15 VFQ 6 621     -41.399 138.569   8.770  1.00 27.76     0.001 C 
HETATM   16  C16 VFQ 6 621     -51.800 144.303  12.519  1.00 27.76     0.020 C 
HETATM   17  C17 VFQ 6 621     -50.115 142.693  13.342  1.00 27.76     0.020 C 
HETATM   18  C18 VFQ 6 621     -48.034 147.029  12.663  1.00 27.76     0.044 C 
HETATM   19  C19 VFQ 6 621     -47.429 143.719   9.077  1.00 27.76     0.048 C 
HETATM   20  C20 VFQ 6 621     -43.028 140.635   7.439  1.00 27.76     0.048 C 
HETATM   21  O3  VFQ 6 621     -51.185 146.368  16.331  1.00 27.76    -0.395 OA
ATOM     22  H3  VFQ 6 621     -50.782 147.131  16.729  1.00  0.00     0.210 HD
HETATM   23  C21 VFQ 6 621     -34.028 128.161   7.175  1.00 17.81    -0.018 C 
HETATM   24  C22 VFQ 6 621     -33.212 127.466   6.066  1.00 18.03     0.045 C 
HETATM   25  C23 VFQ 6 621     -31.766 127.925   5.907  1.00 19.41     0.123 C 
HETATM   26  C24 VFQ 6 621     -31.632 129.446   5.909  1.00 18.47     0.066 C 
HETATM   27  C25 VFQ 6 621     -32.453 130.171   6.924  1.00 18.29    -0.074 C 
HETATM   28  C26 VFQ 6 621     -33.568 129.609   7.535  1.00 18.07    -0.048 C 
HETATM   29  C27 VFQ 6 621     -34.357 130.355   8.542  1.00 17.25     0.009 C 
HETATM   30  C28 VFQ 6 621     -35.284 131.302   8.300  1.00 17.01     0.007 C 
HETATM   31  C29 VFQ 6 621     -35.972 132.122   9.274  1.00 27.76    -0.062 C 
HETATM   32  C30 VFQ 6 621     -36.984 132.869   8.825  1.00 27.76     0.007 C 
HETATM   33  C31 VFQ 6 621     -37.821 133.740   9.637  1.00 27.76     0.001 C 
HETATM   34  C32 VFQ 6 621     -38.555 134.605   8.947  1.00 27.76     0.007 C 
HETATM   35  C33 VFQ 6 621     -39.492 135.554   9.558  1.00 27.76    -0.062 C 
HETATM   36  C34 VFQ 6 621     -40.044 136.520   8.807  1.00 27.76     0.007 C 
HETATM   37  C35 VFQ 6 621     -41.004 137.457   9.388  1.00 27.76     0.001 C 
HETATM   38  C36 VFQ 6 621     -34.049 127.282   8.433  1.00 16.04     0.020 C 
HETATM   39  C37 VFQ 6 621     -35.449 128.165   6.605  1.00 17.79     0.020 C 
HETATM   40  C38 VFQ 6 621     -31.832 131.512   7.104  1.00 17.18     0.044 C 
HETATM   41  C39 VFQ 6 621     -35.559 132.111  10.715  1.00 27.76     0.048 C 
HETATM   42  C40 VFQ 6 621     -39.836 135.400  11.002  1.00 27.76     0.048 C 
HETATM   43  O23 VFQ 6 621     -31.189 127.377   4.729  1.00 19.31    -0.395 OA
ATOM     44  H23 VFQ 6 621     -30.289 127.663   4.630  1.00  0.00     0.210 HD
ENDROOT
TORSDOF 12
