REMARK VINA RESULT:    -8.690      0.598     16.944
REMARK INTER + INTRA:          -9.037
REMARK INTER:                  -8.580
REMARK INTRA:                  -0.456
REMARK UNBOUND:                -0.346
REMARK  0 active torsions:
REMARK  status: ('A' for Active; 'I' for Inactive)
REMARK       I    between atoms: C3_3  and  O3_21 
REMARK       I    between atoms: C6_6  and  C7_7 
REMARK       I    between atoms: C8_8  and  C9_9 
REMARK       I    between atoms: C10_10  and  C11_11 
REMARK       I    between atoms: C12_12  and  C13_13 
REMARK       I    between atoms: C14_14  and  C15_15 
REMARK       I    between atoms: C23_25  and  O23_43 
REMARK       I    between atoms: C26_28  and  C27_29 
REMARK       I    between atoms: C28_30  and  C29_31 
REMARK       I    between atoms: C30_32  and  C31_33 
REMARK       I    between atoms: C32_34  and  C33_35 
REMARK       I    between atoms: C34_36  and  C35_37 
ROOT
HETATM    1  C1  VFQ D3620     -50.447 145.266  10.825  1.00 21.49    -0.018 C 
HETATM    2  C2  VFQ D3620     -51.234 145.848  12.020  1.00 21.50     0.045 C 
HETATM    3  C3  VFQ D3620     -50.656 147.035  12.799  1.00 22.37     0.123 C 
HETATM    4  C4  VFQ D3620     -49.528 147.794  12.095  1.00 21.17     0.066 C 
HETATM    5  C5  VFQ D3620     -48.681 147.086  11.089  1.00 19.70    -0.074 C 
HETATM    6  C6  VFQ D3620     -49.075 145.909  10.480  1.00 20.41    -0.048 C 
HETATM    7  C7  VFQ D3620     -48.232 145.216   9.485  1.00 19.41     0.009 C 
HETATM    8  C8  VFQ D3620     -47.162 144.441   9.714  1.00 18.90     0.007 C 
HETATM    9  C9  VFQ D3620     -46.247 143.874   8.720  1.00 20.60    -0.062 C 
HETATM   10  C10 VFQ D3620     -45.291 143.030   9.162  1.00 18.78     0.007 C 
HETATM   11  C11 VFQ D3620     -44.308 142.356   8.370  1.00 19.97     0.001 C 
HETATM   12  C12 VFQ D3620     -43.541 141.412   8.940  1.00 23.02     0.007 C 
HETATM   13  C13 VFQ D3620     -42.508 140.575   8.326  1.00 23.57    -0.062 C 
HETATM   14  C14 VFQ D3620     -41.949 139.615   9.094  1.00 23.43     0.007 C 
HETATM   15  C15 VFQ D3620     -40.984 138.629   8.701  1.00 24.57     0.001 C 
HETATM   16  C16 VFQ D3620     -51.419 145.451   9.643  1.00 19.84     0.020 C 
HETATM   17  C17 VFQ D3620     -50.277 143.746  11.081  1.00 19.63     0.020 C 
HETATM   18  C18 VFQ D3620     -47.437 147.882  10.915  1.00 19.29     0.044 C 
HETATM   19  C19 VFQ D3620     -46.460 144.229   7.265  1.00 18.57     0.048 C 
HETATM   20  C20 VFQ D3620     -42.197 140.796   6.878  1.00 22.43     0.048 C 
HETATM   21  O3  VFQ D3620     -51.689 147.932  13.167  1.00 22.38    -0.395 OA
ATOM     22  H3  VFQ D3620     -51.331 148.669  13.650  1.00  0.00     0.210 HD
HETATM   23  C21 VFQ D3620     -34.044 128.310   6.829  1.00 26.49    -0.018 C 
HETATM   24  C22 VFQ D3620     -33.003 127.499   6.062  1.00 26.49     0.045 C 
HETATM   25  C23 VFQ D3620     -31.549 127.921   6.209  1.00 26.49     0.123 C 
HETATM   26  C24 VFQ D3620     -31.444 129.431   6.215  1.00 26.49     0.066 C 
HETATM   27  C25 VFQ D3620     -32.238 129.927   7.387  1.00 26.49    -0.074 C 
HETATM   28  C26 VFQ D3620     -33.479 129.477   7.623  1.00 26.49    -0.048 C 
HETATM   29  C27 VFQ D3620     -34.292 130.117   8.697  1.00 26.49     0.009 C 
HETATM   30  C28 VFQ D3620     -35.103 131.149   8.452  1.00 26.49     0.007 C 
HETATM   31  C29 VFQ D3620     -35.941 131.861   9.459  1.00 31.15    -0.062 C 
HETATM   32  C30 VFQ D3620     -36.693 132.898   9.033  1.00 29.00     0.007 C 
HETATM   33  C31 VFQ D3620     -37.562 133.706   9.833  1.00 26.88     0.001 C 
HETATM   34  C32 VFQ D3620     -38.221 134.740   9.300  1.00 27.02     0.007 C 
HETATM   35  C33 VFQ D3620     -39.128 135.693   9.948  1.00 27.13    -0.062 C 
HETATM   36  C34 VFQ D3620     -39.653 136.675   9.182  1.00 25.88     0.007 C 
HETATM   37  C35 VFQ D3620     -40.560 137.713   9.579  1.00 25.96     0.001 C 
HETATM   38  C36 VFQ D3620     -34.709 127.370   7.816  1.00 26.49     0.020 C 
HETATM   39  C37 VFQ D3620     -35.088 128.775   5.823  1.00 26.49     0.020 C 
HETATM   40  C38 VFQ D3620     -31.561 130.917   8.287  1.00 26.49     0.044 C 
HETATM   41  C39 VFQ D3620     -35.888 131.399  10.887  1.00 30.08     0.048 C 
HETATM   42  C40 VFQ D3620     -39.400 135.518  11.414  1.00 24.80     0.048 C 
HETATM   43  O23 VFQ D3620     -30.793 127.384   5.120  1.00 26.49    -0.395 OA
ATOM     44  H23 VFQ D3620     -29.885 127.648   5.211  1.00  0.00     0.210 HD
ENDROOT
TORSDOF 12
