REMARK VINA RESULT:   -10.987      0.000      0.000
REMARK INTER + INTRA:         -11.597
REMARK INTER:                 -10.987
REMARK INTRA:                  -0.610
REMARK UNBOUND:                -0.610
REMARK  0 active torsions:
REMARK  status: ('A' for Active; 'I' for Inactive)
REMARK       I    between atoms: C3_3  and  O3_21 
REMARK       I    between atoms: C6_6  and  C7_7 
REMARK       I    between atoms: C8_8  and  C9_9 
REMARK       I    between atoms: C10_10  and  C11_11 
REMARK       I    between atoms: C12_12  and  C13_13 
REMARK       I    between atoms: C14_14  and  C15_15 
REMARK       I    between atoms: C23_25  and  O23_43 
REMARK       I    between atoms: C26_28  and  C27_29 
REMARK       I    between atoms: C28_30  and  C29_31 
REMARK       I    between atoms: C30_32  and  C31_33 
REMARK       I    between atoms: C32_34  and  C33_35 
REMARK       I    between atoms: C34_36  and  C35_37 
ROOT
HETATM    1  C1  VFQ 7 622     -50.451 144.367  10.054  1.00 13.75    -0.018 C 
HETATM    2  C2  VFQ 7 622     -51.577 144.925  10.911  1.00 13.75     0.045 C 
HETATM    3  C3  VFQ 7 622     -51.092 145.771  12.066  1.00 13.75     0.123 C 
HETATM    4  C4  VFQ 7 622     -50.248 146.889  11.517  1.00 13.75     0.066 C 
HETATM    5  C5  VFQ 7 622     -49.074 146.315  10.782  1.00 13.75    -0.074 C 
HETATM    6  C6  VFQ 7 622     -49.172 145.191  10.051  1.00 13.75    -0.048 C 
HETATM    7  C7  VFQ 7 622     -48.077 144.709   9.161  1.00 13.75     0.009 C 
HETATM    8  C8  VFQ 7 622     -46.984 144.052   9.571  1.00 13.75     0.007 C 
HETATM    9  C9  VFQ 7 622     -45.957 143.576   8.624  1.00 13.75    -0.062 C 
HETATM   10  C10 VFQ 7 622     -45.098 142.648   9.065  1.00 13.75     0.007 C 
HETATM   11  C11 VFQ 7 622     -44.038 142.030   8.275  1.00 13.75     0.001 C 
HETATM   12  C12 VFQ 7 622     -43.537 140.921   8.806  1.00 13.75     0.007 C 
HETATM   13  C13 VFQ 7 622     -42.484 140.070   8.229  1.00 13.75    -0.062 C 
HETATM   14  C14 VFQ 7 622     -41.960 139.117   9.016  1.00 13.75     0.007 C 
HETATM   15  C15 VFQ 7 622     -40.943 138.182   8.561  1.00 13.75     0.001 C 
HETATM   16  C16 VFQ 7 622     -51.015 144.226   8.648  1.00 13.75     0.020 C 
HETATM   17  C17 VFQ 7 622     -50.090 142.992  10.594  1.00 13.75     0.020 C 
HETATM   18  C18 VFQ 7 622     -47.915 147.252  10.697  1.00 13.75     0.044 C 
HETATM   19  C19 VFQ 7 622     -45.892 144.106   7.224  1.00 13.75     0.048 C 
HETATM   20  C20 VFQ 7 622     -42.041 140.231   6.806  1.00 13.75     0.048 C 
HETATM   21  O3  VFQ 7 622     -52.210 146.326  12.761  1.00 13.75    -0.395 OA
ATOM     22  H3  VFQ 7 622     -52.742 145.620  13.108  1.00  0.00     0.210 HD
HETATM   23  C21 VFQ 7 622     -34.027 128.482   7.197  1.00 33.88    -0.018 C 
HETATM   24  C22 VFQ 7 622     -33.185 127.673   6.222  1.00 33.88     0.045 C 
HETATM   25  C23 VFQ 7 622     -31.719 128.049   6.196  1.00 33.88     0.123 C 
HETATM   26  C24 VFQ 7 622     -31.643 129.530   5.898  1.00 33.88     0.066 C 
HETATM   27  C25 VFQ 7 622     -32.342 130.297   6.990  1.00 33.88    -0.074 C 
HETATM   28  C26 VFQ 7 622     -33.255 129.681   7.748  1.00 33.88    -0.048 C 
HETATM   29  C27 VFQ 7 622     -33.765 130.318   8.970  1.00 33.88     0.009 C 
HETATM   30  C28 VFQ 7 622     -34.882 130.983   8.647  1.00 33.88     0.007 C 
HETATM   31  C29 VFQ 7 622     -35.647 131.804   9.607  1.00 13.75    -0.062 C 
HETATM   32  C30 VFQ 7 622     -36.682 132.485   9.102  1.00 13.75     0.007 C 
HETATM   33  C31 VFQ 7 622     -37.577 133.333   9.876  1.00 13.75     0.001 C 
HETATM   34  C32 VFQ 7 622     -38.198 134.280   9.186  1.00 13.75     0.007 C 
HETATM   35  C33 VFQ 7 622     -39.158 135.235   9.760  1.00 13.75    -0.062 C 
HETATM   36  C34 VFQ 7 622     -39.634 136.188   8.948  1.00 13.75     0.007 C 
HETATM   37  C35 VFQ 7 622     -40.615 137.177   9.370  1.00 13.75     0.001 C 
HETATM   38  C36 VFQ 7 622     -34.352 127.557   8.367  1.00 33.88     0.020 C 
HETATM   39  C37 VFQ 7 622     -35.317 128.795   6.442  1.00 33.88     0.020 C 
HETATM   40  C38 VFQ 7 622     -31.983 131.752   7.150  1.00 33.88     0.044 C 
HETATM   41  C39 VFQ 7 622     -35.296 131.854  11.060  1.00 13.75     0.048 C 
HETATM   42  C40 VFQ 7 622     -39.594 135.131  11.189  1.00 13.75     0.048 C 
HETATM   43  O23 VFQ 7 622     -31.113 127.297   5.139  1.00 33.88    -0.395 OA
ATOM     44  H23 VFQ 7 622     -30.193 127.533   5.123  1.00  0.00     0.210 HD
ENDROOT
TORSDOF 12
