REMARK VINA RESULT:   -10.594      0.000      0.000
REMARK INTER + INTRA:         -11.080
REMARK INTER:                 -10.594
REMARK INTRA:                  -0.486
REMARK UNBOUND:                -0.486
REMARK  0 active torsions:
REMARK  status: ('A' for Active; 'I' for Inactive)
REMARK       I    between atoms: C3_3  and  O3_21 
REMARK       I    between atoms: C6_6  and  C7_7 
REMARK       I    between atoms: C8_8  and  C9_9 
REMARK       I    between atoms: C10_10  and  C11_11 
REMARK       I    between atoms: C12_12  and  C13_13 
REMARK       I    between atoms: C14_14  and  C15_15 
REMARK       I    between atoms: C23_25  and  O23_43 
REMARK       I    between atoms: C26_28  and  C27_29 
REMARK       I    between atoms: C28_30  and  C29_31 
REMARK       I    between atoms: C30_32  and  C31_33 
REMARK       I    between atoms: C32_34  and  C33_35 
REMARK       I    between atoms: C34_36  and  C35_37 
ROOT
HETATM    1  C1  VFQ H7621     -50.820 145.699   9.551  1.00 22.61    -0.018 C 
HETATM    2  C2  VFQ H7621     -51.751 146.265  10.638  1.00 23.33     0.045 C 
HETATM    3  C3  VFQ H7621     -51.327 147.469  11.485  1.00 24.77     0.123 C 
HETATM    4  C4  VFQ H7621     -50.011 148.151  11.076  1.00 22.10     0.066 C 
HETATM    5  C5  VFQ H7621     -49.077 147.471  10.133  1.00 21.89    -0.074 C 
HETATM    6  C6  VFQ H7621     -49.405 146.348   9.407  1.00 21.83    -0.048 C 
HETATM    7  C7  VFQ H7621     -48.487 145.673   8.462  1.00 21.27     0.009 C 
HETATM    8  C8  VFQ H7621     -47.503 144.817   8.825  1.00 20.16     0.007 C 
HETATM    9  C9  VFQ H7621     -46.559 144.119   7.965  1.00 19.98    -0.062 C 
HETATM   10  C10 VFQ H7621     -45.749 143.202   8.541  1.00 19.41     0.007 C 
HETATM   11  C11 VFQ H7621     -44.816 142.337   7.861  1.00 19.37     0.001 C 
HETATM   12  C12 VFQ H7621     -44.100 141.384   8.493  1.00 19.06     0.007 C 
HETATM   13  C13 VFQ H7621     -43.196 140.402   7.872  1.00 20.91    -0.062 C 
HETATM   14  C14 VFQ H7621     -42.594 139.498   8.676  1.00 20.64     0.007 C 
HETATM   15  C15 VFQ H7621     -41.728 138.426   8.274  1.00 20.44     0.001 C 
HETATM   16  C16 VFQ H7621     -51.631 145.884   8.260  1.00 21.21     0.020 C 
HETATM   17  C17 VFQ H7621     -50.703 144.179   9.796  1.00 21.56     0.020 C 
HETATM   18  C18 VFQ H7621     -47.812 148.237  10.113  1.00 21.82     0.044 C 
HETATM   19  C19 VFQ H7621     -46.608 144.402   6.492  1.00 18.20     0.048 C 
HETATM   20  C20 VFQ H7621     -43.028 140.442   6.372  1.00 20.18     0.048 C 
HETATM   21  O3  VFQ H7621     -52.381 148.426  11.546  1.00 25.40    -0.395 OA
ATOM     22  H3  VFQ H7621     -52.118 149.173  12.071  1.00  0.00     0.210 HD
HETATM   23  C21 VFQ H7621     -33.995 128.340   7.361  1.00 94.67    -0.018 C 
HETATM   24  C22 VFQ H7621     -32.987 127.465   6.628  1.00 94.67     0.045 C 
HETATM   25  C23 VFQ H7621     -31.622 128.069   6.375  1.00 94.67     0.123 C 
HETATM   26  C24 VFQ H7621     -31.795 129.485   5.895  1.00 94.67     0.066 C 
HETATM   27  C25 VFQ H7621     -32.510 130.288   6.937  1.00 94.67    -0.074 C 
HETATM   28  C26 VFQ H7621     -33.537 129.764   7.609  1.00 94.67    -0.048 C 
HETATM   29  C27 VFQ H7621     -34.257 130.557   8.634  1.00 94.67     0.009 C 
HETATM   30  C28 VFQ H7621     -35.291 131.330   8.307  1.00 94.67     0.007 C 
HETATM   31  C29 VFQ H7621     -36.071 132.136   9.279  1.00 24.75    -0.062 C 
HETATM   32  C30 VFQ H7621     -37.063 132.911   8.787  1.00 23.92     0.007 C 
HETATM   33  C31 VFQ H7621     -37.906 133.803   9.536  1.00 24.21     0.001 C 
HETATM   34  C32 VFQ H7621     -38.752 134.670   8.933  1.00 22.58     0.007 C 
HETATM   35  C33 VFQ H7621     -39.613 135.685   9.567  1.00 22.21    -0.062 C 
HETATM   36  C34 VFQ H7621     -40.303 136.520   8.759  1.00 21.24     0.007 C 
HETATM   37  C35 VFQ H7621     -41.158 137.611   9.163  1.00 22.03     0.001 C 
HETATM   38  C36 VFQ H7621     -34.249 127.707   8.721  1.00 94.67     0.020 C 
HETATM   39  C37 VFQ H7621     -35.267 128.307   6.521  1.00 94.67     0.020 C 
HETATM   40  C38 VFQ H7621     -32.001 131.680   7.172  1.00 94.67     0.044 C 
HETATM   41  C39 VFQ H7621     -35.667 132.099  10.726  1.00 25.35     0.048 C 
HETATM   42  C40 VFQ H7621     -39.611 135.778  11.070  1.00 19.46     0.048 C 
HETATM   43  O23 VFQ H7621     -30.976 127.325   5.342  1.00 94.67    -0.395 OA
ATOM     44  H23 VFQ H7621     -30.119 127.704   5.183  1.00  0.00     0.210 HD
ENDROOT
TORSDOF 12
