REMARK VINA RESULT:   -10.108      1.585      2.537
REMARK INTER + INTRA:         -10.395
REMARK INTER:                  -8.360
REMARK INTRA:                  -2.035
REMARK UNBOUND:                -0.287
REMARK  0 active torsions:
REMARK  status: ('A' for Active; 'I' for Inactive)
REMARK       I    between atoms: C3_3  and  O3_21 
REMARK       I    between atoms: C6_6  and  C7_7 
REMARK       I    between atoms: C8_8  and  C9_9 
REMARK       I    between atoms: C10_10  and  C11_11 
REMARK       I    between atoms: C12_12  and  C13_13 
REMARK       I    between atoms: C14_14  and  C15_15 
REMARK       I    between atoms: C23_25  and  O23_43 
REMARK       I    between atoms: C26_28  and  C27_29 
REMARK       I    between atoms: C28_30  and  C29_31 
REMARK       I    between atoms: C30_32  and  C31_33 
REMARK       I    between atoms: C32_34  and  C33_35 
REMARK       I    between atoms: C34_36  and  C35_37 
ROOT
HETATM    1  C1  VFQ 61620     -48.877 145.638   9.312  1.00 97.95    -0.018 C 
HETATM    2  C2  VFQ 61620     -50.267 145.509   9.925  1.00 97.95     0.045 C 
HETATM    3  C3  VFQ 61620     -50.390 145.723  11.424  1.00 97.95     0.123 C 
HETATM    4  C4  VFQ 61620     -49.454 146.805  11.912  1.00 97.95     0.066 C 
HETATM    5  C5  VFQ 61620     -48.052 146.445  11.523  1.00 97.95    -0.074 C 
HETATM    6  C6  VFQ 61620     -47.779 145.940  10.314  1.00 97.95    -0.048 C 
HETATM    7  C7  VFQ 61620     -46.379 145.659   9.914  1.00 97.95     0.009 C 
HETATM    8  C8  VFQ 61620     -45.811 144.480  10.162  1.00 97.95     0.007 C 
HETATM    9  C9  VFQ 61620     -44.437 144.169   9.764  1.00 97.95    -0.062 C 
HETATM   10  C10 VFQ 61620     -44.019 142.927   9.990  1.00 97.95     0.007 C 
HETATM   11  C11 VFQ 61620     -42.692 142.451   9.642  1.00 97.95     0.001 C 
HETATM   12  C12 VFQ 61620     -42.476 141.186   9.957  1.00 97.95     0.007 C 
HETATM   13  C13 VFQ 61620     -41.220 140.482   9.673  1.00 97.95    -0.062 C 
HETATM   14  C14 VFQ 61620     -41.281 139.154   9.748  1.00 97.95     0.007 C 
HETATM   15  C15 VFQ 61620     -40.153 138.289   9.460  1.00 97.95     0.001 C 
HETATM   16  C16 VFQ 61620     -48.965 146.719   8.239  1.00 97.95     0.020 C 
HETATM   17  C17 VFQ 61620     -48.531 144.313   8.644  1.00 97.95     0.020 C 
HETATM   18  C18 VFQ 61620     -46.987 146.811  12.514  1.00 97.95     0.044 C 
HETATM   19  C19 VFQ 61620     -43.555 145.202   9.132  1.00 97.95     0.048 C 
HETATM   20  C20 VFQ 61620     -39.960 141.206   9.306  1.00 97.95     0.048 C 
HETATM   21  O3  VFQ 61620     -51.730 146.127  11.728  1.00 97.95    -0.395 OA
ATOM     22  H3  VFQ 61620     -51.807 146.261  12.665  1.00  0.00     0.210 HD
HETATM   23  C21 VFQ 61620     -34.441 127.502   5.674  1.00 35.06    -0.018 C 
HETATM   24  C22 VFQ 61620     -33.074 126.847   5.472  1.00 35.06     0.045 C 
HETATM   25  C23 VFQ 61620     -31.874 127.678   5.914  1.00 35.06     0.123 C 
HETATM   26  C24 VFQ 61620     -32.246 129.146   5.991  1.00 35.06     0.066 C 
HETATM   27  C25 VFQ 61620     -33.343 129.228   7.010  1.00 35.06    -0.074 C 
HETATM   28  C26 VFQ 61620     -34.452 128.523   6.786  1.00 35.06    -0.048 C 
HETATM   29  C27 VFQ 61620     -35.729 128.830   7.456  1.00 35.06     0.009 C 
HETATM   30  C28 VFQ 61620     -36.021 130.122   7.591  1.00 35.06     0.007 C 
HETATM   31  C29 VFQ 61620     -37.356 130.551   8.056  1.00 97.95    -0.062 C 
HETATM   32  C30 VFQ 61620     -37.518 131.868   8.126  1.00 97.95     0.007 C 
HETATM   33  C31 VFQ 61620     -38.736 132.539   8.538  1.00 97.95     0.001 C 
HETATM   34  C32 VFQ 61620     -38.610 133.854   8.528  1.00 97.95     0.007 C 
HETATM   35  C33 VFQ 61620     -39.697 134.760   8.891  1.00 97.95    -0.062 C 
HETATM   36  C34 VFQ 61620     -39.434 136.066   8.862  1.00 97.95     0.007 C 
HETATM   37  C35 VFQ 61620     -40.466 137.030   9.193  1.00 97.95     0.001 C 
HETATM   38  C36 VFQ 61620     -35.492 126.438   5.947  1.00 35.06     0.020 C 
HETATM   39  C37 VFQ 61620     -34.819 128.264   4.409  1.00 35.06     0.020 C 
HETATM   40  C38 VFQ 61620     -33.068 129.973   8.293  1.00 35.06     0.044 C 
HETATM   41  C39 VFQ 61620     -38.446 129.586   8.410  1.00 97.95     0.048 C 
HETATM   42  C40 VFQ 61620     -41.041 134.229   9.278  1.00 97.95     0.048 C 
HETATM   43  O23 VFQ 61620     -30.804 127.522   4.976  1.00 35.06    -0.395 OA
ATOM     44  H23 VFQ 61620     -30.056 128.039   5.250  1.00  0.00     0.210 HD
ENDROOT
TORSDOF 12
