REMARK VINA RESULT:   -11.771      0.000      0.000
REMARK INTER + INTRA:         -12.073
REMARK INTER:                 -11.771
REMARK INTRA:                  -0.302
REMARK UNBOUND:                -0.302
REMARK  0 active torsions:
REMARK  status: ('A' for Active; 'I' for Inactive)
REMARK       I    between atoms: C3_3  and  O3_21 
REMARK       I    between atoms: C6_6  and  C7_7 
REMARK       I    between atoms: C8_8  and  C9_9 
REMARK       I    between atoms: C10_10  and  C11_11 
REMARK       I    between atoms: C12_12  and  C13_13 
REMARK       I    between atoms: C14_14  and  C15_15 
REMARK       I    between atoms: C23_25  and  O23_43 
REMARK       I    between atoms: C26_28  and  C27_29 
REMARK       I    between atoms: C28_30  and  C29_31 
REMARK       I    between atoms: C30_32  and  C31_33 
REMARK       I    between atoms: C32_34  and  C33_35 
REMARK       I    between atoms: C34_36  and  C35_37 
ROOT
HETATM    1  C1  VFQ g1620     -34.185 128.168   6.955  1.00 66.61    -0.018 C 
HETATM    2  C2  VFQ g1620     -33.447 127.737   5.692  1.00 66.61     0.045 C 
HETATM    3  C3  VFQ g1620     -32.142 128.437   5.348  1.00 66.61     0.123 C 
HETATM    4  C4  VFQ g1620     -31.390 128.856   6.593  1.00 66.61     0.066 C 
HETATM    5  C5  VFQ g1620     -32.288 129.702   7.449  1.00 66.61    -0.074 C 
HETATM    6  C6  VFQ g1620     -33.555 129.342   7.681  1.00 66.61    -0.048 C 
HETATM    7  C7  VFQ g1620     -34.377 130.078   8.676  1.00 66.61     0.009 C 
HETATM    8  C8  VFQ g1620     -35.069 131.169   8.341  1.00 66.61     0.007 C 
HETATM    9  C9  VFQ g1620     -35.898 131.906   9.303  1.00 66.61    -0.062 C 
HETATM   10  C10 VFQ g1620     -36.478 133.031   8.876  1.00 66.61     0.007 C 
HETATM   11  C11 VFQ g1620     -37.336 133.851   9.716  1.00 66.61     0.001 C 
HETATM   12  C12 VFQ g1620     -37.999 134.808   9.082  1.00 66.61     0.007 C 
HETATM   13  C13 VFQ g1620     -38.928 135.726   9.753  1.00 66.61    -0.062 C 
HETATM   14  C14 VFQ g1620     -39.630 136.563   8.984  1.00 66.61     0.007 C 
HETATM   15  C15 VFQ g1620     -40.597 137.499   9.536  1.00 66.61     0.001 C 
HETATM   16  C16 VFQ g1620     -34.281 126.951   7.867  1.00 66.61     0.020 C 
HETATM   17  C17 VFQ g1620     -35.591 128.573   6.545  1.00 66.61     0.020 C 
HETATM   18  C18 VFQ g1620     -31.575 130.732   8.276  1.00 66.61     0.044 C 
HETATM   19  C19 VFQ g1620     -36.090 131.400  10.701  1.00 66.61     0.048 C 
HETATM   20  C20 VFQ g1620     -39.084 135.717  11.244  1.00 66.61     0.048 C 
HETATM   21  O3  VFQ g1620     -31.323 127.528   4.607  1.00 66.61    -0.395 OA
ATOM     22  H3  VFQ g1620     -31.795 127.265   3.825  1.00  0.00     0.210 HD
HETATM   23  C21 VFQ g1620     -50.489 144.912   9.735  1.00 70.34    -0.018 C 
HETATM   24  C22 VFQ g1620     -51.676 145.789  10.077  1.00 70.34     0.045 C 
HETATM   25  C23 VFQ g1620     -51.401 146.976  10.985  1.00 70.34     0.123 C 
HETATM   26  C24 VFQ g1620     -50.143 147.732  10.600  1.00 70.34     0.066 C 
HETATM   27  C25 VFQ g1620     -49.054 146.941   9.934  1.00 70.34    -0.074 C 
HETATM   28  C26 VFQ g1620     -49.225 145.700   9.471  1.00 70.34    -0.048 C 
HETATM   29  C27 VFQ g1620     -48.186 145.057   8.633  1.00 70.34     0.009 C 
HETATM   30  C28 VFQ g1620     -47.243 144.267   9.136  1.00 70.34     0.007 C 
HETATM   31  C29 VFQ g1620     -46.238 143.617   8.290  1.00 66.61    -0.062 C 
HETATM   32  C30 VFQ g1620     -45.598 142.571   8.819  1.00 66.61     0.007 C 
HETATM   33  C31 VFQ g1620     -44.584 141.789   8.126  1.00 66.61     0.001 C 
HETATM   34  C32 VFQ g1620     -43.977 140.863   8.855  1.00 66.61     0.007 C 
HETATM   35  C33 VFQ g1620     -42.947 139.968   8.315  1.00 66.61    -0.062 C 
HETATM   36  C34 VFQ g1620     -42.360 139.108   9.153  1.00 66.61     0.007 C 
HETATM   37  C35 VFQ g1620     -41.350 138.175   8.677  1.00 66.61     0.001 C 
HETATM   38  C36 VFQ g1620     -50.852 144.177   8.452  1.00 70.34     0.020 C 
HETATM   39  C37 VFQ g1620     -50.288 143.900  10.853  1.00 70.34     0.020 C 
HETATM   40  C38 VFQ g1620     -47.746 147.666   9.807  1.00 70.34     0.044 C 
HETATM   41  C39 VFQ g1620     -45.952 144.105   6.902  1.00 66.61     0.048 C 
HETATM   42  C40 VFQ g1620     -42.591 140.020   6.859  1.00 66.61     0.048 C 
HETATM   43  O23 VFQ g1620     -51.339 146.582  12.357  1.00 70.34    -0.395 OA
ATOM     44  H23 VFQ g1620     -51.167 147.325  12.924  1.00  0.00     0.210 HD
ENDROOT
TORSDOF 12
