REMARK VINA RESULT:   -10.763      0.551      0.935
REMARK INTER + INTRA:         -11.109
REMARK INTER:                  -9.013
REMARK INTRA:                  -2.097
REMARK UNBOUND:                -0.346
REMARK  0 active torsions:
REMARK  status: ('A' for Active; 'I' for Inactive)
REMARK       I    between atoms: C3_3  and  O3_21 
REMARK       I    between atoms: C6_6  and  C7_7 
REMARK       I    between atoms: C8_8  and  C9_9 
REMARK       I    between atoms: C10_10  and  C11_11 
REMARK       I    between atoms: C12_12  and  C13_13 
REMARK       I    between atoms: C14_14  and  C15_15 
REMARK       I    between atoms: C23_25  and  O23_43 
REMARK       I    between atoms: C26_28  and  C27_29 
REMARK       I    between atoms: C28_30  and  C29_31 
REMARK       I    between atoms: C30_32  and  C31_33 
REMARK       I    between atoms: C32_34  and  C33_35 
REMARK       I    between atoms: C34_36  and  C35_37 
ROOT
HETATM    1  C1  VFQ 4 616     -34.420 127.572   6.716  1.00 72.69    -0.018 C 
HETATM    2  C2  VFQ 4 616     -33.853 127.095   5.380  1.00 72.50     0.045 C 
HETATM    3  C3  VFQ 4 616     -32.548 127.719   4.894  1.00 72.53     0.123 C 
HETATM    4  C4  VFQ 4 616     -31.667 128.183   6.041  1.00 73.67     0.066 C 
HETATM    5  C5  VFQ 4 616     -32.456 129.083   6.951  1.00 74.71    -0.074 C 
HETATM    6  C6  VFQ 4 616     -33.686 128.743   7.333  1.00 74.26    -0.048 C 
HETATM    7  C7  VFQ 4 616     -34.392 129.530   8.370  1.00 75.37     0.009 C 
HETATM    8  C8  VFQ 4 616     -35.029 130.649   8.027  1.00 77.10     0.007 C 
HETATM    9  C9  VFQ 4 616     -35.764 131.470   9.009  1.00 78.39    -0.062 C 
HETATM   10  C10 VFQ 4 616     -36.420 132.556   8.572  1.00 81.08     0.007 C 
HETATM   11  C11 VFQ 4 616     -37.195 133.428   9.453  1.00 84.31     0.001 C 
HETATM   12  C12 VFQ 4 616     -37.975 134.335   8.867  1.00 87.06     0.007 C 
HETATM   13  C13 VFQ 4 616     -38.839 135.275   9.605  1.00 89.04    -0.062 C 
HETATM   14  C14 VFQ 4 616     -39.658 136.061   8.886  1.00 90.91     0.007 C 
HETATM   15  C15 VFQ 4 616     -40.588 137.014   9.486  1.00 91.21     0.001 C 
HETATM   16  C16 VFQ 4 616     -34.387 126.403   7.691  1.00 72.40     0.020 C 
HETATM   17  C17 VFQ 4 616     -35.865 128.005   6.506  1.00 73.92     0.020 C 
HETATM   18  C18 VFQ 4 616     -31.667 130.106   7.714  1.00 74.98     0.044 C 
HETATM   19  C19 VFQ 4 616     -35.783 131.085  10.458  1.00 77.08     0.048 C 
HETATM   20  C20 VFQ 4 616     -38.816 135.341  11.104  1.00 88.60     0.048 C 
HETATM   21  O3  VFQ 4 616     -31.831 126.735   4.141  1.00 71.08    -0.395 OA
ATOM     22  H3  VFQ 4 616     -32.382 126.445   3.423  1.00  0.00     0.210 HD
HETATM   23  C21 VFQ 4 616     -50.550 144.563  10.723  1.00 57.79    -0.018 C 
HETATM   24  C22 VFQ 4 616     -51.382 145.275  11.775  1.00 59.26     0.045 C 
HETATM   25  C23 VFQ 4 616     -51.251 146.780  11.725  1.00 62.25     0.123 C 
HETATM   26  C24 VFQ 4 616     -49.810 147.156  11.959  1.00 57.83     0.066 C 
HETATM   27  C25 VFQ 4 616     -48.892 146.430  11.015  1.00 54.66    -0.074 C 
HETATM   28  C26 VFQ 4 616     -49.212 145.243  10.451  1.00 55.29    -0.048 C 
HETATM   29  C27 VFQ 4 616     -48.274 144.593   9.496  1.00 55.61     0.009 C 
HETATM   30  C28 VFQ 4 616     -47.269 143.810   9.890  1.00 56.19     0.007 C 
HETATM   31  C29 VFQ 4 616     -46.353 143.168   8.948  1.00 94.55    -0.062 C 
HETATM   32  C30 VFQ 4 616     -45.624 142.128   9.374  1.00 95.44     0.007 C 
HETATM   33  C31 VFQ 4 616     -44.688 141.389   8.527  1.00 95.37     0.001 C 
HETATM   34  C32 VFQ 4 616     -43.991 140.430   9.131  1.00 94.20     0.007 C 
HETATM   35  C33 VFQ 4 616     -43.014 139.549   8.467  1.00 92.43    -0.062 C 
HETATM   36  C34 VFQ 4 616     -42.298 138.712   9.236  1.00 91.40     0.007 C 
HETATM   37  C35 VFQ 4 616     -41.329 137.775   8.680  1.00 91.41     0.001 C 
HETATM   38  C36 VFQ 4 616     -51.324 144.551   9.414  1.00 58.39     0.020 C 
HETATM   39  C37 VFQ 4 616     -50.423 143.122  11.208  1.00 64.45     0.020 C 
HETATM   40  C38 VFQ 4 616     -47.600 147.153  10.772  1.00 58.11     0.044 C 
HETATM   41  C39 VFQ 4 616     -46.239 143.668   7.537  1.00 93.92     0.048 C 
HETATM   42  C40 VFQ 4 616     -42.840 139.576   6.978  1.00 91.99     0.048 C 
HETATM   43  O23 VFQ 4 616     -52.040 147.368  12.761  1.00 65.91    -0.395 OA
ATOM     44  H23 VFQ 4 616     -52.948 147.132  12.614  1.00  0.00     0.210 HD
ENDROOT
TORSDOF 12
