REMARK VINA RESULT:   -10.494      0.684      1.132
REMARK INTER + INTRA:         -12.041
REMARK INTER:                  -8.812
REMARK INTRA:                  -3.229
REMARK UNBOUND:                -1.547
REMARK  0 active torsions:
REMARK  status: ('A' for Active; 'I' for Inactive)
REMARK       I    between atoms: C3_3  and  O3_21 
REMARK       I    between atoms: C6_6  and  C7_7 
REMARK       I    between atoms: C8_8  and  C9_9 
REMARK       I    between atoms: C10_10  and  C11_11 
REMARK       I    between atoms: C12_12  and  C13_13 
REMARK       I    between atoms: C14_14  and  C15_15 
REMARK       I    between atoms: C23_25  and  O23_43 
REMARK       I    between atoms: C26_28  and  C27_29 
REMARK       I    between atoms: C28_30  and  C29_31 
REMARK       I    between atoms: C30_32  and  C31_33 
REMARK       I    between atoms: C32_34  and  C33_35 
REMARK       I    between atoms: C34_36  and  C35_37 
ROOT
HETATM    1  C1  VFQ 5 624     -34.410 126.931   6.185  1.00 23.68    -0.018 C 
HETATM    2  C2  VFQ 5 624     -33.996 126.306   4.856  1.00 23.68     0.045 C 
HETATM    3  C3  VFQ 5 624     -32.810 126.903   4.108  1.00 23.68     0.123 C 
HETATM    4  C4  VFQ 5 624     -31.828 127.574   5.049  1.00 23.68     0.066 C 
HETATM    5  C5  VFQ 5 624     -32.576 128.573   5.886  1.00 23.68    -0.074 C 
HETATM    6  C6  VFQ 5 624     -33.676 128.211   6.550  1.00 23.68    -0.048 C 
HETATM    7  C7  VFQ 5 624     -34.183 129.029   7.685  1.00 23.68     0.009 C 
HETATM    8  C8  VFQ 5 624     -34.973 130.095   7.522  1.00 23.68     0.007 C 
HETATM    9  C9  VFQ 5 624     -35.484 130.903   8.655  1.00 23.68    -0.062 C 
HETATM   10  C10 VFQ 5 624     -36.364 131.879   8.382  1.00 23.68     0.007 C 
HETATM   11  C11 VFQ 5 624     -37.010 132.779   9.337  1.00 23.68     0.001 C 
HETATM   12  C12 VFQ 5 624     -37.972 133.529   8.794  1.00 23.68     0.007 C 
HETATM   13  C13 VFQ 5 624     -38.856 134.520   9.443  1.00 23.68    -0.062 C 
HETATM   14  C14 VFQ 5 624     -39.630 135.270   8.641  1.00 23.68     0.007 C 
HETATM   15  C15 VFQ 5 624     -40.582 136.255   9.147  1.00 23.68     0.001 C 
HETATM   16  C16 VFQ 5 624     -34.207 125.859   7.242  1.00 23.68     0.020 C 
HETATM   17  C17 VFQ 5 624     -35.892 127.267   6.110  1.00 23.68     0.020 C 
HETATM   18  C18 VFQ 5 624     -31.607 129.562   6.458  1.00 23.68     0.044 C 
HETATM   19  C19 VFQ 5 624     -35.036 130.644  10.060  1.00 23.68     0.048 C 
HETATM   20  C20 VFQ 5 624     -38.912 134.671  10.931  1.00 23.68     0.048 C 
HETATM   21  O3  VFQ 5 624     -32.142 125.850   3.411  1.00 23.68    -0.395 OA
ATOM     22  H3  VFQ 5 624     -31.403 126.222   2.945  1.00  0.00     0.210 HD
HETATM   23  C21 VFQ 5 624     -49.887 145.329  10.190  1.00 27.99    -0.018 C 
HETATM   24  C22 VFQ 5 624     -50.983 145.785  11.163  1.00 27.99     0.045 C 
HETATM   25  C23 VFQ 5 624     -50.726 145.470  12.631  1.00 27.99     0.123 C 
HETATM   26  C24 VFQ 5 624     -50.143 144.073  12.729  1.00 27.99     0.066 C 
HETATM   27  C25 VFQ 5 624     -48.792 144.157  12.081  1.00 27.99    -0.074 C 
HETATM   28  C26 VFQ 5 624     -48.700 144.619  10.828  1.00 27.99    -0.048 C 
HETATM   29  C27 VFQ 5 624     -47.565 144.275   9.943  1.00 27.99     0.009 C 
HETATM   30  C28 VFQ 5 624     -47.063 143.035  10.024  1.00 27.99     0.007 C 
HETATM   31  C29 VFQ 5 624     -46.097 142.555   8.995  1.00 23.68    -0.062 C 
HETATM   32  C30 VFQ 5 624     -45.576 141.348   9.235  1.00 23.68     0.007 C 
HETATM   33  C31 VFQ 5 624     -44.633 140.651   8.371  1.00 23.68     0.001 C 
HETATM   34  C32 VFQ 5 624     -43.803 139.798   8.958  1.00 23.68     0.007 C 
HETATM   35  C33 VFQ 5 624     -42.815 138.995   8.223  1.00 23.68    -0.062 C 
HETATM   36  C34 VFQ 5 624     -42.155 138.048   8.909  1.00 23.68     0.007 C 
HETATM   37  C35 VFQ 5 624     -41.176 137.129   8.332  1.00 23.68     0.001 C 
HETATM   38  C36 VFQ 5 624     -49.450 146.532   9.358  1.00 27.99     0.020 C 
HETATM   39  C37 VFQ 5 624     -50.493 144.257   9.282  1.00 27.99     0.020 C 
HETATM   40  C38 VFQ 5 624     -47.588 143.842  12.924  1.00 27.99     0.044 C 
HETATM   41  C39 VFQ 5 624     -45.745 143.348   7.773  1.00 23.68     0.048 C 
HETATM   42  C40 VFQ 5 624     -42.582 139.243   6.764  1.00 23.68     0.048 C 
HETATM   43  O23 VFQ 5 624     -51.947 145.553  13.377  1.00 27.99    -0.395 OA
ATOM     44  H23 VFQ 5 624     -52.312 146.428  13.315  1.00  0.00     0.210 HD
ENDROOT
TORSDOF 12
