REMARK VINA RESULT:    -9.422      0.000      0.000
REMARK INTER + INTRA:         -11.957
REMARK INTER:                  -9.422
REMARK INTRA:                  -2.534
REMARK UNBOUND:                -2.534
REMARK  0 active torsions:
REMARK  status: ('A' for Active; 'I' for Inactive)
REMARK       I    between atoms: C3_3  and  O3_21 
REMARK       I    between atoms: C6_6  and  C7_7 
REMARK       I    between atoms: C8_8  and  C9_9 
REMARK       I    between atoms: C10_10  and  C11_11 
REMARK       I    between atoms: C12_12  and  C13_13 
REMARK       I    between atoms: C14_14  and  C15_15 
REMARK       I    between atoms: C23_25  and  O23_43 
REMARK       I    between atoms: C26_28  and  C27_29 
REMARK       I    between atoms: C28_30  and  C29_31 
REMARK       I    between atoms: C30_32  and  C31_33 
REMARK       I    between atoms: C32_34  and  C33_35 
REMARK       I    between atoms: C34_36  and  C35_37 
ROOT
HETATM    1  C1  VFQ 1 316     -34.435 126.965   6.380  1.00 73.24    -0.018 C 
HETATM    2  C2  VFQ 1 316     -34.000 126.369   5.039  1.00 72.84     0.045 C 
HETATM    3  C3  VFQ 1 316     -32.916 127.118   4.276  1.00 72.53     0.123 C 
HETATM    4  C4  VFQ 1 316     -31.835 127.589   5.231  1.00 72.61     0.066 C 
HETATM    5  C5  VFQ 1 316     -32.452 128.477   6.279  1.00 72.68    -0.074 C 
HETATM    6  C6  VFQ 1 316     -33.607 128.146   6.858  1.00 72.79    -0.048 C 
HETATM    7  C7  VFQ 1 316     -34.112 128.952   7.996  1.00 71.90     0.009 C 
HETATM    8  C8  VFQ 1 316     -34.800 130.075   7.777  1.00 71.51     0.007 C 
HETATM    9  C9  VFQ 1 316     -35.332 130.917   8.870  1.00 70.48    -0.062 C 
HETATM   10  C10 VFQ 1 316     -36.062 131.993   8.539  1.00 69.46     0.007 C 
HETATM   11  C11 VFQ 1 316     -36.662 132.918   9.499  1.00 69.85     0.001 C 
HETATM   12  C12 VFQ 1 316     -37.382 133.917   8.986  1.00 72.15     0.007 C 
HETATM   13  C13 VFQ 1 316     -38.080 134.943   9.789  1.00 73.74    -0.062 C 
HETATM   14  C14 VFQ 1 316     -38.968 135.732   9.157  1.00 74.04     0.007 C 
HETATM   15  C15 VFQ 1 316     -39.745 136.768   9.835  1.00 74.62     0.001 C 
HETATM   16  C16 VFQ 1 316     -34.358 125.865   7.432  1.00 72.68     0.020 C 
HETATM   17  C17 VFQ 1 316     -35.878 127.435   6.249  1.00 73.05     0.020 C 
HETATM   18  C18 VFQ 1 316     -31.570 129.532   6.882  1.00 72.13     0.044 C 
HETATM   19  C19 VFQ 1 316     -35.056 130.579  10.305  1.00 70.45     0.048 C 
HETATM   20  C20 VFQ 1 316     -37.803 135.100  11.258  1.00 72.89     0.048 C 
HETATM   21  O3  VFQ 1 316     -32.333 126.247   3.297  1.00 71.04    -0.395 OA
ATOM     22  H3  VFQ 1 316     -33.010 125.952   2.699  1.00  0.00     0.210 HD
HETATM   23  C21 VFQ 1 316     -49.323 145.117  12.089  1.00 23.07    -0.018 C 
HETATM   24  C22 VFQ 1 316     -50.004 146.154  13.000  1.00 21.39     0.045 C 
HETATM   25  C23 VFQ 1 316     -49.309 147.497  13.194  1.00 23.10     0.123 C 
HETATM   26  C24 VFQ 1 316     -47.783 147.447  13.077  1.00 23.25     0.066 C 
HETATM   27  C25 VFQ 1 316     -47.193 146.535  12.049  1.00 22.57    -0.074 C 
HETATM   28  C26 VFQ 1 316     -47.885 145.445  11.573  1.00 22.63    -0.048 C 
HETATM   29  C27 VFQ 1 316     -47.304 144.547  10.564  1.00 23.01     0.009 C 
HETATM   30  C28 VFQ 1 316     -46.387 143.588  10.797  1.00 21.85     0.007 C 
HETATM   31  C29 VFQ 1 316     -45.716 142.776   9.805  1.00 94.72    -0.062 C 
HETATM   32  C30 VFQ 1 316     -44.837 141.849  10.210  1.00 91.32     0.007 C 
HETATM   33  C31 VFQ 1 316     -44.115 140.958   9.304  1.00 87.88     0.001 C 
HETATM   34  C32 VFQ 1 316     -43.195 140.174   9.858  1.00 84.19     0.007 C 
HETATM   35  C33 VFQ 1 316     -42.388 139.191   9.114  1.00 80.79    -0.062 C 
HETATM   36  C34 VFQ 1 316     -41.455 138.490   9.782  1.00 78.84     0.007 C 
HETATM   37  C35 VFQ 1 316     -40.634 137.472   9.131  1.00 76.79     0.001 C 
HETATM   38  C36 VFQ 1 316     -50.274 144.850  10.900  1.00 21.40     0.020 C 
HETATM   39  C37 VFQ 1 316     -49.287 143.855  12.970  1.00 21.74     0.020 C 
HETATM   40  C38 VFQ 1 316     -45.837 147.035  11.694  1.00 21.99     0.044 C 
HETATM   41  C39 VFQ 1 316     -46.021 142.972   8.351  1.00 95.37     0.048 C 
HETATM   42  C40 VFQ 1 316     -42.628 138.967   7.651  1.00 90.13     0.048 C 
HETATM   43  O23 VFQ 1 316     -49.681 148.068  14.437  1.00 24.94    -0.395 OA
ATOM     44  H23 VFQ 1 316     -49.248 148.904  14.557  1.00  0.00     0.210 HD
ENDROOT
TORSDOF 12
