REMARK VINA RESULT:    -9.291      0.000      0.000
REMARK INTER + INTRA:         -12.353
REMARK INTER:                  -9.291
REMARK INTRA:                  -3.062
REMARK UNBOUND:                -3.062
REMARK  0 active torsions:
REMARK  status: ('A' for Active; 'I' for Inactive)
REMARK       I    between atoms: C3_3  and  O3_21 
REMARK       I    between atoms: C6_6  and  C7_7 
REMARK       I    between atoms: C8_8  and  C9_9 
REMARK       I    between atoms: C10_10  and  C11_11 
REMARK       I    between atoms: C12_12  and  C13_13 
REMARK       I    between atoms: C14_14  and  C15_15 
REMARK       I    between atoms: C23_25  and  O23_43 
REMARK       I    between atoms: C26_28  and  C27_29 
REMARK       I    between atoms: C28_30  and  C29_31 
REMARK       I    between atoms: C30_32  and  C31_33 
REMARK       I    between atoms: C32_34  and  C33_35 
REMARK       I    between atoms: C34_36  and  C35_37 
ROOT
HETATM    1  C1  VFQ J9621     -47.833 146.213  12.705  1.00 21.11    -0.018 C 
HETATM    2  C2  VFQ J9621     -48.413 146.763  14.020  1.00 20.11     0.045 C 
HETATM    3  C3  VFQ J9621     -47.733 147.939  14.719  1.00 19.41     0.123 C 
HETATM    4  C4  VFQ J9621     -46.421 148.430  14.090  1.00 18.39     0.066 C 
HETATM    5  C5  VFQ J9621     -45.760 147.700  12.969  1.00 18.34    -0.074 C 
HETATM    6  C6  VFQ J9621     -46.386 146.678  12.292  1.00 19.81    -0.048 C 
HETATM    7  C7  VFQ J9621     -45.815 145.942  11.141  1.00 19.02     0.009 C 
HETATM    8  C8  VFQ J9621     -44.932 144.929  11.234  1.00 17.97     0.007 C 
HETATM    9  C9  VFQ J9621     -44.330 144.158  10.142  1.00 18.85    -0.062 C 
HETATM   10  C10 VFQ J9621     -43.563 143.095  10.480  1.00 18.38     0.007 C 
HETATM   11  C11 VFQ J9621     -42.941 142.144   9.588  1.00 18.57     0.001 C 
HETATM   12  C12 VFQ J9621     -42.263 141.070  10.046  1.00 17.11     0.007 C 
HETATM   13  C13 VFQ J9621     -41.656 139.986   9.258  1.00 20.42    -0.062 C 
HETATM   14  C14 VFQ J9621     -41.050 138.978   9.926  1.00 20.50     0.007 C 
HETATM   15  C15 VFQ J9621     -40.440 137.804   9.350  1.00 20.22     0.001 C 
HETATM   16  C16 VFQ J9621     -48.872 146.641  11.639  1.00 19.56     0.020 C 
HETATM   17  C17 VFQ J9621     -47.894 144.677  12.838  1.00 18.49     0.020 C 
HETATM   18  C18 VFQ J9621     -44.439 148.324  12.706  1.00 16.89     0.044 C 
HETATM   19  C19 VFQ J9621     -44.669 144.558   8.734  1.00 14.61     0.048 C 
HETATM   20  C20 VFQ J9621     -41.779 140.046   7.753  1.00 17.59     0.048 C 
HETATM   21  O3  VFQ J9621     -48.642 149.016  14.861  1.00 18.27    -0.395 OA
ATOM     22  H3  VFQ J9621     -48.219 149.747  15.296  1.00  0.00     0.210 HD
HETATM   23  C21 VFQ J9621     -34.312 126.693   6.380  1.00 19.07    -0.018 C 
HETATM   24  C22 VFQ J9621     -33.784 125.923   5.156  1.00 18.69     0.045 C 
HETATM   25  C23 VFQ J9621     -32.487 126.421   4.523  1.00 19.88     0.123 C 
HETATM   26  C24 VFQ J9621     -32.335 127.950   4.541  1.00 19.59     0.066 C 
HETATM   27  C25 VFQ J9621     -32.894 128.695   5.713  1.00 18.61    -0.074 C 
HETATM   28  C26 VFQ J9621     -33.810 128.149   6.587  1.00 18.29    -0.048 C 
HETATM   29  C27 VFQ J9621     -34.336 128.920   7.734  1.00 19.20     0.009 C 
HETATM   30  C28 VFQ J9621     -35.284 129.891   7.727  1.00 18.47     0.007 C 
HETATM   31  C29 VFQ J9621     -35.682 130.768   8.837  1.00 19.55    -0.062 C 
HETATM   32  C30 VFQ J9621     -36.624 131.712   8.617  1.00 17.66     0.007 C 
HETATM   33  C31 VFQ J9621     -37.127 132.661   9.580  1.00 19.12     0.001 C 
HETATM   34  C32 VFQ J9621     -37.948 133.681   9.235  1.00 19.40     0.007 C 
HETATM   35  C33 VFQ J9621     -38.520 134.748  10.075  1.00 19.31    -0.062 C 
HETATM   36  C34 VFQ J9621     -39.235 135.715   9.463  1.00 17.72     0.007 C 
HETATM   37  C35 VFQ J9621     -39.831 136.869  10.078  1.00 19.92     0.001 C 
HETATM   38  C36 VFQ J9621     -34.019 125.850   7.638  1.00 17.04     0.020 C 
HETATM   39  C37 VFQ J9621     -35.831 126.687   6.127  1.00 20.18     0.020 C 
HETATM   40  C38 VFQ J9621     -32.271 130.043   5.716  1.00 19.93     0.044 C 
HETATM   41  C39 VFQ J9621     -34.954 130.600  10.144  1.00 18.53     0.048 C 
HETATM   42  C40 VFQ J9621     -38.211 134.726  11.548  1.00 15.86     0.048 C 
HETATM   43  O23 VFQ J9621     -32.358 125.923   3.199  1.00 19.51    -0.395 OA
ATOM     44  H23 VFQ J9621     -31.551 126.233   2.805  1.00  0.00     0.210 HD
ENDROOT
TORSDOF 12
