REMARK VINA RESULT:    -9.315      1.161     16.467
REMARK INTER + INTRA:          -9.522
REMARK INTER:                  -7.181
REMARK INTRA:                  -2.342
REMARK UNBOUND:                -0.207
REMARK  0 active torsions:
REMARK  status: ('A' for Active; 'I' for Inactive)
REMARK       I    between atoms: C3_3  and  O3_21 
REMARK       I    between atoms: C6_6  and  C7_7 
REMARK       I    between atoms: C8_8  and  C9_9 
REMARK       I    between atoms: C10_10  and  C11_11 
REMARK       I    between atoms: C12_12  and  C13_13 
REMARK       I    between atoms: C14_14  and  C15_15 
REMARK       I    between atoms: C23_25  and  O23_43 
REMARK       I    between atoms: C26_28  and  C27_29 
REMARK       I    between atoms: C28_30  and  C29_31 
REMARK       I    between atoms: C30_32  and  C31_33 
REMARK       I    between atoms: C32_34  and  C33_35 
REMARK       I    between atoms: C34_36  and  C35_37 
ROOT
HETATM    1  C1  VFQ 1 617     -34.218 127.086   6.565  1.00 38.90    -0.018 C 
HETATM    2  C2  VFQ 1 617     -34.228 127.201   5.042  1.00 38.90     0.045 C 
HETATM    3  C3  VFQ 1 617     -33.122 128.065   4.443  1.00 38.90     0.123 C 
HETATM    4  C4  VFQ 1 617     -31.962 128.186   5.413  1.00 38.90     0.066 C 
HETATM    5  C5  VFQ 1 617     -32.520 128.851   6.637  1.00 38.90    -0.074 C 
HETATM    6  C6  VFQ 1 617     -33.549 128.256   7.247  1.00 38.90    -0.048 C 
HETATM    7  C7  VFQ 1 617     -34.176 128.852   8.440  1.00 38.90     0.009 C 
HETATM    8  C8  VFQ 1 617     -34.428 130.152   8.297  1.00 38.90     0.007 C 
HETATM    9  C9  VFQ 1 617     -35.227 130.899   9.285  1.00 38.90    -0.062 C 
HETATM   10  C10 VFQ 1 617     -35.730 132.066   8.864  1.00 38.90     0.007 C 
HETATM   11  C11 VFQ 1 617     -36.646 132.894   9.641  1.00 38.90     0.001 C 
HETATM   12  C12 VFQ 1 617     -37.250 133.911   9.037  1.00 38.90     0.007 C 
HETATM   13  C13 VFQ 1 617     -38.250 134.747   9.719  1.00 38.90    -0.062 C 
HETATM   14  C14 VFQ 1 617     -38.917 135.620   8.949  1.00 38.90     0.007 C 
HETATM   15  C15 VFQ 1 617     -39.969 136.517   9.414  1.00 38.90     0.001 C 
HETATM   16  C16 VFQ 1 617     -33.413 125.850   6.961  1.00 38.90     0.020 C 
HETATM   17  C17 VFQ 1 617     -35.642 126.948   7.087  1.00 38.90     0.020 C 
HETATM   18  C18 VFQ 1 617     -31.564 129.787   7.337  1.00 38.90     0.044 C 
HETATM   19  C19 VFQ 1 617     -35.477 130.329  10.652  1.00 38.90     0.048 C 
HETATM   20  C20 VFQ 1 617     -38.485 134.565  11.189  1.00 38.90     0.048 C 
HETATM   21  O3  VFQ 1 617     -32.649 127.482   3.226  1.00 38.90    -0.395 OA
ATOM     22  H3  VFQ 1 617     -31.960 128.020   2.852  1.00  0.00     0.210 HD
HETATM   23  C21 VFQ 1 617     -49.586 144.474   9.932  1.00 66.29    -0.018 C 
HETATM   24  C22 VFQ 1 617     -50.547 145.428  10.630  1.00 66.29     0.045 C 
HETATM   25  C23 VFQ 1 617     -49.984 146.712  11.221  1.00 66.29     0.123 C 
HETATM   26  C24 VFQ 1 617     -48.568 146.520  11.716  1.00 66.29     0.066 C 
HETATM   27  C25 VFQ 1 617     -47.721 145.983  10.601  1.00 66.29    -0.074 C 
HETATM   28  C26 VFQ 1 617     -48.159 144.984   9.827  1.00 66.29    -0.048 C 
HETATM   29  C27 VFQ 1 617     -47.260 144.355   8.826  1.00 66.29     0.009 C 
HETATM   30  C28 VFQ 1 617     -46.454 143.341   9.150  1.00 66.29     0.007 C 
HETATM   31  C29 VFQ 1 617     -45.562 142.691   8.179  1.00 38.90    -0.062 C 
HETATM   32  C30 VFQ 1 617     -44.858 141.668   8.676  1.00 38.90     0.007 C 
HETATM   33  C31 VFQ 1 617     -43.900 140.856   7.941  1.00 38.90     0.001 C 
HETATM   34  C32 VFQ 1 617     -43.267 139.923   8.640  1.00 38.90     0.007 C 
HETATM   35  C33 VFQ 1 617     -42.240 139.046   8.059  1.00 38.90    -0.062 C 
HETATM   36  C34 VFQ 1 617     -41.608 138.217   8.909  1.00 38.90     0.007 C 
HETATM   37  C35 VFQ 1 617     -40.548 137.296   8.513  1.00 38.90     0.001 C 
HETATM   38  C36 VFQ 1 617     -50.108 144.253   8.521  1.00 66.29     0.020 C 
HETATM   39  C37 VFQ 1 617     -49.637 143.147  10.677  1.00 66.29     0.020 C 
HETATM   40  C38 VFQ 1 617     -46.383 146.632  10.402  1.00 66.29     0.044 C 
HETATM   41  C39 VFQ 1 617     -45.512 143.155   6.753  1.00 38.90     0.048 C 
HETATM   42  C40 VFQ 1 617     -41.948 139.151   6.592  1.00 38.90     0.048 C 
HETATM   43  O23 VFQ 1 617     -50.806 147.102  12.326  1.00 66.29    -0.395 OA
ATOM     44  H23 VFQ 1 617     -50.454 147.904  12.695  1.00  0.00     0.210 HD
ENDROOT
TORSDOF 12
