REMARK VINA RESULT:   -11.235      0.000      0.000
REMARK INTER + INTRA:         -12.016
REMARK INTER:                 -11.235
REMARK INTRA:                  -0.781
REMARK UNBOUND:                -0.781
REMARK  0 active torsions:
REMARK  status: ('A' for Active; 'I' for Inactive)
REMARK       I    between atoms: C3_3  and  O3_21 
REMARK       I    between atoms: C6_6  and  C7_7 
REMARK       I    between atoms: C8_8  and  C9_9 
REMARK       I    between atoms: C10_10  and  C11_11 
REMARK       I    between atoms: C12_12  and  C13_13 
REMARK       I    between atoms: C14_14  and  C15_15 
REMARK       I    between atoms: C23_25  and  O23_43 
REMARK       I    between atoms: C26_28  and  C27_29 
REMARK       I    between atoms: C28_30  and  C29_31 
REMARK       I    between atoms: C30_32  and  C31_33 
REMARK       I    between atoms: C32_34  and  C33_35 
REMARK       I    between atoms: C34_36  and  C35_37 
ROOT
HETATM    1  C1  VFQ B1621     -49.548 146.719  11.680  1.00 16.49    -0.018 C 
HETATM    2  C2  VFQ B1621     -50.589 147.240  12.689  1.00 14.93     0.045 C 
HETATM    3  C3  VFQ B1621     -50.130 148.012  13.922  1.00 15.86     0.123 C 
HETATM    4  C4  VFQ B1621     -48.730 148.647  13.807  1.00 14.41     0.066 C 
HETATM    5  C5  VFQ B1621     -47.732 148.114  12.815  1.00 15.44    -0.074 C 
HETATM    6  C6  VFQ B1621     -48.077 147.232  11.809  1.00 14.73    -0.048 C 
HETATM    7  C7  VFQ B1621     -47.132 146.721  10.786  1.00 14.04     0.009 C 
HETATM    8  C8  VFQ B1621     -46.268 145.694  10.970  1.00 12.72     0.007 C 
HETATM    9  C9  VFQ B1621     -45.264 145.157  10.047  1.00 12.70    -0.062 C 
HETATM   10  C10 VFQ B1621     -44.614 144.031  10.423  1.00 13.26     0.007 C 
HETATM   11  C11 VFQ B1621     -43.664 143.268   9.645  1.00 13.12     0.001 C 
HETATM   12  C12 VFQ B1621     -43.133 142.115  10.115  1.00 12.34     0.007 C 
HETATM   13  C13 VFQ B1621     -42.258 141.179   9.384  1.00 12.89    -0.062 C 
HETATM   14  C14 VFQ B1621     -41.845 140.059  10.022  1.00 12.03     0.007 C 
HETATM   15  C15 VFQ B1621     -41.030 138.992   9.477  1.00 13.59     0.001 C 
HETATM   16  C16 VFQ B1621     -50.170 147.166  10.332  1.00 14.27     0.020 C 
HETATM   17  C17 VFQ B1621     -49.573 145.171  11.757  1.00 12.26     0.020 C 
HETATM   18  C18 VFQ B1621     -46.386 148.726  13.021  1.00 13.78     0.044 C 
HETATM   19  C19 VFQ B1621     -45.081 145.847   8.727  1.00  8.79     0.048 C 
HETATM   20  C20 VFQ B1621     -41.912 141.522   7.954  1.00  8.63     0.048 C 
HETATM   21  O3  VFQ B1621     -51.095 148.993  14.273  1.00 14.46    -0.395 OA
ATOM     22  H3  VFQ B1621     -50.809 149.474  15.041  1.00  0.00     0.210 HD
HETATM   23  C21 VFQ B1621     -34.155 128.386   6.952  1.00 98.50    -0.018 C 
HETATM   24  C22 VFQ B1621     -33.506 127.929   5.660  1.00 95.05     0.045 C 
HETATM   25  C23 VFQ B1621     -32.003 128.082   5.703  1.00 91.19     0.123 C 
HETATM   26  C24 VFQ B1621     -31.616 129.529   5.930  1.00 95.39     0.066 C 
HETATM   27  C25 VFQ B1621     -32.550 130.293   6.829  1.00 94.24    -0.074 C 
HETATM   28  C26 VFQ B1621     -33.646 129.749   7.405  1.00 98.17    -0.048 C 
HETATM   29  C27 VFQ B1621     -34.369 130.421   8.526  1.00 96.30     0.009 C 
HETATM   30  C28 VFQ B1621     -35.311 131.351   8.336  1.00 99.74     0.007 C 
HETATM   31  C29 VFQ B1621     -36.081 132.029   9.405  1.00 21.33    -0.062 C 
HETATM   32  C30 VFQ B1621     -36.964 132.990   9.055  1.00 19.38     0.007 C 
HETATM   33  C31 VFQ B1621     -37.784 133.763   9.959  1.00 19.44     0.001 C 
HETATM   34  C32 VFQ B1621     -38.482 134.844   9.519  1.00 17.56     0.007 C 
HETATM   35  C33 VFQ B1621     -39.310 135.789  10.286  1.00 14.52    -0.062 C 
HETATM   36  C34 VFQ B1621     -39.821 136.857   9.634  1.00 13.82     0.007 C 
HETATM   37  C35 VFQ B1621     -40.625 137.930  10.196  1.00 15.60     0.001 C 
HETATM   38  C36 VFQ B1621     -33.837 127.412   8.069  1.00 90.00     0.020 C 
HETATM   39  C37 VFQ B1621     -35.652 128.308   6.696  1.00 93.85     0.020 C 
HETATM   40  C38 VFQ B1621     -32.154 131.726   6.994  1.00 91.76     0.044 C 
HETATM   41  C39 VFQ B1621     -35.773 131.663  10.822  1.00 21.43     0.048 C 
HETATM   42  C40 VFQ B1621     -39.473 135.538  11.750  1.00 13.28     0.048 C 
HETATM   43  O23 VFQ B1621     -31.462 127.676   4.446  1.00 92.07    -0.395 OA
ATOM     44  H23 VFQ B1621     -31.704 126.768   4.304  1.00  0.00     0.210 HD
ENDROOT
TORSDOF 12
