REMARK VINA RESULT:    -8.816      1.258     16.294
REMARK INTER + INTRA:         -12.049
REMARK INTER:                 -12.129
REMARK INTRA:                   0.080
REMARK UNBOUND:                -3.233
REMARK  0 active torsions:
REMARK  status: ('A' for Active; 'I' for Inactive)
REMARK       I    between atoms: C3_3  and  O3_21 
REMARK       I    between atoms: C6_6  and  C7_7 
REMARK       I    between atoms: C8_8  and  C9_9 
REMARK       I    between atoms: C10_10  and  C11_11 
REMARK       I    between atoms: C12_12  and  C13_13 
REMARK       I    between atoms: C14_14  and  C15_15 
REMARK       I    between atoms: C23_25  and  O23_43 
REMARK       I    between atoms: C26_28  and  C27_29 
REMARK       I    between atoms: C28_30  and  C29_31 
REMARK       I    between atoms: C30_32  and  C31_33 
REMARK       I    between atoms: C32_34  and  C33_35 
REMARK       I    between atoms: C34_36  and  C35_37 
ROOT
HETATM    1  C1  VFQ Y1620     -50.319 144.595  10.001  1.00 32.37    -0.022 C 
HETATM    2  C2  VFQ Y1620     -50.427 144.395  11.504  1.00 32.37     0.045 C 
HETATM    3  C3  VFQ Y1620     -49.318 145.041  12.306  1.00 32.37     0.119 C 
HETATM    4  C4  VFQ Y1620     -49.300 146.509  11.940  1.00 32.37     0.040 C 
HETATM    5  C5  VFQ Y1620     -49.011 146.657  10.468  1.00 32.37     0.013 C 
HETATM    6  C6  VFQ Y1620     -49.253 145.631   9.645  1.00 32.37    -0.068 C 
HETATM    7  C7  VFQ Y1620     -48.306 145.294   8.574  1.00 32.37     0.004 C 
HETATM    8  C8  VFQ Y1620     -47.470 144.360   9.046  1.00 32.37     0.007 C 
HETATM    9  C9  VFQ Y1620     -46.329 143.813   8.269  1.00 32.37    -0.062 C 
HETATM   10  C10 VFQ Y1620     -45.572 142.878   8.891  1.00 32.37     0.007 C 
HETATM   11  C11 VFQ Y1620     -44.437 142.205   8.270  1.00 32.37     0.001 C 
HETATM   12  C12 VFQ Y1620     -43.779 141.259   8.922  1.00 32.37     0.007 C 
HETATM   13  C13 VFQ Y1620     -42.676 140.523   8.277  1.00 32.37    -0.062 C 
HETATM   14  C14 VFQ Y1620     -42.187 139.482   8.969  1.00 32.37     0.007 C 
HETATM   15  C15 VFQ Y1620     -41.144 138.571   8.496  1.00 32.37     0.001 C 
HETATM   16  C16 VFQ Y1620     -51.742 144.900   9.535  1.00 32.37     0.019 C 
HETATM   17  C17 VFQ Y1620     -49.886 143.253   9.414  1.00 32.37     0.019 C 
HETATM   18  C18 VFQ Y1620     -47.676 147.347  10.556  1.00 32.37     0.015 C 
HETATM   19  C19 VFQ Y1620     -46.062 144.284   6.855  1.00 32.37     0.048 C 
HETATM   20  C20 VFQ Y1620     -42.237 140.900   6.887  1.00 32.37     0.048 C 
HETATM   21  O3  VFQ Y1620     -49.648 144.880  13.690  1.00 32.37    -0.396 OA
ATOM     22  H3  VFQ Y1620     -48.951 145.285  14.193  1.00  0.00     0.210 HD
HETATM   23  C21 VFQ Y1620     -33.842 127.959   7.537  1.00 35.06    -0.018 C 
HETATM   24  C22 VFQ Y1620     -32.659 127.306   6.820  1.00 35.06     0.045 C 
HETATM   25  C23 VFQ Y1620     -31.863 128.219   5.894  1.00 35.06     0.123 C 
HETATM   26  C24 VFQ Y1620     -32.693 129.423   5.497  1.00 35.06     0.066 C 
HETATM   27  C25 VFQ Y1620     -33.013 130.130   6.781  1.00 35.06    -0.074 C 
HETATM   28  C26 VFQ Y1620     -33.677 129.449   7.716  1.00 35.06    -0.048 C 
HETATM   29  C27 VFQ Y1620     -34.406 130.119   8.809  1.00 35.06     0.009 C 
HETATM   30  C28 VFQ Y1620     -35.077 131.221   8.474  1.00 35.06     0.007 C 
HETATM   31  C29 VFQ Y1620     -36.016 131.872   9.432  1.00 32.37    -0.062 C 
HETATM   32  C30 VFQ Y1620     -36.699 132.918   8.916  1.00 32.37     0.007 C 
HETATM   33  C31 VFQ Y1620     -37.709 133.710   9.622  1.00 32.37     0.001 C 
HETATM   34  C32 VFQ Y1620     -38.292 134.717   8.966  1.00 32.37     0.007 C 
HETATM   35  C33 VFQ Y1620     -39.329 135.577   9.583  1.00 32.37    -0.062 C 
HETATM   36  C34 VFQ Y1620     -39.782 136.612   8.846  1.00 32.37     0.007 C 
HETATM   37  C35 VFQ Y1620     -40.804 137.559   9.291  1.00 32.37     0.001 C 
HETATM   38  C36 VFQ Y1620     -34.058 127.303   8.891  1.00 35.06     0.020 C 
HETATM   39  C37 VFQ Y1620     -35.097 127.780   6.689  1.00 35.06     0.020 C 
HETATM   40  C38 VFQ Y1620     -32.433 131.506   6.999  1.00 35.06     0.044 C 
HETATM   41  C39 VFQ Y1620     -36.213 131.345  10.833  1.00 32.37     0.048 C 
HETATM   42  C40 VFQ Y1620     -39.846 135.231  10.954  1.00 32.37     0.048 C 
HETATM   43  O23 VFQ Y1620     -31.491 127.504   4.711  1.00 35.06    -0.395 OA
ATOM     44  H23 VFQ Y1620     -30.995 128.072   4.133  1.00  0.00     0.210 HD
ENDROOT
TORSDOF 12
