REMARK VINA RESULT:   -10.732      0.000      0.000
REMARK INTER + INTRA:         -13.360
REMARK INTER:                 -10.732
REMARK INTRA:                  -2.628
REMARK UNBOUND:                -2.628
REMARK  0 active torsions:
REMARK  status: ('A' for Active; 'I' for Inactive)
REMARK       I    between atoms: C3_3  and  O3_21 
REMARK       I    between atoms: C6_6  and  C7_7 
REMARK       I    between atoms: C8_8  and  C9_9 
REMARK       I    between atoms: C10_10  and  C11_11 
REMARK       I    between atoms: C12_12  and  C13_13 
REMARK       I    between atoms: C14_14  and  C15_15 
REMARK       I    between atoms: C23_25  and  O23_43 
REMARK       I    between atoms: C26_28  and  C27_29 
REMARK       I    between atoms: C28_30  and  C29_31 
REMARK       I    between atoms: C30_32  and  C31_33 
REMARK       I    between atoms: C32_34  and  C33_35 
REMARK       I    between atoms: C34_36  and  C35_37 
ROOT
HETATM    1  C1  VFQ y1620     -34.268 127.110   6.545  1.00 32.28    -0.018 C 
HETATM    2  C2  VFQ y1620     -33.766 126.617   5.199  1.00 32.10     0.045 C 
HETATM    3  C3  VFQ y1620     -32.663 127.418   4.545  1.00 30.03     0.123 C 
HETATM    4  C4  VFQ y1620     -31.597 127.826   5.523  1.00 27.01     0.066 C 
HETATM    5  C5  VFQ y1620     -32.183 128.500   6.723  1.00 26.85    -0.074 C 
HETATM    6  C6  VFQ y1620     -33.415 128.209   7.171  1.00 32.38    -0.048 C 
HETATM    7  C7  VFQ y1620     -33.974 128.967   8.317  1.00 31.45     0.009 C 
HETATM    8  C8  VFQ y1620     -34.724 130.050   8.119  1.00 30.07     0.007 C 
HETATM    9  C9  VFQ y1620     -35.306 130.847   9.196  1.00 31.62    -0.062 C 
HETATM   10  C10 VFQ y1620     -35.889 131.984   8.812  1.00 26.80     0.007 C 
HETATM   11  C11 VFQ y1620     -36.540 132.924   9.698  1.00 22.84     0.001 C 
HETATM   12  C12 VFQ y1620     -37.334 133.746   9.046  1.00 24.53     0.007 C 
HETATM   13  C13 VFQ y1620     -38.154 134.763   9.695  1.00 24.57    -0.062 C 
HETATM   14  C14 VFQ y1620     -38.941 135.482   8.900  1.00 24.07     0.007 C 
HETATM   15  C15 VFQ y1620     -39.847 136.491   9.402  1.00 24.13     0.001 C 
HETATM   16  C16 VFQ y1620     -34.352 125.853   7.406  1.00 30.09     0.020 C 
HETATM   17  C17 VFQ y1620     -35.669 127.671   6.353  1.00 35.00     0.020 C 
HETATM   18  C18 VFQ y1620     -31.360 129.638   7.246  1.00 25.72     0.044 C 
HETATM   19  C19 VFQ y1620     -35.216 130.409  10.624  1.00 32.28     0.048 C 
HETATM   20  C20 VFQ y1620     -38.128 134.945  11.176  1.00 25.14     0.048 C 
HETATM   21  O3  VFQ y1620     -32.034 126.595   3.560  1.00 33.60    -0.395 OA
ATOM     22  H3  VFQ y1620     -32.708 126.337   2.942  1.00  0.00     0.210 HD
HETATM   23  C21 VFQ y1620     -49.719 144.022  10.306  1.00 57.79    -0.018 C 
HETATM   24  C22 VFQ y1620     -50.466 144.764  11.400  1.00 59.26     0.045 C 
HETATM   25  C23 VFQ y1620     -50.161 146.245  11.436  1.00 62.25     0.123 C 
HETATM   26  C24 VFQ y1620     -48.686 146.436  11.687  1.00 57.83     0.066 C 
HETATM   27  C25 VFQ y1620     -47.857 145.663  10.700  1.00 54.66    -0.074 C 
HETATM   28  C26 VFQ y1620     -48.310 144.557  10.069  1.00 55.29    -0.048 C 
HETATM   29  C27 VFQ y1620     -47.452 143.859   9.076  1.00 55.61     0.009 C 
HETATM   30  C28 VFQ y1620     -46.545 142.942   9.420  1.00 56.19     0.007 C 
HETATM   31  C29 VFQ y1620     -45.709 142.255   8.447  1.00 31.74    -0.062 C 
HETATM   32  C30 VFQ y1620     -45.023 141.231   8.917  1.00 30.48     0.007 C 
HETATM   33  C31 VFQ y1620     -44.152 140.406   8.112  1.00 30.78     0.001 C 
HETATM   34  C32 VFQ y1620     -43.403 139.586   8.822  1.00 30.06     0.007 C 
HETATM   35  C33 VFQ y1620     -42.471 138.651   8.203  1.00 27.63    -0.062 C 
HETATM   36  C34 VFQ y1620     -41.697 137.943   9.022  1.00 25.49     0.007 C 
HETATM   37  C35 VFQ y1620     -40.748 136.957   8.555  1.00 24.60     0.001 C 
HETATM   38  C36 VFQ y1620     -50.485 144.176   9.002  1.00 58.39     0.020 C 
HETATM   39  C37 VFQ y1620     -49.762 142.551  10.706  1.00 64.45     0.020 C 
HETATM   40  C38 VFQ y1620     -46.487 146.244  10.495  1.00 58.11     0.044 C 
HETATM   41  C39 VFQ y1620     -45.630 142.674   7.016  1.00 33.51     0.048 C 
HETATM   42  C40 VFQ y1620     -42.426 138.510   6.716  1.00 28.91     0.048 C 
HETATM   43  O23 VFQ y1620     -50.878 146.860  12.507  1.00 65.91    -0.395 OA
ATOM     44  H23 VFQ y1620     -50.687 147.791  12.530  1.00  0.00     0.210 HD
ENDROOT
TORSDOF 12
