REMARK VINA RESULT:    -9.493      0.000      0.000
REMARK INTER + INTRA:          -9.701
REMARK INTER:                  -9.493
REMARK INTRA:                  -0.207
REMARK UNBOUND:                -0.207
REMARK  0 active torsions:
REMARK  status: ('A' for Active; 'I' for Inactive)
REMARK       I    between atoms: C3_3  and  O3_21 
REMARK       I    between atoms: C6_6  and  C7_7 
REMARK       I    between atoms: C8_8  and  C9_9 
REMARK       I    between atoms: C10_10  and  C11_11 
REMARK       I    between atoms: C12_12  and  C13_13 
REMARK       I    between atoms: C14_14  and  C15_15 
REMARK       I    between atoms: C23_25  and  O23_43 
REMARK       I    between atoms: C26_28  and  C27_29 
REMARK       I    between atoms: C28_30  and  C29_31 
REMARK       I    between atoms: C30_32  and  C31_33 
REMARK       I    between atoms: C32_34  and  C33_35 
REMARK       I    between atoms: C34_36  and  C35_37 
ROOT
HETATM    1  C1  VFQ 1 617     -50.274 144.614  11.217  1.00 38.90    -0.018 C 
HETATM    2  C2  VFQ 1 617     -50.457 144.240  12.686  1.00 38.90     0.045 C 
HETATM    3  C3  VFQ 1 617     -49.628 145.051  13.678  1.00 38.90     0.123 C 
HETATM    4  C4  VFQ 1 617     -49.215 146.374  13.063  1.00 38.90     0.066 C 
HETATM    5  C5  VFQ 1 617     -48.380 146.026  11.866  1.00 38.90    -0.074 C 
HETATM    6  C6  VFQ 1 617     -48.937 145.256  10.927  1.00 38.90    -0.048 C 
HETATM    7  C7  VFQ 1 617     -48.182 144.843   9.732  1.00 38.90     0.009 C 
HETATM    8  C8  VFQ 1 617     -46.963 144.391  10.020  1.00 38.90     0.007 C 
HETATM    9  C9  VFQ 1 617     -46.116 143.746   9.001  1.00 38.90    -0.062 C 
HETATM   10  C10 VFQ 1 617     -45.104 143.006   9.470  1.00 38.90     0.007 C 
HETATM   11  C11 VFQ 1 617     -44.228 142.188   8.637  1.00 38.90     0.001 C 
HETATM   12  C12 VFQ 1 617     -43.408 141.329   9.230  1.00 38.90     0.007 C 
HETATM   13  C13 VFQ 1 617     -42.550 140.407   8.468  1.00 38.90    -0.062 C 
HETATM   14  C14 VFQ 1 617     -41.909 139.469   9.180  1.00 38.90     0.007 C 
HETATM   15  C15 VFQ 1 617     -41.039 138.440   8.622  1.00 38.90     0.001 C 
HETATM   16  C16 VFQ 1 617     -51.331 145.648  10.836  1.00 38.90     0.020 C 
HETATM   17  C17 VFQ 1 617     -50.439 143.380  10.340  1.00 38.90     0.020 C 
HETATM   18  C18 VFQ 1 617     -47.243 146.981  11.591  1.00 38.90     0.044 C 
HETATM   19  C19 VFQ 1 617     -46.431 143.896   7.540  1.00 38.90     0.048 C 
HETATM   20  C20 VFQ 1 617     -42.466 140.542   6.976  1.00 38.90     0.048 C 
HETATM   21  O3  VFQ 1 617     -50.389 145.307  14.861  1.00 38.90    -0.395 OA
ATOM     22  H3  VFQ 1 617     -49.873 145.812  15.478  1.00  0.00     0.210 HD
HETATM   23  C21 VFQ 1 617     -34.050 128.207   7.039  1.00 66.29    -0.018 C 
HETATM   24  C22 VFQ 1 617     -33.072 127.310   6.290  1.00 66.29     0.045 C 
HETATM   25  C23 VFQ 1 617     -31.651 127.814   6.080  1.00 66.29     0.123 C 
HETATM   26  C24 VFQ 1 617     -31.613 129.319   5.930  1.00 66.29     0.066 C 
HETATM   27  C25 VFQ 1 617     -32.275 129.952   7.117  1.00 66.29    -0.074 C 
HETATM   28  C26 VFQ 1 617     -33.442 129.489   7.581  1.00 66.29    -0.048 C 
HETATM   29  C27 VFQ 1 617     -34.167 130.212   8.656  1.00 66.29     0.009 C 
HETATM   30  C28 VFQ 1 617     -35.021 131.201   8.380  1.00 66.29     0.007 C 
HETATM   31  C29 VFQ 1 617     -35.762 131.926   9.423  1.00 38.90    -0.062 C 
HETATM   32  C30 VFQ 1 617     -36.600 132.858   8.955  1.00 38.90     0.007 C 
HETATM   33  C31 VFQ 1 617     -37.447 133.723   9.761  1.00 38.90     0.001 C 
HETATM   34  C32 VFQ 1 617     -38.165 134.621   9.099  1.00 38.90     0.007 C 
HETATM   35  C33 VFQ 1 617     -39.040 135.597   9.765  1.00 38.90    -0.062 C 
HETATM   36  C34 VFQ 1 617     -39.627 136.513   8.975  1.00 38.90     0.007 C 
HETATM   37  C35 VFQ 1 617     -40.506 137.569   9.465  1.00 38.90     0.001 C 
HETATM   38  C36 VFQ 1 617     -34.587 127.411   8.218  1.00 66.29     0.020 C 
HETATM   39  C37 VFQ 1 617     -35.207 128.509   6.095  1.00 66.29     0.020 C 
HETATM   40  C38 VFQ 1 617     -31.557 131.108   7.749  1.00 66.29     0.044 C 
HETATM   41  C39 VFQ 1 617     -35.580 131.584  10.872  1.00 38.90     0.048 C 
HETATM   42  C40 VFQ 1 617     -39.194 135.528  11.254  1.00 38.90     0.048 C 
HETATM   43  O23 VFQ 1 617     -31.132 127.222   4.885  1.00 66.29    -0.395 OA
ATOM     44  H23 VFQ 1 617     -30.245 127.537   4.754  1.00  0.00     0.210 HD
ENDROOT
TORSDOF 12
