REMARK VINA RESULT:   -12.258      0.000      0.000
REMARK INTER + INTRA:         -14.904
REMARK INTER:                 -12.258
REMARK INTRA:                  -2.646
REMARK UNBOUND:                -2.646
REMARK  0 active torsions:
REMARK  status: ('A' for Active; 'I' for Inactive)
REMARK       I    between atoms: C3_3  and  O3_21 
REMARK       I    between atoms: C6_6  and  C7_7 
REMARK       I    between atoms: C8_8  and  C9_9 
REMARK       I    between atoms: C10_10  and  C11_11 
REMARK       I    between atoms: C12_12  and  C13_13 
REMARK       I    between atoms: C14_14  and  C15_15 
REMARK       I    between atoms: C23_25  and  O23_43 
REMARK       I    between atoms: C26_28  and  C27_29 
REMARK       I    between atoms: C28_30  and  C29_31 
REMARK       I    between atoms: C30_32  and  C31_33 
REMARK       I    between atoms: C32_34  and  C33_35 
REMARK       I    between atoms: C34_36  and  C35_37 
ROOT
HETATM    1  C1  VFQ y1621     -47.891 145.074  12.508  1.00 37.79    -0.018 C 
HETATM    2  C2  VFQ y1621     -48.792 145.713  13.552  1.00 37.79     0.045 C 
HETATM    3  C3  VFQ y1621     -48.097 146.466  14.662  1.00 37.79     0.123 C 
HETATM    4  C4  VFQ y1621     -47.098 147.422  14.067  1.00 37.79     0.066 C 
HETATM    5  C5  VFQ y1621     -46.155 146.749  13.118  1.00 37.79    -0.074 C 
HETATM    6  C6  VFQ y1621     -46.531 145.721  12.343  1.00 37.79    -0.048 C 
HETATM    7  C7  VFQ y1621     -45.648 145.207  11.262  1.00 37.79     0.009 C 
HETATM    8  C8  VFQ y1621     -44.647 144.345  11.472  1.00 37.79     0.007 C 
HETATM    9  C9  VFQ y1621     -43.801 143.844  10.388  1.00 37.79    -0.062 C 
HETATM   10  C10 VFQ y1621     -43.229 142.657  10.582  1.00 37.79     0.007 C 
HETATM   11  C11 VFQ y1621     -42.372 141.975   9.627  1.00 37.79     0.001 C 
HETATM   12  C12 VFQ y1621     -42.038 140.756  10.019  1.00 37.79     0.007 C 
HETATM   13  C13 VFQ y1621     -41.216 139.800   9.274  1.00 37.79    -0.062 C 
HETATM   14  C14 VFQ y1621     -40.859 138.672   9.892  1.00 37.79     0.007 C 
HETATM   15  C15 VFQ y1621     -40.077 137.665   9.196  1.00 37.79     0.001 C 
HETATM   16  C16 VFQ y1621     -48.697 145.049  11.219  1.00 37.79     0.020 C 
HETATM   17  C17 VFQ y1621     -47.623 143.645  12.919  1.00 37.79     0.020 C 
HETATM   18  C18 VFQ y1621     -44.900 147.533  12.885  1.00 37.79     0.044 C 
HETATM   19  C19 VFQ y1621     -43.593 144.630   9.135  1.00 37.79     0.048 C 
HETATM   20  C20 VFQ y1621     -40.809 140.068   7.860  1.00 37.79     0.048 C 
HETATM   21  O3  VFQ y1621     -49.072 147.252  15.345  1.00 37.79    -0.395 OA
ATOM     22  H3  VFQ y1621     -48.635 147.726  16.044  1.00  0.00     0.210 HD
HETATM   23  C21 VFQ y1621     -34.160 126.757   6.702  1.00 87.69    -0.018 C 
HETATM   24  C22 VFQ y1621     -33.246 125.876   5.871  1.00 87.69     0.045 C 
HETATM   25  C23 VFQ y1621     -32.615 126.515   4.640  1.00 87.69     0.123 C 
HETATM   26  C24 VFQ y1621     -32.379 128.016   4.735  1.00 87.69     0.066 C 
HETATM   27  C25 VFQ y1621     -32.592 128.570   6.120  1.00 87.69    -0.074 C 
HETATM   28  C26 VFQ y1621     -33.575 128.130   6.901  1.00 87.69    -0.048 C 
HETATM   29  C27 VFQ y1621     -34.097 128.960   8.011  1.00 87.69     0.009 C 
HETATM   30  C28 VFQ y1621     -34.994 129.914   7.787  1.00 87.69     0.007 C 
HETATM   31  C29 VFQ y1621     -35.543 130.738   8.864  1.00 37.79    -0.062 C 
HETATM   32  C30 VFQ y1621     -36.596 131.494   8.564  1.00 37.79     0.007 C 
HETATM   33  C31 VFQ y1621     -37.275 132.375   9.496  1.00 37.79     0.001 C 
HETATM   34  C32 VFQ y1621     -37.713 133.501   8.959  1.00 37.79     0.007 C 
HETATM   35  C33 VFQ y1621     -38.435 134.511   9.733  1.00 37.79    -0.062 C 
HETATM   36  C34 VFQ y1621     -38.827 135.630   9.127  1.00 37.79     0.007 C 
HETATM   37  C35 VFQ y1621     -39.572 136.641   9.860  1.00 37.79     0.001 C 
HETATM   38  C36 VFQ y1621     -34.280 126.114   8.065  1.00 87.69     0.020 C 
HETATM   39  C37 VFQ y1621     -35.553 126.830   6.084  1.00 87.69     0.020 C 
HETATM   40  C38 VFQ y1621     -31.645 129.630   6.587  1.00 87.69     0.044 C 
HETATM   41  C39 VFQ y1621     -34.937 130.719  10.230  1.00 37.79     0.048 C 
HETATM   42  C40 VFQ y1621     -38.738 134.264  11.172  1.00 37.79     0.048 C 
HETATM   43  O23 VFQ y1621     -33.493 126.274   3.542  1.00 87.69    -0.395 OA
ATOM     44  H23 VFQ y1621     -33.099 126.672   2.775  1.00  0.00     0.210 HD
ENDROOT
TORSDOF 12
