REMARK VINA RESULT:    -7.059      1.428     16.589
REMARK INTER + INTRA:          -9.618
REMARK INTER:                  -5.077
REMARK INTRA:                  -4.541
REMARK UNBOUND:                -2.559
REMARK  0 active torsions:
REMARK  status: ('A' for Active; 'I' for Inactive)
REMARK       I    between atoms: C3_3  and  O3_21 
REMARK       I    between atoms: C6_6  and  C7_7 
REMARK       I    between atoms: C8_8  and  C9_9 
REMARK       I    between atoms: C10_10  and  C11_11 
REMARK       I    between atoms: C12_12  and  C13_13 
REMARK       I    between atoms: C14_14  and  C15_15 
REMARK       I    between atoms: C23_25  and  O23_43 
REMARK       I    between atoms: C26_28  and  C27_29 
REMARK       I    between atoms: C28_30  and  C29_31 
REMARK       I    between atoms: C30_32  and  C31_33 
REMARK       I    between atoms: C32_34  and  C33_35 
REMARK       I    between atoms: C34_36  and  C35_37 
ROOT
HETATM    1  C1  VFQ S1620     -48.133 145.020  12.258  1.00 51.40    -0.018 C 
HETATM    2  C2  VFQ S1620     -48.811 145.271  13.597  1.00 51.40     0.045 C 
HETATM    3  C3  VFQ S1620     -48.190 146.262  14.574  1.00 51.40     0.123 C 
HETATM    4  C4  VFQ S1620     -47.160 147.163  13.931  1.00 51.40     0.066 C 
HETATM    5  C5  VFQ S1620     -46.219 146.342  13.112  1.00 51.40    -0.074 C 
HETATM    6  C6  VFQ S1620     -46.705 145.514  12.194  1.00 51.40    -0.048 C 
HETATM    7  C7  VFQ S1620     -45.868 145.069  11.066  1.00 51.40     0.009 C 
HETATM    8  C8  VFQ S1620     -44.998 144.083  11.231  1.00 51.40     0.007 C 
HETATM    9  C9  VFQ S1620     -44.179 143.601  10.122  1.00 51.40    -0.062 C 
HETATM   10  C10 VFQ S1620     -43.320 142.631  10.421  1.00 51.40     0.007 C 
HETATM   11  C11 VFQ S1620     -42.430 141.970   9.488  1.00 51.40     0.001 C 
HETATM   12  C12 VFQ S1620     -41.949 140.845   9.985  1.00 51.40     0.007 C 
HETATM   13  C13 VFQ S1620     -41.053 139.944   9.263  1.00 51.40    -0.062 C 
HETATM   14  C14 VFQ S1620     -40.751 138.789   9.857  1.00 51.40     0.007 C 
HETATM   15  C15 VFQ S1620     -39.914 137.792   9.218  1.00 51.40     0.001 C 
HETATM   16  C16 VFQ S1620     -49.006 145.630  11.169  1.00 51.40     0.020 C 
HETATM   17  C17 VFQ S1620     -48.092 143.519  12.033  1.00 51.40     0.020 C 
HETATM   18  C18 VFQ S1620     -45.036 147.224  12.859  1.00 51.40     0.044 C 
HETATM   19  C19 VFQ S1620     -44.334 144.178   8.750  1.00 51.40     0.048 C 
HETATM   20  C20 VFQ S1620     -40.523 140.308   7.916  1.00 51.40     0.048 C 
HETATM   21  O3  VFQ S1620     -49.226 147.102  15.085  1.00 51.40    -0.395 OA
ATOM     22  H3  VFQ S1620     -48.838 147.720  15.694  1.00  0.00     0.210 HD
HETATM   23  C21 VFQ S1620     -34.834 127.494   5.103  1.00 32.28    -0.018 C 
HETATM   24  C22 VFQ S1620     -34.154 126.576   4.102  1.00 32.10     0.045 C 
HETATM   25  C23 VFQ S1620     -32.672 126.344   4.284  1.00 30.03     0.123 C 
HETATM   26  C24 VFQ S1620     -31.930 127.610   4.605  1.00 27.01     0.066 C 
HETATM   27  C25 VFQ S1620     -32.556 128.336   5.754  1.00 26.85    -0.074 C 
HETATM   28  C26 VFQ S1620     -33.873 128.255   6.011  1.00 32.38    -0.048 C 
HETATM   29  C27 VFQ S1620     -34.422 128.917   7.220  1.00 31.45     0.009 C 
HETATM   30  C28 VFQ S1620     -34.905 130.157   7.161  1.00 30.07     0.007 C 
HETATM   31  C29 VFQ S1620     -35.453 130.856   8.311  1.00 51.40    -0.062 C 
HETATM   32  C30 VFQ S1620     -36.388 131.782   8.088  1.00 51.40     0.007 C 
HETATM   33  C31 VFQ S1620     -37.048 132.539   9.140  1.00 51.40     0.001 C 
HETATM   34  C32 VFQ S1620     -37.694 133.624   8.746  1.00 51.40     0.007 C 
HETATM   35  C33 VFQ S1620     -38.447 134.500   9.654  1.00 51.40    -0.062 C 
HETATM   36  C34 VFQ S1620     -38.891 135.646   9.137  1.00 51.40     0.007 C 
HETATM   37  C35 VFQ S1620     -39.692 136.636   9.835  1.00 51.40     0.001 C 
HETATM   38  C36 VFQ S1620     -35.730 126.646   5.994  1.00 30.09     0.020 C 
HETATM   39  C37 VFQ S1620     -35.706 128.412   4.251  1.00 35.00     0.020 C 
HETATM   40  C38 VFQ S1620     -31.604 129.158   6.566  1.00 25.72     0.044 C 
HETATM   41  C39 VFQ S1620     -34.981 130.534   9.693  1.00 51.40     0.048 C 
HETATM   42  C40 VFQ S1620     -38.718 134.100  11.070  1.00 51.40     0.048 C 
HETATM   43  O23 VFQ S1620     -32.142 125.850   3.052  1.00 33.60    -0.395 OA
ATOM     44  H23 VFQ S1620     -32.611 125.050   2.848  1.00  0.00     0.210 HD
ENDROOT
TORSDOF 12
