REMARK VINA RESULT:    -9.727      0.000      0.000
REMARK INTER + INTRA:         -12.999
REMARK INTER:                  -9.727
REMARK INTRA:                  -3.272
REMARK UNBOUND:                -3.272
REMARK  0 active torsions:
REMARK  status: ('A' for Active; 'I' for Inactive)
REMARK       I    between atoms: C3_3  and  O3_21 
REMARK       I    between atoms: C6_6  and  C7_7 
REMARK       I    between atoms: C8_8  and  C9_9 
REMARK       I    between atoms: C10_10  and  C11_11 
REMARK       I    between atoms: C12_12  and  C13_13 
REMARK       I    between atoms: C14_14  and  C15_15 
REMARK       I    between atoms: C23_25  and  O23_43 
REMARK       I    between atoms: C26_28  and  C27_29 
REMARK       I    between atoms: C28_30  and  C29_31 
REMARK       I    between atoms: C30_32  and  C31_33 
REMARK       I    between atoms: C32_34  and  C33_35 
REMARK       I    between atoms: C34_36  and  C35_37 
ROOT
HETATM    1  C1  VFQ N1621     -34.345 127.013   6.294  1.00 51.88    -0.018 C 
HETATM    2  C2  VFQ N1621     -33.944 126.450   4.938  1.00 51.88     0.045 C 
HETATM    3  C3  VFQ N1621     -32.771 127.109   4.247  1.00 51.88     0.123 C 
HETATM    4  C4  VFQ N1621     -31.695 127.428   5.257  1.00 51.88     0.066 C 
HETATM    5  C5  VFQ N1621     -32.256 128.351   6.297  1.00 51.88    -0.074 C 
HETATM    6  C6  VFQ N1621     -33.457 128.122   6.830  1.00 51.88    -0.048 C 
HETATM    7  C7  VFQ N1621     -33.988 128.921   7.966  1.00 51.88     0.009 C 
HETATM    8  C8  VFQ N1621     -34.595 130.096   7.789  1.00 51.88     0.007 C 
HETATM    9  C9  VFQ N1621     -35.176 130.896   8.875  1.00 51.88    -0.062 C 
HETATM   10  C10 VFQ N1621     -36.072 131.804   8.484  1.00 51.88     0.007 C 
HETATM   11  C11 VFQ N1621     -36.832 132.700   9.339  1.00 51.88     0.001 C 
HETATM   12  C12 VFQ N1621     -37.680 133.485   8.688  1.00 51.88     0.007 C 
HETATM   13  C13 VFQ N1621     -38.580 134.422   9.371  1.00 51.88    -0.062 C 
HETATM   14  C14 VFQ N1621     -39.384 135.193   8.629  1.00 51.88     0.007 C 
HETATM   15  C15 VFQ N1621     -40.329 136.117   9.244  1.00 51.88     0.001 C 
HETATM   16  C16 VFQ N1621     -34.428 125.850   7.270  1.00 51.88     0.020 C 
HETATM   17  C17 VFQ N1621     -35.736 127.584   6.147  1.00 51.88     0.020 C 
HETATM   18  C18 VFQ N1621     -31.281 129.327   6.879  1.00 51.88     0.044 C 
HETATM   19  C19 VFQ N1621     -34.799 130.701  10.309  1.00 51.88     0.048 C 
HETATM   20  C20 VFQ N1621     -38.616 134.465  10.867  1.00 51.88     0.048 C 
HETATM   21  O3  VFQ N1621     -32.226 126.192   3.293  1.00 51.88    -0.395 OA
ATOM     22  H3  VFQ N1621     -31.489 126.606   2.859  1.00  0.00     0.210 HD
HETATM   23  C21 VFQ N1621     -49.822 144.823  10.155  1.00 27.67    -0.018 C 
HETATM   24  C22 VFQ N1621     -50.722 145.734  10.987  1.00 27.67     0.045 C 
HETATM   25  C23 VFQ N1621     -50.040 146.640  12.002  1.00 27.67     0.123 C 
HETATM   26  C24 VFQ N1621     -48.869 145.938  12.651  1.00 27.67     0.066 C 
HETATM   27  C25 VFQ N1621     -47.911 145.584  11.553  1.00 27.67    -0.074 C 
HETATM   28  C26 VFQ N1621     -48.341 144.909  10.485  1.00 27.67    -0.048 C 
HETATM   29  C27 VFQ N1621     -47.385 144.241   9.568  1.00 27.67     0.009 C 
HETATM   30  C28 VFQ N1621     -46.849 143.052   9.846  1.00 27.67     0.007 C 
HETATM   31  C29 VFQ N1621     -45.915 142.386   8.924  1.00 51.88    -0.062 C 
HETATM   32  C30 VFQ N1621     -45.514 141.154   9.254  1.00 51.88     0.007 C 
HETATM   33  C31 VFQ N1621     -44.595 140.340   8.468  1.00 51.88     0.001 C 
HETATM   34  C32 VFQ N1621     -43.777 139.530   9.136  1.00 51.88     0.007 C 
HETATM   35  C33 VFQ N1621     -42.813 138.661   8.446  1.00 51.88    -0.062 C 
HETATM   36  C34 VFQ N1621     -42.004 137.848   9.144  1.00 51.88     0.007 C 
HETATM   37  C35 VFQ N1621     -41.044 136.957   8.498  1.00 51.88     0.001 C 
HETATM   38  C36 VFQ N1621     -49.973 145.219   8.693  1.00 27.67     0.020 C 
HETATM   39  C37 VFQ N1621     -50.338 143.397  10.325  1.00 27.67     0.020 C 
HETATM   40  C38 VFQ N1621     -46.489 146.037  11.701  1.00 27.67     0.044 C 
HETATM   41  C39 VFQ N1621     -45.444 143.071   7.679  1.00 51.88     0.048 C 
HETATM   42  C40 VFQ N1621     -42.760 138.703   6.960  1.00 51.88     0.048 C 
HETATM   43  O23 VFQ N1621     -50.989 147.001  13.007  1.00 27.67    -0.395 OA
ATOM     44  H23 VFQ N1621     -50.563 147.567  13.641  1.00  0.00     0.210 HD
ENDROOT
TORSDOF 12
