REMARK VINA RESULT:    -7.878      0.548      1.045
REMARK INTER + INTRA:         -10.629
REMARK INTER:                  -8.017
REMARK INTRA:                  -2.612
REMARK UNBOUND:                -2.751
REMARK  0 active torsions:
REMARK  status: ('A' for Active; 'I' for Inactive)
REMARK       I    between atoms: C3_3  and  O3_21 
REMARK       I    between atoms: C6_6  and  C7_7 
REMARK       I    between atoms: C8_8  and  C9_9 
REMARK       I    between atoms: C10_10  and  C11_11 
REMARK       I    between atoms: C12_12  and  C13_13 
REMARK       I    between atoms: C14_14  and  C15_15 
REMARK       I    between atoms: C23_25  and  O23_43 
REMARK       I    between atoms: C26_28  and  C27_29 
REMARK       I    between atoms: C28_30  and  C29_31 
REMARK       I    between atoms: C30_32  and  C31_33 
REMARK       I    between atoms: C32_34  and  C33_35 
REMARK       I    between atoms: C34_36  and  C35_37 
ROOT
HETATM    1  C1  VFQ 61620     -34.742 128.516   6.736  1.00 97.95    -0.018 C 
HETATM    2  C2  VFQ 61620     -33.835 128.284   5.533  1.00 97.95     0.045 C 
HETATM    3  C3  VFQ 61620     -32.446 128.898   5.577  1.00 97.95     0.123 C 
HETATM    4  C4  VFQ 61620     -31.864 128.859   6.972  1.00 97.95     0.066 C 
HETATM    5  C5  VFQ 61620     -32.803 129.557   7.909  1.00 97.95    -0.074 C 
HETATM    6  C6  VFQ 61620     -34.125 129.374   7.825  1.00 97.95    -0.048 C 
HETATM    7  C7  VFQ 61620     -35.038 130.011   8.805  1.00 97.95     0.009 C 
HETATM    8  C8  VFQ 61620     -35.534 131.230   8.600  1.00 97.95     0.007 C 
HETATM    9  C9  VFQ 61620     -36.449 131.876   9.543  1.00 97.95    -0.062 C 
HETATM   10  C10 VFQ 61620     -36.943 133.055   9.177  1.00 97.95     0.007 C 
HETATM   11  C11 VFQ 61620     -37.874 133.820   9.987  1.00 97.95     0.001 C 
HETATM   12  C12 VFQ 61620     -38.238 134.970   9.445  1.00 97.95     0.007 C 
HETATM   13  C13 VFQ 61620     -39.192 135.894  10.068  1.00 97.95    -0.062 C 
HETATM   14  C14 VFQ 61620     -39.696 136.825   9.259  1.00 97.95     0.007 C 
HETATM   15  C15 VFQ 61620     -40.683 137.798   9.683  1.00 97.95     0.001 C 
HETATM   16  C16 VFQ 61620     -35.135 127.140   7.265  1.00 97.95     0.020 C 
HETATM   17  C17 VFQ 61620     -35.997 129.230   6.251  1.00 97.95     0.020 C 
HETATM   18  C18 VFQ 61620     -32.156 130.348   9.007  1.00 97.95     0.044 C 
HETATM   19  C19 VFQ 61620     -36.808 131.233  10.847  1.00 97.95     0.048 C 
HETATM   20  C20 VFQ 61620     -39.589 135.788  11.509  1.00 97.95     0.048 C 
HETATM   21  O3  VFQ 61620     -31.580 128.151   4.715  1.00 97.95    -0.395 OA
ATOM     22  H3  VFQ 61620     -30.711 128.535   4.743  1.00  0.00     0.210 HD
HETATM   23  C21 VFQ 61620     -50.361 145.363   8.898  1.00 21.49    -0.018 C 
HETATM   24  C22 VFQ 61620     -51.453 146.319   9.366  1.00 21.49     0.045 C 
HETATM   25  C23 VFQ 61620     -51.057 147.756   9.665  1.00 21.49     0.123 C 
HETATM   26  C24 VFQ 61620     -49.670 147.849  10.259  1.00 21.49     0.066 C 
HETATM   27  C25 VFQ 61620     -48.680 147.150   9.370  1.00 21.49    -0.074 C 
HETATM   28  C26 VFQ 61620     -48.989 146.003   8.748  1.00 21.49    -0.048 C 
HETATM   29  C27 VFQ 61620     -47.980 145.341   7.879  1.00 21.49     0.009 C 
HETATM   30  C28 VFQ 61620     -47.183 144.378   8.342  1.00 21.49     0.007 C 
HETATM   31  C29 VFQ 61620     -46.177 143.700   7.525  1.00 97.95    -0.062 C 
HETATM   32  C30 VFQ 61620     -45.485 142.751   8.147  1.00 97.95     0.007 C 
HETATM   33  C31 VFQ 61620     -44.450 141.938   7.539  1.00 97.95     0.001 C 
HETATM   34  C32 VFQ 61620     -43.919 141.082   8.395  1.00 97.95     0.007 C 
HETATM   35  C33 VFQ 61620     -42.864 140.142   8.028  1.00 97.95    -0.062 C 
HETATM   36  C34 VFQ 61620     -42.397 139.346   8.991  1.00 97.95     0.007 C 
HETATM   37  C35 VFQ 61620     -41.361 138.374   8.702  1.00 97.95     0.001 C 
HETATM   38  C36 VFQ 61620     -50.770 144.831   7.534  1.00 21.49     0.020 C 
HETATM   39  C37 VFQ 61620     -50.340 144.203   9.892  1.00 21.49     0.020 C 
HETATM   40  C38 VFQ 61620     -47.339 147.808   9.214  1.00 21.49     0.044 C 
HETATM   41  C39 VFQ 61620     -45.953 144.046   6.084  1.00 97.95     0.048 C 
HETATM   42  C40 VFQ 61620     -42.338 140.085   6.629  1.00 97.95     0.048 C 
HETATM   43  O23 VFQ 61620     -51.982 148.281  10.622  1.00 21.49    -0.395 OA
ATOM     44  H23 VFQ 61620     -51.734 149.179  10.809  1.00  0.00     0.210 HD
ENDROOT
TORSDOF 12
