REMARK VINA RESULT:    -6.800      1.500     16.538
REMARK INTER + INTRA:          -9.390
REMARK INTER:                  -8.896
REMARK INTRA:                  -0.494
REMARK UNBOUND:                -2.589
REMARK  0 active torsions:
REMARK  status: ('A' for Active; 'I' for Inactive)
REMARK       I    between atoms: C3_3  and  O3_21 
REMARK       I    between atoms: C6_6  and  C7_7 
REMARK       I    between atoms: C8_8  and  C9_9 
REMARK       I    between atoms: C10_10  and  C11_11 
REMARK       I    between atoms: C12_12  and  C13_13 
REMARK       I    between atoms: C14_14  and  C15_15 
REMARK       I    between atoms: C23_25  and  O23_43 
REMARK       I    between atoms: C26_28  and  C27_29 
REMARK       I    between atoms: C28_30  and  C29_31 
REMARK       I    between atoms: C30_32  and  C31_33 
REMARK       I    between atoms: C32_34  and  C33_35 
REMARK       I    between atoms: C34_36  and  C35_37 
ROOT
HETATM    1  C1  VFQ X1621     -50.290 145.201   9.626  1.00 31.86    -0.018 C 
HETATM    2  C2  VFQ X1621     -51.134 145.197  10.905  1.00 31.86     0.045 C 
HETATM    3  C3  VFQ X1621     -50.635 146.052  12.064  1.00 31.86     0.123 C 
HETATM    4  C4  VFQ X1621     -49.640 147.107  11.602  1.00 31.86     0.066 C 
HETATM    5  C5  VFQ X1621     -48.546 146.378  10.881  1.00 31.86    -0.074 C 
HETATM    6  C6  VFQ X1621     -48.857 145.655   9.806  1.00 31.86    -0.048 C 
HETATM    7  C7  VFQ X1621     -47.834 145.116   8.885  1.00 31.86     0.009 C 
HETATM    8  C8  VFQ X1621     -46.637 144.772   9.371  1.00 31.86     0.007 C 
HETATM    9  C9  VFQ X1621     -45.712 144.018   8.495  1.00 31.86    -0.062 C 
HETATM   10  C10 VFQ X1621     -44.793 143.243   9.106  1.00 31.86     0.007 C 
HETATM   11  C11 VFQ X1621     -43.922 142.314   8.389  1.00 31.86     0.001 C 
HETATM   12  C12 VFQ X1621     -43.244 141.396   9.076  1.00 31.86     0.007 C 
HETATM   13  C13 VFQ X1621     -42.419 140.375   8.394  1.00 31.86    -0.062 C 
HETATM   14  C14 VFQ X1621     -41.886 139.399   9.160  1.00 31.86     0.007 C 
HETATM   15  C15 VFQ X1621     -41.069 138.302   8.640  1.00 31.86     0.001 C 
HETATM   16  C16 VFQ X1621     -50.897 146.186   8.630  1.00 31.86     0.020 C 
HETATM   17  C17 VFQ X1621     -50.354 143.809   9.017  1.00 31.86     0.020 C 
HETATM   18  C18 VFQ X1621     -47.394 147.344  10.888  1.00 31.86     0.044 C 
HETATM   19  C19 VFQ X1621     -45.887 144.064   6.994  1.00 31.86     0.048 C 
HETATM   20  C20 VFQ X1621     -42.246 140.457   6.898  1.00 31.86     0.048 C 
HETATM   21  O3  VFQ X1621     -51.787 146.681  12.622  1.00 31.86    -0.395 OA
ATOM     22  H3  VFQ X1621     -51.476 147.214  13.345  1.00  0.00     0.210 HD
HETATM   23  C21 VFQ X1621     -34.108 128.577   6.872  1.00 32.37    -0.018 C 
HETATM   24  C22 VFQ X1621     -33.174 127.801   5.957  1.00 32.37     0.045 C 
HETATM   25  C23 VFQ X1621     -31.702 127.997   6.249  1.00 32.37     0.123 C 
HETATM   26  C24 VFQ X1621     -31.429 129.483   6.190  1.00 32.37     0.066 C 
HETATM   27  C25 VFQ X1621     -32.250 130.187   7.240  1.00 32.37    -0.074 C 
HETATM   28  C26 VFQ X1621     -33.348 129.594   7.723  1.00 32.37    -0.048 C 
HETATM   29  C27 VFQ X1621     -34.023 130.128   8.913  1.00 32.37     0.009 C 
HETATM   30  C28 VFQ X1621     -34.988 130.958   8.497  1.00 32.37     0.007 C 
HETATM   31  C29 VFQ X1621     -35.837 131.731   9.421  1.00 31.86    -0.062 C 
HETATM   32  C30 VFQ X1621     -36.725 132.582   8.864  1.00 31.86     0.007 C 
HETATM   33  C31 VFQ X1621     -37.606 133.463   9.628  1.00 31.86     0.001 C 
HETATM   34  C32 VFQ X1621     -38.343 134.361   8.977  1.00 31.86     0.007 C 
HETATM   35  C33 VFQ X1621     -39.194 135.335   9.691  1.00 31.86    -0.062 C 
HETATM   36  C34 VFQ X1621     -39.772 136.298   8.943  1.00 31.86     0.007 C 
HETATM   37  C35 VFQ X1621     -40.603 137.379   9.476  1.00 31.86     0.001 C 
HETATM   38  C36 VFQ X1621     -34.741 127.555   7.816  1.00 32.37     0.020 C 
HETATM   39  C37 VFQ X1621     -35.193 129.136   5.953  1.00 32.37     0.020 C 
HETATM   40  C38 VFQ X1621     -31.794 131.555   7.673  1.00 32.37     0.044 C 
HETATM   41  C39 VFQ X1621     -35.668 131.525  10.905  1.00 31.86     0.048 C 
HETATM   42  C40 VFQ X1621     -39.328 135.241  11.189  1.00 31.86     0.048 C 
HETATM   43  O23 VFQ X1621     -30.975 127.318   5.219  1.00 32.37    -0.395 OA
ATOM     44  H23 VFQ X1621     -31.146 126.383   5.256  1.00  0.00     0.210 HD
ENDROOT
TORSDOF 12
