REMARK VINA RESULT:    -7.672      1.154     16.960
REMARK INTER + INTRA:         -10.236
REMARK INTER:                  -9.718
REMARK INTRA:                  -0.518
REMARK UNBOUND:                -2.564
REMARK  0 active torsions:
REMARK  status: ('A' for Active; 'I' for Inactive)
REMARK       I    between atoms: C3_3  and  O3_21 
REMARK       I    between atoms: C6_6  and  C7_7 
REMARK       I    between atoms: C8_8  and  C9_9 
REMARK       I    between atoms: C10_10  and  C11_11 
REMARK       I    between atoms: C12_12  and  C13_13 
REMARK       I    between atoms: C14_14  and  C15_15 
REMARK       I    between atoms: C23_25  and  O23_43 
REMARK       I    between atoms: C26_28  and  C27_29 
REMARK       I    between atoms: C28_30  and  C29_31 
REMARK       I    between atoms: C30_32  and  C31_33 
REMARK       I    between atoms: C32_34  and  C33_35 
REMARK       I    between atoms: C34_36  and  C35_37 
ROOT
HETATM    1  C1  VFQ I8620     -50.618 145.004  11.511  1.00 16.69    -0.018 C 
HETATM    2  C2  VFQ I8620     -51.443 145.623  12.651  1.00 15.88     0.045 C 
HETATM    3  C3  VFQ I8620     -50.770 146.636  13.566  1.00 15.19     0.123 C 
HETATM    4  C4  VFQ I8620     -49.683 147.479  12.895  1.00 16.30     0.066 C 
HETATM    5  C5  VFQ I8620     -48.847 146.837  11.835  1.00 15.97    -0.074 C 
HETATM    6  C6  VFQ I8620     -49.256 145.696  11.186  1.00 16.56    -0.048 C 
HETATM    7  C7  VFQ I8620     -48.412 145.074  10.163  1.00 18.44     0.009 C 
HETATM    8  C8  VFQ I8620     -47.330 144.308  10.382  1.00 18.42     0.007 C 
HETATM    9  C9  VFQ I8620     -46.423 143.795   9.370  1.00 20.59    -0.062 C 
HETATM   10  C10 VFQ I8620     -45.447 142.953   9.771  1.00 20.51     0.007 C 
HETATM   11  C11 VFQ I8620     -44.466 142.330   8.939  1.00 21.63     0.001 C 
HETATM   12  C12 VFQ I8620     -43.675 141.374   9.434  1.00 21.98     0.007 C 
HETATM   13  C13 VFQ I8620     -42.647 140.599   8.742  1.00 23.28    -0.062 C 
HETATM   14  C14 VFQ I8620     -42.064 139.598   9.439  1.00 23.72     0.007 C 
HETATM   15  C15 VFQ I8620     -41.096 138.645   8.976  1.00 25.53     0.001 C 
HETATM   16  C16 VFQ I8620     -51.558 145.084  10.295  1.00 15.77     0.020 C 
HETATM   17  C17 VFQ I8620     -50.418 143.513  11.845  1.00 17.40     0.020 C 
HETATM   18  C18 VFQ I8620     -47.600 147.635  11.676  1.00 16.04     0.044 C 
HETATM   19  C19 VFQ I8620     -46.668 144.196   7.938  1.00 19.43     0.048 C 
HETATM   20  C20 VFQ I8620     -42.369 140.919   7.297  1.00 18.80     0.048 C 
HETATM   21  O3  VFQ I8620     -51.743 147.478  14.151  1.00 16.64    -0.395 OA
ATOM     22  H3  VFQ I8620     -51.323 148.110  14.722  1.00  0.00     0.210 HD
HETATM   23  C21 VFQ I8620     -34.064 128.288   6.929  1.00 59.27    -0.018 C 
HETATM   24  C22 VFQ I8620     -33.190 127.618   5.878  1.00 64.60     0.045 C 
HETATM   25  C23 VFQ I8620     -31.711 127.911   5.999  1.00 63.28     0.123 C 
HETATM   26  C24 VFQ I8620     -31.484 129.400   6.007  1.00 61.00     0.066 C 
HETATM   27  C25 VFQ I8620     -32.273 130.040   7.113  1.00 64.87    -0.074 C 
HETATM   28  C26 VFQ I8620     -33.468 129.559   7.515  1.00 63.96    -0.048 C 
HETATM   29  C27 VFQ I8620     -34.235 130.238   8.593  1.00 64.82     0.009 C 
HETATM   30  C28 VFQ I8620     -35.052 131.271   8.360  1.00 58.91     0.007 C 
HETATM   31  C29 VFQ I8620     -35.842 131.962   9.421  1.00 33.65    -0.062 C 
HETATM   32  C30 VFQ I8620     -36.628 132.990   9.038  1.00 30.63     0.007 C 
HETATM   33  C31 VFQ I8620     -37.517 133.762   9.866  1.00 28.70     0.001 C 
HETATM   34  C32 VFQ I8620     -38.221 134.802   9.371  1.00 25.67     0.007 C 
HETATM   35  C33 VFQ I8620     -39.160 135.693  10.053  1.00 24.63    -0.062 C 
HETATM   36  C34 VFQ I8620     -39.710 136.695   9.336  1.00 23.98     0.007 C 
HETATM   37  C35 VFQ I8620     -40.641 137.688   9.793  1.00 25.49     0.001 C 
HETATM   38  C36 VFQ I8620     -34.257 127.321   8.085  1.00 56.55     0.020 C 
HETATM   39  C37 VFQ I8620     -35.408 128.521   6.247  1.00 59.14     0.020 C 
HETATM   40  C38 VFQ I8620     -31.618 131.243   7.729  1.00 61.00     0.044 C 
HETATM   41  C39 VFQ I8620     -35.718 131.482  10.845  1.00 33.66     0.048 C 
HETATM   42  C40 VFQ I8620     -39.431 135.450  11.502  1.00 25.13     0.048 C 
HETATM   43  O23 VFQ I8620     -31.031 127.341   4.878  1.00 73.40    -0.395 OA
ATOM     44  H23 VFQ I8620     -30.102 127.526   4.954  1.00  0.00     0.210 HD
ENDROOT
TORSDOF 12
