REMARK VINA RESULT:   -10.777      0.000      0.000
REMARK INTER + INTRA:         -13.096
REMARK INTER:                 -10.777
REMARK INTRA:                  -2.319
REMARK UNBOUND:                -2.319
REMARK  0 active torsions:
REMARK  status: ('A' for Active; 'I' for Inactive)
REMARK       I    between atoms: C3_3  and  O3_21 
REMARK       I    between atoms: C6_6  and  C7_7 
REMARK       I    between atoms: C8_8  and  C9_9 
REMARK       I    between atoms: C10_10  and  C11_11 
REMARK       I    between atoms: C12_12  and  C13_13 
REMARK       I    between atoms: C14_14  and  C15_15 
REMARK       I    between atoms: C23_25  and  O23_43 
REMARK       I    between atoms: C26_28  and  C27_29 
REMARK       I    between atoms: C28_30  and  C29_31 
REMARK       I    between atoms: C30_32  and  C31_33 
REMARK       I    between atoms: C32_34  and  C33_35 
REMARK       I    between atoms: C34_36  and  C35_37 
ROOT
HETATM    1  C1  VFQ 9 616     -34.336 127.073   6.570  1.00 76.22    -0.018 C 
HETATM    2  C2  VFQ 9 616     -33.983 126.681   5.134  1.00 77.20     0.045 C 
HETATM    3  C3  VFQ 9 616     -32.855 127.462   4.467  1.00 77.70     0.123 C 
HETATM    4  C4  VFQ 9 616     -31.752 127.771   5.461  1.00 77.16     0.066 C 
HETATM    5  C5  VFQ 9 616     -32.344 128.568   6.590  1.00 77.00    -0.074 C 
HETATM    6  C6  VFQ 9 616     -33.512 128.214   7.126  1.00 75.82    -0.048 C 
HETATM    7  C7  VFQ 9 616     -34.045 128.960   8.286  1.00 74.01     0.009 C 
HETATM    8  C8  VFQ 9 616     -34.727 130.083   8.076  1.00 71.77     0.007 C 
HETATM    9  C9  VFQ 9 616     -35.297 130.885   9.172  1.00 69.92    -0.062 C 
HETATM   10  C10 VFQ 9 616     -35.927 132.016   8.834  1.00 69.51     0.007 C 
HETATM   11  C11 VFQ 9 616     -36.565 132.938   9.767  1.00 69.37     0.001 C 
HETATM   12  C12 VFQ 9 616     -37.334 133.850   9.178  1.00 71.55     0.007 C 
HETATM   13  C13 VFQ 9 616     -38.104 134.890   9.881  1.00 72.10    -0.062 C 
HETATM   14  C14 VFQ 9 616     -38.944 135.636   9.144  1.00 74.51     0.007 C 
HETATM   15  C15 VFQ 9 616     -39.776 136.690   9.715  1.00 77.06     0.001 C 
HETATM   16  C16 VFQ 9 616     -34.145 125.858   7.468  1.00 75.57     0.020 C 
HETATM   17  C17 VFQ 9 616     -35.797 127.504   6.612  1.00 77.01     0.020 C 
HETATM   18  C18 VFQ 9 616     -31.494 129.629   7.224  1.00 76.92     0.044 C 
HETATM   19  C19 VFQ 9 616     -35.177 130.438  10.599  1.00 68.71     0.048 C 
HETATM   20  C20 VFQ 9 616     -37.954 135.100  11.359  1.00 70.74     0.048 C 
HETATM   21  O3  VFQ 9 616     -32.302 126.682   3.401  1.00 79.46    -0.395 OA
ATOM     22  H3  VFQ 9 616     -31.599 127.169   2.986  1.00  0.00     0.210 HD
HETATM   23  C21 VFQ 9 616     -49.190 144.878  11.592  1.00 73.24    -0.018 C 
HETATM   24  C22 VFQ 9 616     -49.929 145.926  12.427  1.00 72.84     0.045 C 
HETATM   25  C23 VFQ 9 616     -49.374 147.343  12.394  1.00 72.53     0.123 C 
HETATM   26  C24 VFQ 9 616     -47.859 147.314  12.465  1.00 72.61     0.066 C 
HETATM   27  C25 VFQ 9 616     -47.324 146.510  11.309  1.00 72.68    -0.074 C 
HETATM   28  C26 VFQ 9 616     -47.893 145.355  10.961  1.00 72.79    -0.048 C 
HETATM   29  C27 VFQ 9 616     -47.245 144.499   9.937  1.00 71.90     0.009 C 
HETATM   30  C28 VFQ 9 616     -46.266 143.659  10.279  1.00 71.51     0.007 C 
HETATM   31  C29 VFQ 9 616     -45.594 142.785   9.303  1.00 94.71    -0.062 C 
HETATM   32  C30 VFQ 9 616     -44.682 141.910   9.751  1.00 92.10     0.007 C 
HETATM   33  C31 VFQ 9 616     -43.965 140.986   8.876  1.00 90.22     0.001 C 
HETATM   34  C32 VFQ 9 616     -43.104 140.166   9.469  1.00 87.90     0.007 C 
HETATM   35  C33 VFQ 9 616     -42.291 139.153   8.768  1.00 85.43    -0.062 C 
HETATM   36  C34 VFQ 9 616     -41.445 138.414   9.504  1.00 81.82     0.007 C 
HETATM   37  C35 VFQ 9 616     -40.602 137.375   8.924  1.00 79.00     0.001 C 
HETATM   38  C36 VFQ 9 616     -50.113 144.427  10.466  1.00 72.68     0.020 C 
HETATM   39  C37 VFQ 9 616     -48.880 143.690  12.494  1.00 73.05     0.020 C 
HETATM   40  C38 VFQ 9 616     -46.145 147.041  10.546  1.00 72.13     0.044 C 
HETATM   41  C39 VFQ 9 616     -45.928 142.868   7.842  1.00 94.19     0.048 C 
HETATM   42  C40 VFQ 9 616     -42.412 138.956   7.284  1.00 84.99     0.048 C 
HETATM   43  O23 VFQ 9 616     -49.884 148.082  13.513  1.00 71.04    -0.395 OA
ATOM     44  H23 VFQ 9 616     -49.538 148.966  13.492  1.00  0.00     0.210 HD
ENDROOT
TORSDOF 12
