REMARK VINA RESULT:    -7.076      1.407      1.790
REMARK INTER + INTRA:          -9.917
REMARK INTER:                  -9.636
REMARK INTRA:                  -0.281
REMARK UNBOUND:                -2.841
REMARK  0 active torsions:
REMARK  status: ('A' for Active; 'I' for Inactive)
REMARK       I    between atoms: C3_3  and  O3_21 
REMARK       I    between atoms: C6_6  and  C7_7 
REMARK       I    between atoms: C8_8  and  C9_9 
REMARK       I    between atoms: C10_10  and  C11_11 
REMARK       I    between atoms: C12_12  and  C13_13 
REMARK       I    between atoms: C14_14  and  C15_15 
REMARK       I    between atoms: C23_25  and  O23_43 
REMARK       I    between atoms: C26_28  and  C27_29 
REMARK       I    between atoms: C28_30  and  C29_31 
REMARK       I    between atoms: C30_32  and  C31_33 
REMARK       I    between atoms: C32_34  and  C33_35 
REMARK       I    between atoms: C34_36  and  C35_37 
ROOT
HETATM    1  C1  VFQ J9620     -34.209 128.146   6.739  1.00 17.81    -0.018 C 
HETATM    2  C2  VFQ J9620     -33.224 127.458   5.771  1.00 18.03     0.045 C 
HETATM    3  C3  VFQ J9620     -32.028 128.294   5.323  1.00 19.41     0.123 C 
HETATM    4  C4  VFQ J9620     -31.349 129.013   6.486  1.00 18.47     0.066 C 
HETATM    5  C5  VFQ J9620     -32.263 129.642   7.485  1.00 18.29    -0.074 C 
HETATM    6  C6  VFQ J9620     -33.594 129.270   7.631  1.00 18.07    -0.048 C 
HETATM    7  C7  VFQ J9620     -34.474 129.919   8.631  1.00 17.25     0.009 C 
HETATM    8  C8  VFQ J9620     -35.086 131.112   8.510  1.00 17.01     0.007 C 
HETATM    9  C9  VFQ J9620     -35.862 131.842   9.518  1.00 17.86    -0.062 C 
HETATM   10  C10 VFQ J9620     -36.479 132.982   9.135  1.00 14.07     0.007 C 
HETATM   11  C11 VFQ J9620     -37.299 133.833   9.948  1.00 13.24     0.001 C 
HETATM   12  C12 VFQ J9620     -37.983 134.825   9.365  1.00 13.26     0.007 C 
HETATM   13  C13 VFQ J9620     -38.928 135.759   9.973  1.00 14.95    -0.062 C 
HETATM   14  C14 VFQ J9620     -39.581 136.605   9.145  1.00 15.84     0.007 C 
HETATM   15  C15 VFQ J9620     -40.617 137.556   9.481  1.00 15.11     0.001 C 
HETATM   16  C16 VFQ J9620     -34.718 126.985   7.595  1.00 16.04     0.020 C 
HETATM   17  C17 VFQ J9620     -35.411 128.689   5.956  1.00 17.79     0.020 C 
HETATM   18  C18 VFQ J9620     -31.467 130.671   8.211  1.00 17.18     0.044 C 
HETATM   19  C19 VFQ J9620     -35.959 131.243  10.900  1.00 17.70     0.048 C 
HETATM   20  C20 VFQ J9620     -39.166 135.661  11.459  1.00 11.96     0.048 C 
HETATM   21  O3  VFQ J9620     -31.089 127.491   4.619  1.00 19.31    -0.395 OA
ATOM     22  H3  VFQ J9620     -30.345 128.011   4.340  1.00  0.00     0.210 HD
HETATM   23  C21 VFQ J9620     -50.763 145.206   9.940  1.00 25.46    -0.018 C 
HETATM   24  C22 VFQ J9620     -51.754 146.023  10.765  1.00 25.46     0.045 C 
HETATM   25  C23 VFQ J9620     -51.245 147.318  11.375  1.00 25.46     0.123 C 
HETATM   26  C24 VFQ J9620     -49.828 147.139  11.870  1.00 25.46     0.066 C 
HETATM   27  C25 VFQ J9620     -48.983 146.763  10.688  1.00 25.46    -0.074 C 
HETATM   28  C26 VFQ J9620     -49.350 145.761   9.883  1.00 25.46    -0.048 C 
HETATM   29  C27 VFQ J9620     -48.396 145.198   8.884  1.00 25.46     0.009 C 
HETATM   30  C28 VFQ J9620     -47.523 144.238   9.202  1.00 25.46     0.007 C 
HETATM   31  C29 VFQ J9620     -46.532 143.606   8.269  1.00 23.86    -0.062 C 
HETATM   32  C30 VFQ J9620     -45.731 142.639   8.769  1.00 20.58     0.007 C 
HETATM   33  C31 VFQ J9620     -44.741 141.865   8.055  1.00 18.13     0.001 C 
HETATM   34  C32 VFQ J9620     -43.969 140.934   8.663  1.00 14.57     0.007 C 
HETATM   35  C33 VFQ J9620     -42.914 140.088   8.072  1.00 16.93    -0.062 C 
HETATM   36  C34 VFQ J9620     -42.252 139.238   8.888  1.00 15.59     0.007 C 
HETATM   37  C35 VFQ J9620     -41.198 138.321   8.543  1.00 13.74     0.001 C 
HETATM   38  C36 VFQ J9620     -51.263 145.203   8.509  1.00 25.46     0.020 C 
HETATM   39  C37 VFQ J9620     -50.787 143.781  10.480  1.00 25.46     0.020 C 
HETATM   40  C38 VFQ J9620     -47.756 147.580  10.439  1.00 25.46     0.044 C 
HETATM   41  C39 VFQ J9620     -46.486 144.077   6.838  1.00 22.74     0.048 C 
HETATM   42  C40 VFQ J9620     -42.634 140.235   6.601  1.00 15.29     0.048 C 
HETATM   43  O23 VFQ J9620     -52.088 147.660  12.478  1.00 25.46    -0.395 OA
ATOM     44  H23 VFQ J9620     -52.979 147.771  12.167  1.00  0.00     0.210 HD
ENDROOT
TORSDOF 12
