REMARK VINA RESULT:    -6.686      1.441      1.832
REMARK INTER + INTRA:          -9.707
REMARK INTER:                  -9.385
REMARK INTRA:                  -0.322
REMARK UNBOUND:                -3.020
REMARK  0 active torsions:
REMARK  status: ('A' for Active; 'I' for Inactive)
REMARK       I    between atoms: C3_3  and  O3_21 
REMARK       I    between atoms: C6_6  and  C7_7 
REMARK       I    between atoms: C8_8  and  C9_9 
REMARK       I    between atoms: C10_10  and  C11_11 
REMARK       I    between atoms: C12_12  and  C13_13 
REMARK       I    between atoms: C14_14  and  C15_15 
REMARK       I    between atoms: C23_25  and  O23_43 
REMARK       I    between atoms: C26_28  and  C27_29 
REMARK       I    between atoms: C28_30  and  C29_31 
REMARK       I    between atoms: C30_32  and  C31_33 
REMARK       I    between atoms: C32_34  and  C33_35 
REMARK       I    between atoms: C34_36  and  C35_37 
ROOT
HETATM    1  C1  VFQ E4620     -34.186 128.168   6.712  1.00 19.12    -0.018 C 
HETATM    2  C2  VFQ E4620     -33.234 127.476   5.715  1.00 18.29     0.045 C 
HETATM    3  C3  VFQ E4620     -31.979 128.241   5.290  1.00 18.54     0.123 C 
HETATM    4  C4  VFQ E4620     -31.336 129.028   6.432  1.00 18.55     0.066 C 
HETATM    5  C5  VFQ E4620     -32.239 129.702   7.413  1.00 18.97    -0.074 C 
HETATM    6  C6  VFQ E4620     -33.565 129.323   7.566  1.00 18.68    -0.048 C 
HETATM    7  C7  VFQ E4620     -34.456 129.966   8.542  1.00 18.46     0.009 C 
HETATM    8  C8  VFQ E4620     -35.060 131.156   8.449  1.00 18.89     0.007 C 
HETATM    9  C9  VFQ E4620     -35.839 131.847   9.479  1.00 19.10    -0.062 C 
HETATM   10  C10 VFQ E4620     -36.453 132.999   9.130  1.00 18.99     0.007 C 
HETATM   11  C11 VFQ E4620     -37.276 133.827   9.958  1.00 18.78     0.001 C 
HETATM   12  C12 VFQ E4620     -37.956 134.825   9.388  1.00 19.28     0.007 C 
HETATM   13  C13 VFQ E4620     -38.900 135.751  10.013  1.00 21.25    -0.062 C 
HETATM   14  C14 VFQ E4620     -39.552 136.611   9.198  1.00 20.64     0.007 C 
HETATM   15  C15 VFQ E4620     -40.577 137.545   9.555  1.00 21.49     0.001 C 
HETATM   16  C16 VFQ E4620     -34.671 127.025   7.618  1.00 19.29     0.020 C 
HETATM   17  C17 VFQ E4620     -35.406 128.685   5.927  1.00 16.00     0.020 C 
HETATM   18  C18 VFQ E4620     -31.424 130.739   8.113  1.00 17.87     0.044 C 
HETATM   19  C19 VFQ E4620     -35.950 131.201  10.835  1.00 17.60     0.048 C 
HETATM   20  C20 VFQ E4620     -39.133 135.632  11.494  1.00 16.75     0.048 C 
HETATM   21  O3  VFQ E4620     -31.030 127.353   4.714  1.00 19.42    -0.395 OA
ATOM     22  H3  VFQ E4620     -30.251 127.828   4.450  1.00  0.00     0.210 HD
HETATM   23  C21 VFQ E4620     -50.661 145.236   9.987  1.00 93.31    -0.018 C 
HETATM   24  C22 VFQ E4620     -51.626 145.986  10.906  1.00 93.93     0.045 C 
HETATM   25  C23 VFQ E4620     -51.135 147.328  11.431  1.00 93.98     0.123 C 
HETATM   26  C24 VFQ E4620     -49.731 147.177  11.989  1.00 93.16     0.066 C 
HETATM   27  C25 VFQ E4620     -48.817 146.659  10.910  1.00 92.19    -0.074 C 
HETATM   28  C26 VFQ E4620     -49.227 145.731  10.038  1.00 91.50    -0.048 C 
HETATM   29  C27 VFQ E4620     -48.257 145.166   9.070  1.00 98.60     0.009 C 
HETATM   30  C28 VFQ E4620     -47.431 144.169   9.396  1.00 95.09     0.007 C 
HETATM   31  C29 VFQ E4620     -46.439 143.583   8.421  1.00 25.99    -0.062 C 
HETATM   32  C30 VFQ E4620     -45.657 142.579   8.871  1.00 24.86     0.007 C 
HETATM   33  C31 VFQ E4620     -44.671 141.852   8.118  1.00 24.61     0.001 C 
HETATM   34  C32 VFQ E4620     -43.913 140.902   8.706  1.00 23.19     0.007 C 
HETATM   35  C33 VFQ E4620     -42.846 140.074   8.129  1.00 22.76    -0.062 C 
HETATM   36  C34 VFQ E4620     -42.210 139.213   8.952  1.00 21.16     0.007 C 
HETATM   37  C35 VFQ E4620     -41.144 138.312   8.625  1.00 21.72     0.001 C 
HETATM   38  C36 VFQ E4620     -51.146 145.395   8.550  1.00 93.81     0.020 C 
HETATM   39  C37 VFQ E4620     -50.689 143.759  10.360  1.00 92.50     0.020 C 
HETATM   40  C38 VFQ E4620     -47.431 147.230  10.829  1.00 91.81     0.044 C 
HETATM   41  C39 VFQ E4620     -46.355 144.135   7.025  1.00 26.11     0.048 C 
HETATM   42  C40 VFQ E4620     -42.517 140.261   6.670  1.00 21.07     0.048 C 
HETATM   43  O23 VFQ E4620     -52.008 147.778  12.475  1.00 94.06    -0.395 OA
ATOM     44  H23 VFQ E4620     -51.702 148.615  12.803  1.00  0.00     0.210 HD
ENDROOT
TORSDOF 12
