REMARK VINA RESULT:   -11.619      1.082     16.409
REMARK INTER + INTRA:         -11.905
REMARK INTER:                  -9.111
REMARK INTRA:                  -2.795
REMARK UNBOUND:                -0.287
REMARK  0 active torsions:
REMARK  status: ('A' for Active; 'I' for Inactive)
REMARK       I    between atoms: C3_3  and  O3_21 
REMARK       I    between atoms: C6_6  and  C7_7 
REMARK       I    between atoms: C8_8  and  C9_9 
REMARK       I    between atoms: C10_10  and  C11_11 
REMARK       I    between atoms: C12_12  and  C13_13 
REMARK       I    between atoms: C14_14  and  C15_15 
REMARK       I    between atoms: C23_25  and  O23_43 
REMARK       I    between atoms: C26_28  and  C27_29 
REMARK       I    between atoms: C28_30  and  C29_31 
REMARK       I    between atoms: C30_32  and  C31_33 
REMARK       I    between atoms: C32_34  and  C33_35 
REMARK       I    between atoms: C34_36  and  C35_37 
ROOT
HETATM    1  C1  VFQ 61620     -34.465 128.033   6.555  1.00 97.95    -0.018 C 
HETATM    2  C2  VFQ 61620     -33.692 127.733   5.275  1.00 97.95     0.045 C 
HETATM    3  C3  VFQ 61620     -32.311 128.347   5.133  1.00 97.95     0.123 C 
HETATM    4  C4  VFQ 61620     -31.580 128.387   6.456  1.00 97.95     0.066 C 
HETATM    5  C5  VFQ 61620     -32.415 129.137   7.449  1.00 97.95    -0.074 C 
HETATM    6  C6  VFQ 61620     -33.738 128.951   7.520  1.00 97.95    -0.048 C 
HETATM    7  C7  VFQ 61620     -34.542 129.643   8.556  1.00 97.95     0.009 C 
HETATM    8  C8  VFQ 61620     -35.064 130.849   8.337  1.00 97.95     0.007 C 
HETATM    9  C9  VFQ 61620     -35.874 131.548   9.336  1.00 97.95    -0.062 C 
HETATM   10  C10 VFQ 61620     -36.412 132.706   8.961  1.00 97.95     0.007 C 
HETATM   11  C11 VFQ 61620     -37.253 133.516   9.822  1.00 97.95     0.001 C 
HETATM   12  C12 VFQ 61620     -37.680 134.633   9.259  1.00 97.95     0.007 C 
HETATM   13  C13 VFQ 61620     -38.566 135.592   9.929  1.00 97.95    -0.062 C 
HETATM   14  C14 VFQ 61620     -39.159 136.476   9.128  1.00 97.95     0.007 C 
HETATM   15  C15 VFQ 61620     -40.100 137.472   9.601  1.00 97.95     0.001 C 
HETATM   16  C16 VFQ 61620     -34.790 126.690   7.201  1.00 97.95     0.020 C 
HETATM   17  C17 VFQ 61620     -35.769 128.719   6.169  1.00 97.95     0.020 C 
HETATM   18  C18 VFQ 61620     -31.657 129.989   8.424  1.00 97.95     0.044 C 
HETATM   19  C19 VFQ 61620     -36.086 130.980  10.706  1.00 97.95     0.048 C 
HETATM   20  C20 VFQ 61620     -38.803 135.568  11.408  1.00 97.95     0.048 C 
HETATM   21  O3  VFQ 61620     -31.539 127.552   4.226  1.00 97.95    -0.395 OA
ATOM     22  H3  VFQ 61620     -30.674 127.936   4.137  1.00  0.00     0.210 HD
HETATM   23  C21 VFQ 61620     -50.030 145.463   8.668  1.00 35.06    -0.018 C 
HETATM   24  C22 VFQ 61620     -50.850 146.492   9.448  1.00 35.06     0.045 C 
HETATM   25  C23 VFQ 61620     -50.346 146.808  10.853  1.00 35.06     0.123 C 
HETATM   26  C24 VFQ 61620     -49.454 145.692  11.359  1.00 35.06     0.066 C 
HETATM   27  C25 VFQ 61620     -48.308 145.626  10.394  1.00 35.06    -0.074 C 
HETATM   28  C26 VFQ 61620     -48.588 145.393   9.112  1.00 35.06    -0.048 C 
HETATM   29  C27 VFQ 61620     -47.576 144.895   8.162  1.00 35.06     0.009 C 
HETATM   30  C28 VFQ 61620     -46.744 143.967   8.631  1.00 35.06     0.007 C 
HETATM   31  C29 VFQ 61620     -45.827 143.247   7.724  1.00 97.95    -0.062 C 
HETATM   32  C30 VFQ 61620     -45.067 142.334   8.319  1.00 97.95     0.007 C 
HETATM   33  C31 VFQ 61620     -44.100 141.487   7.650  1.00 97.95     0.001 C 
HETATM   34  C32 VFQ 61620     -43.474 140.681   8.489  1.00 97.95     0.007 C 
HETATM   35  C33 VFQ 61620     -42.460 139.720   8.064  1.00 97.95    -0.062 C 
HETATM   36  C34 VFQ 61620     -41.887 138.980   9.014  1.00 97.95     0.007 C 
HETATM   37  C35 VFQ 61620     -40.883 137.992   8.669  1.00 97.95     0.001 C 
HETATM   38  C36 VFQ 61620     -50.092 145.767   7.180  1.00 35.06     0.020 C 
HETATM   39  C37 VFQ 61620     -50.608 144.075   8.919  1.00 35.06     0.020 C 
HETATM   40  C38 VFQ 61620     -46.931 145.979  10.901  1.00 35.06     0.044 C 
HETATM   41  C39 VFQ 61620     -45.763 143.510   6.250  1.00 97.95     0.048 C 
HETATM   42  C40 VFQ 61620     -42.090 139.583   6.621  1.00 97.95     0.048 C 
HETATM   43  O23 VFQ 61620     -51.457 146.954  11.745  1.00 35.06    -0.395 OA
ATOM     44  H23 VFQ 61620     -51.143 147.150  12.619  1.00  0.00     0.210 HD
ENDROOT
TORSDOF 12
