REMARK VINA RESULT:    -7.901      1.392     16.299
REMARK INTER + INTRA:         -10.388
REMARK INTER:                 -10.029
REMARK INTRA:                  -0.359
REMARK UNBOUND:                -2.487
REMARK  0 active torsions:
REMARK  status: ('A' for Active; 'I' for Inactive)
REMARK       I    between atoms: C3_3  and  O3_21 
REMARK       I    between atoms: C6_6  and  C7_7 
REMARK       I    between atoms: C8_8  and  C9_9 
REMARK       I    between atoms: C10_10  and  C11_11 
REMARK       I    between atoms: C12_12  and  C13_13 
REMARK       I    between atoms: C14_14  and  C15_15 
REMARK       I    between atoms: C23_25  and  O23_43 
REMARK       I    between atoms: C26_28  and  C27_29 
REMARK       I    between atoms: C28_30  and  C29_31 
REMARK       I    between atoms: C30_32  and  C31_33 
REMARK       I    between atoms: C32_34  and  C33_35 
REMARK       I    between atoms: C34_36  and  C35_37 
ROOT
HETATM    1  C1  VFQ 6 619     -50.363 144.749  10.920  1.00 45.52    -0.018 C 
HETATM    2  C2  VFQ 6 619     -50.694 143.731  12.009  1.00 45.52     0.045 C 
HETATM    3  C3  VFQ 6 619     -49.938 143.945  13.315  1.00 45.52     0.123 C 
HETATM    4  C4  VFQ 6 619     -49.696 145.428  13.525  1.00 45.52     0.066 C 
HETATM    5  C5  VFQ 6 619     -48.778 145.874  12.424  1.00 45.52    -0.074 C 
HETATM    6  C6  VFQ 6 619     -49.071 145.481  11.177  1.00 45.52    -0.048 C 
HETATM    7  C7  VFQ 6 619     -48.044 145.472  10.131  1.00 45.52     0.009 C 
HETATM    8  C8  VFQ 6 619     -47.047 144.671  10.514  1.00 45.52     0.007 C 
HETATM    9  C9  VFQ 6 619     -45.921 144.312   9.624  1.00 45.52    -0.062 C 
HETATM   10  C10 VFQ 6 619     -45.134 143.310  10.042  1.00 45.52     0.007 C 
HETATM   11  C11 VFQ 6 619     -44.024 142.760   9.269  1.00 45.52     0.001 C 
HETATM   12  C12 VFQ 6 619     -43.412 141.679   9.729  1.00 45.52     0.007 C 
HETATM   13  C13 VFQ 6 619     -42.328 141.013   8.995  1.00 45.52    -0.062 C 
HETATM   14  C14 VFQ 6 619     -41.926 139.842   9.503  1.00 45.52     0.007 C 
HETATM   15  C15 VFQ 6 619     -40.893 138.987   8.934  1.00 45.52     0.001 C 
HETATM   16  C16 VFQ 6 619     -51.457 145.809  10.870  1.00 45.52     0.020 C 
HETATM   17  C17 VFQ 6 619     -50.263 144.062   9.567  1.00 45.52     0.020 C 
HETATM   18  C18 VFQ 6 619     -47.510 146.589  12.824  1.00 45.52     0.044 C 
HETATM   19  C19 VFQ 6 619     -45.719 145.034   8.322  1.00 45.52     0.048 C 
HETATM   20  C20 VFQ 6 619     -41.750 141.646   7.763  1.00 45.52     0.048 C 
HETATM   21  O3  VFQ 6 619     -50.701 143.435  14.412  1.00 45.52    -0.395 OA
ATOM     22  H3  VFQ 6 619     -50.230 143.569  15.226  1.00  0.00     0.210 HD
HETATM   23  C21 VFQ 6 619     -33.780 128.104   7.588  1.00 31.86    -0.018 C 
HETATM   24  C22 VFQ 6 619     -32.638 127.484   6.773  1.00 31.86     0.045 C 
HETATM   25  C23 VFQ 6 619     -31.872 128.415   5.842  1.00 31.86     0.123 C 
HETATM   26  C24 VFQ 6 619     -32.653 129.688   5.542  1.00 31.86     0.066 C 
HETATM   27  C25 VFQ 6 619     -32.988 130.306   6.866  1.00 31.86    -0.074 C 
HETATM   28  C26 VFQ 6 619     -33.718 129.609   7.734  1.00 31.86    -0.048 C 
HETATM   29  C27 VFQ 6 619     -34.624 130.252   8.710  1.00 31.86     0.009 C 
HETATM   30  C28 VFQ 6 619     -35.225 131.400   8.384  1.00 31.86     0.007 C 
HETATM   31  C29 VFQ 6 619     -36.306 131.920   9.254  1.00 45.52    -0.062 C 
HETATM   32  C30 VFQ 6 619     -36.855 133.070   8.844  1.00 45.52     0.007 C 
HETATM   33  C31 VFQ 6 619     -37.929 133.772   9.531  1.00 45.52     0.001 C 
HETATM   34  C32 VFQ 6 619     -38.330 134.922   9.012  1.00 45.52     0.007 C 
HETATM   35  C33 VFQ 6 619     -39.385 135.732   9.633  1.00 45.52    -0.062 C 
HETATM   36  C34 VFQ 6 619     -39.655 136.915   9.056  1.00 45.52     0.007 C 
HETATM   37  C35 VFQ 6 619     -40.664 137.841   9.555  1.00 45.52     0.001 C 
HETATM   38  C36 VFQ 6 619     -33.815 127.419   8.944  1.00 31.86     0.020 C 
HETATM   39  C37 VFQ 6 619     -35.105 127.828   6.881  1.00 31.86     0.020 C 
HETATM   40  C38 VFQ 6 619     -32.383 131.637   7.219  1.00 31.86     0.044 C 
HETATM   41  C39 VFQ 6 619     -36.738 131.159  10.471  1.00 45.52     0.048 C 
HETATM   42  C40 VFQ 6 619     -40.067 135.202  10.861  1.00 45.52     0.048 C 
HETATM   43  O23 VFQ 6 619     -31.652 127.685   4.636  1.00 31.86    -0.395 OA
ATOM     44  H23 VFQ 6 619     -31.175 128.265   4.056  1.00  0.00     0.210 HD
ENDROOT
TORSDOF 12
