REMARK VINA RESULT:   -11.420      1.013     16.390
REMARK INTER + INTRA:         -11.431
REMARK INTER:                  -9.255
REMARK INTRA:                  -2.176
REMARK UNBOUND:                -0.011
REMARK  0 active torsions:
REMARK  status: ('A' for Active; 'I' for Inactive)
REMARK       I    between atoms: C3_3  and  O3_21 
REMARK       I    between atoms: C6_6  and  C7_7 
REMARK       I    between atoms: C8_8  and  C9_9 
REMARK       I    between atoms: C10_10  and  C11_11 
REMARK       I    between atoms: C12_12  and  C13_13 
REMARK       I    between atoms: C14_14  and  C15_15 
REMARK       I    between atoms: C23_25  and  O23_43 
REMARK       I    between atoms: C26_28  and  C27_29 
REMARK       I    between atoms: C28_30  and  C29_31 
REMARK       I    between atoms: C30_32  and  C31_33 
REMARK       I    between atoms: C32_34  and  C33_35 
REMARK       I    between atoms: C34_36  and  C35_37 
ROOT
HETATM    1  C1  VFQ V1620     -34.275 127.198   6.683  1.00 15.23    -0.018 C 
HETATM    2  C2  VFQ V1620     -34.101 127.260   5.178  1.00 15.23     0.045 C 
HETATM    3  C3  VFQ V1620     -33.230 128.388   4.691  1.00 15.23     0.123 C 
HETATM    4  C4  VFQ V1620     -31.990 128.405   5.535  1.00 15.23     0.066 C 
HETATM    5  C5  VFQ V1620     -32.336 128.683   6.965  1.00 15.23    -0.074 C 
HETATM    6  C6  VFQ V1620     -33.475 128.203   7.471  1.00 15.23    -0.048 C 
HETATM    7  C7  VFQ V1620     -34.136 128.831   8.619  1.00 15.23     0.009 C 
HETATM    8  C8  VFQ V1620     -34.357 130.133   8.416  1.00 15.23     0.007 C 
HETATM    9  C9  VFQ V1620     -35.188 130.930   9.338  1.00 15.23    -0.062 C 
HETATM   10  C10 VFQ V1620     -35.625 132.115   8.890  1.00 15.23     0.007 C 
HETATM   11  C11 VFQ V1620     -36.560 132.958   9.623  1.00 15.23     0.001 C 
HETATM   12  C12 VFQ V1620     -37.134 133.978   9.003  1.00 15.23     0.007 C 
HETATM   13  C13 VFQ V1620     -38.161 134.796   9.662  1.00 15.23    -0.062 C 
HETATM   14  C14 VFQ V1620     -38.839 135.658   8.899  1.00 15.23     0.007 C 
HETATM   15  C15 VFQ V1620     -39.924 136.506   9.382  1.00 15.23     0.001 C 
HETATM   16  C16 VFQ V1620     -33.732 125.850   7.119  1.00 15.23     0.020 C 
HETATM   17  C17 VFQ V1620     -35.756 127.316   6.993  1.00 15.23     0.020 C 
HETATM   18  C18 VFQ V1620     -31.516 129.765   7.601  1.00 15.23     0.044 C 
HETATM   19  C19 VFQ V1620     -35.546 130.384  10.691  1.00 15.23     0.048 C 
HETATM   20  C20 VFQ V1620     -38.428 134.596  11.116  1.00 15.23     0.048 C 
HETATM   21  O3  VFQ V1620     -32.818 128.120   3.355  1.00 15.23    -0.395 OA
ATOM     22  H3  VFQ V1620     -32.269 128.831   3.048  1.00  0.00     0.210 HD
HETATM   23  C21 VFQ V1620     -49.971 144.135  10.088  1.00 21.49    -0.018 C 
HETATM   24  C22 VFQ V1620     -50.997 144.739  11.062  1.00 20.69     0.045 C 
HETATM   25  C23 VFQ V1620     -50.626 145.927  11.948  1.00 22.34     0.123 C 
HETATM   26  C24 VFQ V1620     -49.138 146.328  11.935  1.00 20.89     0.066 C 
HETATM   27  C25 VFQ V1620     -48.178 145.726  10.952  1.00 22.34    -0.074 C 
HETATM   28  C26 VFQ V1620     -48.510 144.710  10.084  1.00 21.76    -0.048 C 
HETATM   29  C27 VFQ V1620     -47.577 144.076   9.107  1.00 21.22     0.009 C 
HETATM   30  C28 VFQ V1620     -46.659 143.101   9.386  1.00 19.00     0.007 C 
HETATM   31  C29 VFQ V1620     -45.739 142.499   8.459  1.00 15.23    -0.062 C 
HETATM   32  C30 VFQ V1620     -45.022 141.477   8.932  1.00 15.23     0.007 C 
HETATM   33  C31 VFQ V1620     -44.040 140.716   8.182  1.00 15.23     0.001 C 
HETATM   34  C32 VFQ V1620     -43.371 139.776   8.839  1.00 15.23     0.007 C 
HETATM   35  C33 VFQ V1620     -42.325 138.973   8.202  1.00 15.23    -0.062 C 
HETATM   36  C34 VFQ V1620     -41.643 138.128   8.986  1.00 15.23     0.007 C 
HETATM   37  C35 VFQ V1620     -40.556 137.280   8.519  1.00 15.23     0.001 C 
HETATM   38  C36 VFQ V1620     -50.588 144.238   8.683  1.00 20.30     0.020 C 
HETATM   39  C37 VFQ V1620     -49.964 142.640  10.488  1.00 19.22     0.020 C 
HETATM   40  C38 VFQ V1620     -46.862 146.400  11.067  1.00 22.01     0.044 C 
HETATM   41  C39 VFQ V1620     -45.682 143.005   7.052  1.00 15.23     0.048 C 
HETATM   42  C40 VFQ V1620     -42.075 139.166   6.742  1.00 15.23     0.048 C 
HETATM   43  O23 VFQ V1620     -51.077 145.714  13.283  1.00 21.61    -0.395 OA
ATOM     44  H23 VFQ V1620     -51.994 145.467  13.290  1.00  0.00     0.210 HD
ENDROOT
TORSDOF 12
