REMARK VINA RESULT:    -9.223      0.000      0.000
REMARK INTER + INTRA:         -12.287
REMARK INTER:                  -9.223
REMARK INTRA:                  -3.064
REMARK UNBOUND:                -3.064
REMARK  0 active torsions:
REMARK  status: ('A' for Active; 'I' for Inactive)
REMARK       I    between atoms: C3_3  and  O3_21 
REMARK       I    between atoms: C6_6  and  C7_7 
REMARK       I    between atoms: C8_8  and  C9_9 
REMARK       I    between atoms: C10_10  and  C11_11 
REMARK       I    between atoms: C12_12  and  C13_13 
REMARK       I    between atoms: C14_14  and  C15_15 
REMARK       I    between atoms: C23_25  and  O23_43 
REMARK       I    between atoms: C26_28  and  C27_29 
REMARK       I    between atoms: C28_30  and  C29_31 
REMARK       I    between atoms: C30_32  and  C31_33 
REMARK       I    between atoms: C32_34  and  C33_35 
REMARK       I    between atoms: C34_36  and  C35_37 
ROOT
HETATM    1  C1  VFQ g1621     -34.566 126.985   6.119  1.00 57.17    -0.018 C 
HETATM    2  C2  VFQ g1621     -34.129 126.354   4.803  1.00 57.17     0.045 C 
HETATM    3  C3  VFQ g1621     -32.897 126.928   4.129  1.00 57.17     0.123 C 
HETATM    4  C4  VFQ g1621     -31.868 127.336   5.160  1.00 57.17     0.066 C 
HETATM    5  C5  VFQ g1621     -32.490 128.338   6.087  1.00 57.17    -0.074 C 
HETATM    6  C6  VFQ g1621     -33.687 128.102   6.638  1.00 57.17    -0.048 C 
HETATM    7  C7  VFQ g1621     -34.188 128.905   7.787  1.00 57.17     0.009 C 
HETATM    8  C8  VFQ g1621     -34.751 130.105   7.617  1.00 57.17     0.007 C 
HETATM    9  C9  VFQ g1621     -35.278 130.930   8.716  1.00 57.17    -0.062 C 
HETATM   10  C10 VFQ g1621     -36.191 131.840   8.367  1.00 57.17     0.007 C 
HETATM   11  C11 VFQ g1621     -36.891 132.759   9.254  1.00 57.17     0.001 C 
HETATM   12  C12 VFQ g1621     -37.790 133.530   8.651  1.00 57.17     0.007 C 
HETATM   13  C13 VFQ g1621     -38.647 134.501   9.344  1.00 57.17    -0.062 C 
HETATM   14  C14 VFQ g1621     -39.451 135.285   8.614  1.00 57.17     0.007 C 
HETATM   15  C15 VFQ g1621     -40.362 136.235   9.238  1.00 57.17     0.001 C 
HETATM   16  C16 VFQ g1621     -34.670 125.859   7.138  1.00 57.17     0.020 C 
HETATM   17  C17 VFQ g1621     -35.938 127.580   5.897  1.00 57.17     0.020 C 
HETATM   18  C18 VFQ g1621     -31.457 129.203   6.745  1.00 57.17     0.044 C 
HETATM   19  C19 VFQ g1621     -34.819 130.755  10.130  1.00 57.17     0.048 C 
HETATM   20  C20 VFQ g1621     -38.649 134.569  10.840  1.00 57.17     0.048 C 
HETATM   21  O3  VFQ g1621     -32.339 125.906   3.302  1.00 57.17    -0.395 OA
ATOM     22  H3  VFQ g1621     -32.985 125.650   2.654  1.00  0.00     0.210 HD
HETATM   23  C21 VFQ g1621     -49.672 143.868  10.816  1.00 42.32    -0.018 C 
HETATM   24  C22 VFQ g1621     -50.661 144.668  11.657  1.00 42.32     0.045 C 
HETATM   25  C23 VFQ g1621     -50.029 145.745  12.533  1.00 42.32     0.123 C 
HETATM   26  C24 VFQ g1621     -48.670 145.291  13.032  1.00 42.32     0.066 C 
HETATM   27  C25 VFQ g1621     -47.782 145.054  11.841  1.00 42.32    -0.074 C 
HETATM   28  C26 VFQ g1621     -48.321 144.540  10.735  1.00 42.32    -0.048 C 
HETATM   29  C27 VFQ g1621     -47.493 144.238   9.564  1.00 42.32     0.009 C 
HETATM   30  C28 VFQ g1621     -46.866 143.084   9.840  1.00 42.32     0.007 C 
HETATM   31  C29 VFQ g1621     -45.970 142.403   8.895  1.00 57.17    -0.062 C 
HETATM   32  C30 VFQ g1621     -45.570 141.177   9.236  1.00 57.17     0.007 C 
HETATM   33  C31 VFQ g1621     -44.681 140.360   8.424  1.00 57.17     0.001 C 
HETATM   34  C32 VFQ g1621     -43.832 139.586   9.087  1.00 57.17     0.007 C 
HETATM   35  C33 VFQ g1621     -42.884 138.708   8.401  1.00 57.17    -0.062 C 
HETATM   36  C34 VFQ g1621     -42.150 137.841   9.104  1.00 57.17     0.007 C 
HETATM   37  C35 VFQ g1621     -41.205 136.924   8.479  1.00 57.17     0.001 C 
HETATM   38  C36 VFQ g1621     -50.205 143.746   9.397  1.00 42.32     0.020 C 
HETATM   39  C37 VFQ g1621     -49.531 142.480  11.428  1.00 42.32     0.020 C 
HETATM   40  C38 VFQ g1621     -46.338 145.442  11.963  1.00 42.32     0.044 C 
HETATM   41  C39 VFQ g1621     -45.523 143.057   7.626  1.00 57.17     0.048 C 
HETATM   42  C40 VFQ g1621     -42.757 138.831   6.927  1.00 57.17     0.048 C 
HETATM   43  O23 VFQ g1621     -50.871 145.992  13.663  1.00 42.32    -0.395 OA
ATOM     44  H23 VFQ g1621     -51.722 146.276  13.351  1.00  0.00     0.210 HD
ENDROOT
TORSDOF 12
