REMARK VINA RESULT:   -10.234      0.615     16.499
REMARK INTER + INTRA:         -10.965
REMARK INTER:                 -10.681
REMARK INTRA:                  -0.284
REMARK UNBOUND:                -0.731
REMARK  0 active torsions:
REMARK  status: ('A' for Active; 'I' for Inactive)
REMARK       I    between atoms: C3_3  and  O3_21 
REMARK       I    between atoms: C6_6  and  C7_7 
REMARK       I    between atoms: C8_8  and  C9_9 
REMARK       I    between atoms: C10_10  and  C11_11 
REMARK       I    between atoms: C12_12  and  C13_13 
REMARK       I    between atoms: C14_14  and  C15_15 
REMARK       I    between atoms: C23_25  and  O23_43 
REMARK       I    between atoms: C26_28  and  C27_29 
REMARK       I    between atoms: C28_30  and  C29_31 
REMARK       I    between atoms: C30_32  and  C31_33 
REMARK       I    between atoms: C32_34  and  C33_35 
REMARK       I    between atoms: C34_36  and  C35_37 
ROOT
HETATM    1  C1  VFQ R 620     -50.149 144.563  10.778  1.00 48.79    -0.018 C 
HETATM    2  C2  VFQ R 620     -50.710 144.771  12.178  1.00 49.38     0.045 C 
HETATM    3  C3  VFQ R 620     -50.708 146.198  12.725  1.00 51.85     0.123 C 
HETATM    4  C4  VFQ R 620     -49.411 146.942  12.460  1.00 54.16     0.066 C 
HETATM    5  C5  VFQ R 620     -48.656 146.518  11.230  1.00 52.93    -0.074 C 
HETATM    6  C6  VFQ R 620     -48.890 145.382  10.551  1.00 53.44    -0.048 C 
HETATM    7  C7  VFQ R 620     -47.913 144.913   9.530  1.00 56.18     0.009 C 
HETATM    8  C8  VFQ R 620     -47.007 143.971   9.795  1.00 54.04     0.007 C 
HETATM    9  C9  VFQ R 620     -46.045 143.472   8.804  1.00 57.87    -0.062 C 
HETATM   10  C10 VFQ R 620     -45.129 142.618   9.252  1.00 59.37     0.007 C 
HETATM   11  C11 VFQ R 620     -44.110 141.994   8.425  1.00 54.77     0.001 C 
HETATM   12  C12 VFQ R 620     -43.442 141.043   9.051  1.00 53.15     0.007 C 
HETATM   13  C13 VFQ R 620     -42.393 140.241   8.426  1.00 52.91    -0.062 C 
HETATM   14  C14 VFQ R 620     -41.942 139.222   9.150  1.00 56.79     0.007 C 
HETATM   15  C15 VFQ R 620     -40.934 138.303   8.664  1.00 60.51     0.001 C 
HETATM   16  C16 VFQ R 620     -51.209 144.917   9.746  1.00 50.92     0.020 C 
HETATM   17  C17 VFQ R 620     -49.834 143.079  10.615  1.00 48.05     0.020 C 
HETATM   18  C18 VFQ R 620     -47.320 147.187  11.225  1.00 55.82     0.044 C 
HETATM   19  C19 VFQ R 620     -46.095 143.887   7.367  1.00 58.46     0.048 C 
HETATM   20  C20 VFQ R 620     -41.879 140.532   7.049  1.00 55.54     0.048 C 
HETATM   21  O3  VFQ R 620     -51.823 146.958  12.242  1.00 50.70    -0.395 OA
ATOM     22  H3  VFQ R 620     -51.821 147.845  12.582  1.00  0.00     0.210 HD
HETATM   23  C21 VFQ R 620     -34.121 128.281   6.961  1.00 19.54    -0.018 C 
HETATM   24  C22 VFQ R 620     -33.231 127.580   5.938  1.00 19.54     0.045 C 
HETATM   25  C23 VFQ R 620     -31.737 127.826   5.985  1.00 19.54     0.123 C 
HETATM   26  C24 VFQ R 620     -31.470 129.298   6.165  1.00 19.54     0.066 C 
HETATM   27  C25 VFQ R 620     -32.222 129.845   7.352  1.00 19.54    -0.074 C 
HETATM   28  C26 VFQ R 620     -33.476 129.467   7.654  1.00 19.54    -0.048 C 
HETATM   29  C27 VFQ R 620     -34.250 130.175   8.718  1.00 19.54     0.009 C 
HETATM   30  C28 VFQ R 620     -34.965 131.287   8.504  1.00 19.54     0.007 C 
HETATM   31  C29 VFQ R 620     -35.724 131.974   9.543  1.00 46.41    -0.062 C 
HETATM   32  C30 VFQ R 620     -36.701 132.745   9.088  1.00 51.67     0.007 C 
HETATM   33  C31 VFQ R 620     -37.591 133.527   9.911  1.00 48.57     0.001 C 
HETATM   34  C32 VFQ R 620     -38.195 134.464   9.210  1.00 50.80     0.007 C 
HETATM   35  C33 VFQ R 620     -39.150 135.392   9.802  1.00 54.69    -0.062 C 
HETATM   36  C34 VFQ R 620     -39.689 136.295   8.986  1.00 55.71     0.007 C 
HETATM   37  C35 VFQ R 620     -40.666 137.263   9.440  1.00 57.66     0.001 C 
HETATM   38  C36 VFQ R 620     -34.494 127.290   8.053  1.00 19.54     0.020 C 
HETATM   39  C37 VFQ R 620     -35.388 128.671   6.209  1.00 19.54     0.020 C 
HETATM   40  C38 VFQ R 620     -31.475 130.834   8.190  1.00 19.54     0.044 C 
HETATM   41  C39 VFQ R 620     -35.428 131.819  11.000  1.00 47.78     0.048 C 
HETATM   42  C40 VFQ R 620     -39.470 135.316  11.261  1.00 56.30     0.048 C 
HETATM   43  O23 VFQ R 620     -31.168 127.417   4.740  1.00 19.54    -0.395 OA
ATOM     44  H23 VFQ R 620     -30.231 127.571   4.769  1.00  0.00     0.210 HD
ENDROOT
TORSDOF 12
