REMARK VINA RESULT:    -7.401      1.656     16.777
REMARK INTER + INTRA:         -10.494
REMARK INTER:                 -10.112
REMARK INTRA:                  -0.382
REMARK UNBOUND:                -3.092
REMARK  0 active torsions:
REMARK  status: ('A' for Active; 'I' for Inactive)
REMARK       I    between atoms: C3_3  and  O3_21 
REMARK       I    between atoms: C6_6  and  C7_7 
REMARK       I    between atoms: C8_8  and  C9_9 
REMARK       I    between atoms: C10_10  and  C11_11 
REMARK       I    between atoms: C12_12  and  C13_13 
REMARK       I    between atoms: C14_14  and  C15_15 
REMARK       I    between atoms: C23_25  and  O23_43 
REMARK       I    between atoms: C26_28  and  C27_29 
REMARK       I    between atoms: C28_30  and  C29_31 
REMARK       I    between atoms: C30_32  and  C31_33 
REMARK       I    between atoms: C32_34  and  C33_35 
REMARK       I    between atoms: C34_36  and  C35_37 
ROOT
HETATM    1  C1  VFQ 3 621     -34.063 128.140   6.944  1.00 19.54    -0.018 C 
HETATM    2  C2  VFQ 3 621     -33.162 127.453   5.921  1.00 19.54     0.045 C 
HETATM    3  C3  VFQ 3 621     -32.013 128.238   5.322  1.00 19.54     0.123 C 
HETATM    4  C4  VFQ 3 621     -31.289 128.990   6.412  1.00 19.54     0.066 C 
HETATM    5  C5  VFQ 3 621     -32.248 129.824   7.223  1.00 19.54    -0.074 C 
HETATM    6  C6  VFQ 3 621     -33.475 129.394   7.565  1.00 19.54    -0.048 C 
HETATM    7  C7  VFQ 3 621     -34.271 130.112   8.605  1.00 19.54     0.009 C 
HETATM    8  C8  VFQ 3 621     -35.050 131.170   8.347  1.00 19.54     0.007 C 
HETATM    9  C9  VFQ 3 621     -35.844 131.882   9.368  1.00 19.54    -0.062 C 
HETATM   10  C10 VFQ 3 621     -36.591 132.915   8.950  1.00 19.54     0.007 C 
HETATM   11  C11 VFQ 3 621     -37.445 133.745   9.795  1.00 19.54     0.001 C 
HETATM   12  C12 VFQ 3 621     -38.031 134.765   9.175  1.00 19.54     0.007 C 
HETATM   13  C13 VFQ 3 621     -38.951 135.714   9.824  1.00 19.54    -0.062 C 
HETATM   14  C14 VFQ 3 621     -39.779 136.402   9.024  1.00 19.54     0.007 C 
HETATM   15  C15 VFQ 3 621     -40.762 137.357   9.520  1.00 19.54     0.001 C 
HETATM   16  C16 VFQ 3 621     -34.391 127.077   7.986  1.00 19.54     0.020 C 
HETATM   17  C17 VFQ 3 621     -35.356 128.559   6.260  1.00 19.54     0.020 C 
HETATM   18  C18 VFQ 3 621     -31.545 130.894   7.997  1.00 19.54     0.044 C 
HETATM   19  C19 VFQ 3 621     -35.800 131.478  10.811  1.00 19.54     0.048 C 
HETATM   20  C20 VFQ 3 621     -38.961 135.905  11.311  1.00 19.54     0.048 C 
HETATM   21  O3  VFQ 3 621     -31.093 127.319   4.727  1.00 19.54    -0.395 OA
ATOM     22  H3  VFQ 3 621     -30.372 127.811   4.352  1.00  0.00     0.210 HD
HETATM   23  C21 VFQ 3 621     -50.758 144.655  10.612  1.00 98.50    -0.018 C 
HETATM   24  C22 VFQ 3 621     -51.502 145.155  11.833  1.00 95.05     0.045 C 
HETATM   25  C23 VFQ 3 621     -51.480 146.664  11.926  1.00 91.19     0.123 C 
HETATM   26  C24 VFQ 3 621     -50.056 147.176  12.006  1.00 95.39     0.066 C 
HETATM   27  C25 VFQ 3 621     -49.057 146.382  11.208  1.00 94.24    -0.074 C 
HETATM   28  C26 VFQ 3 621     -49.385 145.302  10.464  1.00 98.17    -0.048 C 
HETATM   29  C27 VFQ 3 621     -48.456 144.727   9.446  1.00 96.30     0.009 C 
HETATM   30  C28 VFQ 3 621     -47.497 143.845   9.744  1.00 99.74     0.007 C 
HETATM   31  C29 VFQ 3 621     -46.595 143.246   8.770  1.00 19.54    -0.062 C 
HETATM   32  C30 VFQ 3 621     -46.035 142.075   9.077  1.00 19.54     0.007 C 
HETATM   33  C31 VFQ 3 621     -45.118 141.346   8.211  1.00 19.54     0.001 C 
HETATM   34  C32 VFQ 3 621     -44.371 140.452   8.842  1.00 19.54     0.007 C 
HETATM   35  C33 VFQ 3 621     -43.372 139.564   8.232  1.00 19.54    -0.062 C 
HETATM   36  C34 VFQ 3 621     -42.605 138.862   9.078  1.00 19.54     0.007 C 
HETATM   37  C35 VFQ 3 621     -41.583 137.922   8.637  1.00 19.54     0.001 C 
HETATM   38  C36 VFQ 3 621     -51.533 144.991   9.354  1.00 90.00     0.020 C 
HETATM   39  C37 VFQ 3 621     -50.748 143.138  10.745  1.00 93.85     0.020 C 
HETATM   40  C38 VFQ 3 621     -47.660 146.896  11.349  1.00 91.76     0.044 C 
HETATM   41  C39 VFQ 3 621     -46.305 143.918   7.470  1.00 19.54     0.048 C 
HETATM   42  C40 VFQ 3 621     -43.232 139.455   6.746  1.00 19.54     0.048 C 
HETATM   43  O23 VFQ 3 621     -52.158 147.064  13.116  1.00 92.07    -0.395 OA
ATOM     44  H23 VFQ 3 621     -52.144 148.012  13.174  1.00  0.00     0.210 HD
ENDROOT
TORSDOF 12
