REMARK VINA RESULT:    -8.377      1.108     16.761
REMARK INTER + INTRA:         -11.048
REMARK INTER:                 -11.073
REMARK INTRA:                   0.025
REMARK UNBOUND:                -2.671
REMARK  0 active torsions:
REMARK  status: ('A' for Active; 'I' for Inactive)
REMARK       I    between atoms: C3_3  and  O3_21 
REMARK       I    between atoms: C6_6  and  C7_7 
REMARK       I    between atoms: C8_8  and  C9_9 
REMARK       I    between atoms: C10_10  and  C11_11 
REMARK       I    between atoms: C12_12  and  C13_13 
REMARK       I    between atoms: C14_14  and  C15_15 
REMARK       I    between atoms: C23_25  and  O23_43 
REMARK       I    between atoms: C26_28  and  C27_29 
REMARK       I    between atoms: C28_30  and  C29_31 
REMARK       I    between atoms: C30_32  and  C31_33 
REMARK       I    between atoms: C32_34  and  C33_35 
REMARK       I    between atoms: C34_36  and  C35_37 
ROOT
HETATM    1  C1  VFQ 71621     -50.563 144.932  10.377  1.00 71.39    -0.018 C 
HETATM    2  C2  VFQ 71621     -51.291 145.135  11.700  1.00 71.39     0.045 C 
HETATM    3  C3  VFQ 71621     -50.719 146.146  12.685  1.00 71.39     0.123 C 
HETATM    4  C4  VFQ 71621     -49.980 147.259  11.972  1.00 71.39     0.066 C 
HETATM    5  C5  VFQ 71621     -48.925 146.611  11.127  1.00 71.39    -0.074 C 
HETATM    6  C6  VFQ 71621     -49.219 145.619  10.289  1.00 71.39    -0.048 C 
HETATM    7  C7  VFQ 71621     -48.263 145.153   9.249  1.00 71.39     0.009 C 
HETATM    8  C8  VFQ 71621     -47.290 144.285   9.534  1.00 71.39     0.007 C 
HETATM    9  C9  VFQ 71621     -46.323 143.753   8.557  1.00 71.39    -0.062 C 
HETATM   10  C10 VFQ 71621     -45.551 142.748   8.978  1.00 71.39     0.007 C 
HETATM   11  C11 VFQ 71621     -44.542 142.031   8.206  1.00 71.39     0.001 C 
HETATM   12  C12 VFQ 71621     -43.954 141.036   8.869  1.00 71.39     0.007 C 
HETATM   13  C13 VFQ 71621     -42.928 140.139   8.315  1.00 71.39    -0.062 C 
HETATM   14  C14 VFQ 71621     -42.458 139.163   9.101  1.00 71.39     0.007 C 
HETATM   15  C15 VFQ 71621     -41.475 138.199   8.625  1.00 71.39     0.001 C 
HETATM   16  C16 VFQ 71621     -51.485 145.386   9.251  1.00 71.39     0.020 C 
HETATM   17  C17 VFQ 71621     -50.317 143.448  10.202  1.00 71.39     0.020 C 
HETATM   18  C18 VFQ 71621     -47.768 147.524  10.912  1.00 71.39     0.044 C 
HETATM   19  C19 VFQ 71621     -46.216 144.287   7.164  1.00 71.39     0.048 C 
HETATM   20  C20 VFQ 71621     -42.445 140.293   6.909  1.00 71.39     0.048 C 
HETATM   21  O3  VFQ 71621     -51.793 146.736  13.423  1.00 71.39    -0.395 OA
ATOM     22  H3  VFQ 71621     -52.257 146.038  13.870  1.00  0.00     0.210 HD
HETATM   23  C21 VFQ 71621     -33.974 128.103   7.375  1.00 72.69    -0.018 C 
HETATM   24  C22 VFQ 71621     -32.991 127.189   6.643  1.00 72.50     0.045 C 
HETATM   25  C23 VFQ 71621     -31.740 127.822   6.042  1.00 72.53     0.123 C 
HETATM   26  C24 VFQ 71621     -31.956 129.274   5.652  1.00 73.67     0.066 C 
HETATM   27  C25 VFQ 71621     -32.503 130.035   6.829  1.00 74.71    -0.074 C 
HETATM   28  C26 VFQ 71621     -33.497 129.529   7.555  1.00 74.26    -0.048 C 
HETATM   29  C27 VFQ 71621     -34.196 130.367   8.555  1.00 75.37     0.009 C 
HETATM   30  C28 VFQ 71621     -35.172 131.185   8.161  1.00 77.10     0.007 C 
HETATM   31  C29 VFQ 71621     -35.915 132.031   9.105  1.00 71.39    -0.062 C 
HETATM   32  C30 VFQ 71621     -37.041 132.595   8.662  1.00 71.39     0.007 C 
HETATM   33  C31 VFQ 71621     -37.893 133.454   9.476  1.00 71.39     0.001 C 
HETATM   34  C32 VFQ 71621     -38.530 134.431   8.847  1.00 71.39     0.007 C 
HETATM   35  C33 VFQ 71621     -39.424 135.363   9.542  1.00 71.39    -0.062 C 
HETATM   36  C34 VFQ 71621     -40.005 136.343   8.847  1.00 71.39     0.007 C 
HETATM   37  C35 VFQ 71621     -40.934 137.297   9.440  1.00 71.39     0.001 C 
HETATM   38  C36 VFQ 71621     -34.227 127.533   8.765  1.00 72.40     0.020 C 
HETATM   39  C37 VFQ 71621     -35.282 128.117   6.595  1.00 73.92     0.020 C 
HETATM   40  C38 VFQ 71621     -31.906 131.372   7.164  1.00 74.98     0.044 C 
HETATM   41  C39 VFQ 71621     -35.419 132.240  10.500  1.00 71.39     0.048 C 
HETATM   42  C40 VFQ 71621     -39.652 135.189  11.001  1.00 71.39     0.048 C 
HETATM   43  O23 VFQ 71621     -31.383 127.085   4.866  1.00 71.08    -0.395 OA
ATOM     44  H23 VFQ 71621     -30.603 127.479   4.492  1.00  0.00     0.210 HD
ENDROOT
TORSDOF 12
