REMARK VINA RESULT:    -6.962      3.049      4.698
REMARK INTER + INTRA:          -7.169
REMARK INTER:                  -2.854
REMARK INTRA:                  -4.315
REMARK UNBOUND:                -0.207
REMARK  0 active torsions:
REMARK  status: ('A' for Active; 'I' for Inactive)
REMARK       I    between atoms: C3_3  and  O3_21 
REMARK       I    between atoms: C6_6  and  C7_7 
REMARK       I    between atoms: C8_8  and  C9_9 
REMARK       I    between atoms: C10_10  and  C11_11 
REMARK       I    between atoms: C12_12  and  C13_13 
REMARK       I    between atoms: C14_14  and  C15_15 
REMARK       I    between atoms: C23_25  and  O23_43 
REMARK       I    between atoms: C26_28  and  C27_29 
REMARK       I    between atoms: C28_30  and  C29_31 
REMARK       I    between atoms: C30_32  and  C31_33 
REMARK       I    between atoms: C32_34  and  C33_35 
REMARK       I    between atoms: C34_36  and  C35_37 
ROOT
HETATM    1  C1  VFQ 1 617     -49.689 149.942   6.704  1.00 38.90    -0.018 C 
HETATM    2  C2  VFQ 1 617     -50.368 149.400   5.447  1.00 38.90     0.045 C 
HETATM    3  C3  VFQ 1 617     -51.636 148.586   5.686  1.00 38.90     0.123 C 
HETATM    4  C4  VFQ 1 617     -52.237 148.928   7.036  1.00 38.90     0.066 C 
HETATM    5  C5  VFQ 1 617     -51.196 148.559   8.052  1.00 38.90    -0.074 C 
HETATM    6  C6  VFQ 1 617     -49.995 149.133   7.942  1.00 38.90    -0.048 C 
HETATM    7  C7  VFQ 1 617     -48.906 148.809   8.880  1.00 38.90     0.009 C 
HETATM    8  C8  VFQ 1 617     -48.762 147.500   9.073  1.00 38.90     0.007 C 
HETATM    9  C9  VFQ 1 617     -47.613 146.948   9.814  1.00 38.90    -0.062 C 
HETATM   10  C10 VFQ 1 617     -47.369 145.645   9.623  1.00 38.90     0.007 C 
HETATM   11  C11 VFQ 1 617     -46.213 144.938  10.162  1.00 38.90     0.001 C 
HETATM   12  C12 VFQ 1 617     -45.959 143.711   9.724  1.00 38.90     0.007 C 
HETATM   13  C13 VFQ 1 617     -44.769 142.956  10.150  1.00 38.90    -0.062 C 
HETATM   14  C14 VFQ 1 617     -44.532 141.808   9.499  1.00 38.90     0.007 C 
HETATM   15  C15 VFQ 1 617     -43.395 140.926   9.739  1.00 38.90     0.001 C 
HETATM   16  C16 VFQ 1 617     -50.213 151.350   6.979  1.00 38.90     0.020 C 
HETATM   17  C17 VFQ 1 617     -48.181 149.997   6.499  1.00 38.90     0.020 C 
HETATM   18  C18 VFQ 1 617     -51.746 148.022   9.352  1.00 38.90     0.044 C 
HETATM   19  C19 VFQ 1 617     -46.767 147.835  10.682  1.00 38.90     0.048 C 
HETATM   20  C20 VFQ 1 617     -43.895 143.508  11.237  1.00 38.90     0.048 C 
HETATM   21  O3  VFQ 1 617     -52.599 148.867   4.667  1.00 38.90    -0.395 OA
ATOM     22  H3  VFQ 1 617     -53.389 148.360   4.815  1.00  0.00     0.210 HD
HETATM   23  C21 VFQ 1 617     -34.679 132.037   8.691  1.00 66.29    -0.018 C 
HETATM   24  C22 VFQ 1 617     -33.519 131.182   9.184  1.00 66.29     0.045 C 
HETATM   25  C23 VFQ 1 617     -33.773 130.223  10.338  1.00 66.29     0.123 C 
HETATM   26  C24 VFQ 1 617     -34.812 130.767  11.294  1.00 66.29     0.066 C 
HETATM   27  C25 VFQ 1 617     -36.062 131.091  10.533  1.00 66.29    -0.074 C 
HETATM   28  C26 VFQ 1 617     -36.007 131.749   9.369  1.00 66.29    -0.048 C 
HETATM   29  C27 VFQ 1 617     -37.252 132.201   8.698  1.00 66.29     0.009 C 
HETATM   30  C28 VFQ 1 617     -37.813 133.379   8.985  1.00 66.29     0.007 C 
HETATM   31  C29 VFQ 1 617     -39.038 133.858   8.328  1.00 38.90    -0.062 C 
HETATM   32  C30 VFQ 1 617     -39.429 135.077   8.716  1.00 38.90     0.007 C 
HETATM   33  C31 VFQ 1 617     -40.605 135.787   8.235  1.00 38.90     0.001 C 
HETATM   34  C32 VFQ 1 617     -40.844 136.967   8.793  1.00 38.90     0.007 C 
HETATM   35  C33 VFQ 1 617     -42.011 137.793   8.451  1.00 38.90    -0.062 C 
HETATM   36  C34 VFQ 1 617     -42.181 138.917   9.169  1.00 38.90     0.007 C 
HETATM   37  C35 VFQ 1 617     -43.293 139.842   8.984  1.00 38.90     0.001 C 
HETATM   38  C36 VFQ 1 617     -34.846 131.765   7.204  1.00 66.29     0.020 C 
HETATM   39  C37 VFQ 1 617     -34.281 133.496   8.871  1.00 66.29     0.020 C 
HETATM   40  C38 VFQ 1 617     -37.355 130.631  11.140  1.00 66.29     0.044 C 
HETATM   41  C39 VFQ 1 617     -39.731 133.023   7.292  1.00 38.90     0.048 C 
HETATM   42  C40 VFQ 1 617     -42.933 137.324   7.366  1.00 38.90     0.048 C 
HETATM   43  O23 VFQ 1 617     -32.546 130.038  11.053  1.00 66.29    -0.395 OA
ATOM     44  H23 VFQ 1 617     -32.705 129.439  11.773  1.00  0.00     0.210 HD
ENDROOT
TORSDOF 12
