REMARK VINA RESULT:    -9.098      0.000      0.000
REMARK INTER + INTRA:          -9.068
REMARK INTER:                  -9.098
REMARK INTRA:                   0.030
REMARK UNBOUND:                 0.030
REMARK  0 active torsions:
REMARK  status: ('A' for Active; 'I' for Inactive)
REMARK       I    between atoms: C3_3  and  O3_21 
REMARK       I    between atoms: C6_6  and  C7_7 
REMARK       I    between atoms: C8_8  and  C9_9 
REMARK       I    between atoms: C10_10  and  C11_11 
REMARK       I    between atoms: C12_12  and  C13_13 
REMARK       I    between atoms: C14_14  and  C15_15 
REMARK       I    between atoms: C23_25  and  O23_43 
REMARK       I    between atoms: C26_28  and  C27_29 
REMARK       I    between atoms: C28_30  and  C29_31 
REMARK       I    between atoms: C30_32  and  C31_33 
REMARK       I    between atoms: C32_34  and  C33_35 
REMARK       I    between atoms: C34_36  and  C35_37 
ROOT
HETATM    1  C1  VFQ 6 321     -34.086 128.004   7.268  1.00 93.31    -0.018 C 
HETATM    2  C2  VFQ 6 321     -33.189 127.269   6.272  1.00 93.93     0.045 C 
HETATM    3  C3  VFQ 6 321     -32.398 128.151   5.316  1.00 93.98     0.123 C 
HETATM    4  C4  VFQ 6 321     -31.700 129.252   6.093  1.00 93.16     0.066 C 
HETATM    5  C5  VFQ 6 321     -32.723 130.062   6.843  1.00 92.19    -0.074 C 
HETATM    6  C6  VFQ 6 321     -33.776 129.481   7.428  1.00 91.50    -0.048 C 
HETATM    7  C7  VFQ 6 321     -34.676 130.296   8.279  1.00 98.60     0.009 C 
HETATM    8  C8  VFQ 6 321     -35.659 131.037   7.763  1.00 95.09     0.007 C 
HETATM    9  C9  VFQ 6 321     -36.543 131.841   8.632  1.00 91.76    -0.062 C 
HETATM   10  C10 VFQ 6 321     -37.389 132.717   8.074  1.00 98.95     0.007 C 
HETATM   11  C11 VFQ 6 321     -38.289 133.538   8.883  1.00 96.41     0.001 C 
HETATM   12  C12 VFQ 6 321     -39.100 134.396   8.269  1.00 94.60     0.007 C 
HETATM   13  C13 VFQ 6 321     -40.030 135.247   9.035  1.00 93.62    -0.062 C 
HETATM   14  C14 VFQ 6 321     -40.864 136.076   8.389  1.00 93.18     0.007 C 
HETATM   15  C15 VFQ 6 321     -41.792 136.917   9.142  1.00 93.10     0.001 C 
HETATM   16  C16 VFQ 6 321     -33.960 127.321   8.625  1.00 93.81     0.020 C 
HETATM   17  C17 VFQ 6 321     -35.529 127.891   6.787  1.00 92.50     0.020 C 
HETATM   18  C18 VFQ 6 321     -32.366 131.488   7.146  1.00 91.81     0.044 C 
HETATM   19  C19 VFQ 6 321     -36.494 131.679  10.123  1.00 91.57     0.048 C 
HETATM   20  C20 VFQ 6 321     -40.043 135.179  10.533  1.00 93.41     0.048 C 
HETATM   21  O3  VFQ 6 321     -31.414 127.358   4.640  1.00 94.06    -0.395 OA
ATOM     22  H3  VFQ 6 321     -30.921 127.908   4.043  1.00  0.00     0.210 HD
HETATM   23  C21 VFQ 6 321     -51.616 143.700  12.954  1.00 66.61    -0.018 C 
HETATM   24  C22 VFQ 6 321     -52.506 144.532  13.871  1.00 66.61     0.045 C 
HETATM   25  C23 VFQ 6 321     -52.091 145.963  14.172  1.00 66.61     0.123 C 
HETATM   26  C24 VFQ 6 321     -50.585 146.114  14.189  1.00 66.61     0.066 C 
HETATM   27  C25 VFQ 6 321     -50.025 145.613  12.889  1.00 66.61    -0.074 C 
HETATM   28  C26 VFQ 6 321     -50.443 144.459  12.360  1.00 66.61    -0.048 C 
HETATM   29  C27 VFQ 6 321     -49.775 143.893  11.160  1.00 66.61     0.009 C 
HETATM   30  C28 VFQ 6 321     -48.702 143.106  11.263  1.00 66.61     0.007 C 
HETATM   31  C29 VFQ 6 321     -48.025 142.520  10.090  1.00 92.38    -0.062 C 
HETATM   32  C30 VFQ 6 321     -46.975 141.719  10.327  1.00 92.82     0.007 C 
HETATM   33  C31 VFQ 6 321     -46.198 141.058   9.281  1.00 93.26     0.001 C 
HETATM   34  C32 VFQ 6 321     -45.240 140.231   9.696  1.00 94.43     0.007 C 
HETATM   35  C33 VFQ 6 321     -44.362 139.471   8.785  1.00 94.12    -0.062 C 
HETATM   36  C34 VFQ 6 321     -43.511 138.584   9.325  1.00 93.68     0.007 C 
HETATM   37  C35 VFQ 6 321     -42.602 137.773   8.521  1.00 93.36     0.001 C 
HETATM   38  C36 VFQ 6 321     -52.481 143.206  11.805  1.00 66.61     0.020 C 
HETATM   39  C37 VFQ 6 321     -51.137 142.493  13.750  1.00 66.61     0.020 C 
HETATM   40  C38 VFQ 6 321     -48.995 146.480  12.226  1.00 66.61     0.044 C 
HETATM   41  C39 VFQ 6 321     -48.487 142.808   8.692  1.00 91.58     0.048 C 
HETATM   42  C40 VFQ 6 321     -44.422 139.686   7.301  1.00 93.59     0.048 C 
HETATM   43  O23 VFQ 6 321     -52.599 146.321  15.460  1.00 66.61    -0.395 OA
ATOM     44  H23 VFQ 6 321     -52.340 147.215  15.648  1.00  0.00     0.210 HD
ENDROOT
TORSDOF 12
