REMARK VINA RESULT:    -4.285      2.723      4.401
REMARK INTER + INTRA:         -10.830
REMARK INTER:                 -10.447
REMARK INTRA:                  -0.383
REMARK UNBOUND:                -6.546
REMARK  0 active torsions:
REMARK  status: ('A' for Active; 'I' for Inactive)
REMARK       I    between atoms: C3_3  and  O3_21 
REMARK       I    between atoms: C6_6  and  C7_7 
REMARK       I    between atoms: C8_8  and  C9_9 
REMARK       I    between atoms: C10_10  and  C11_11 
REMARK       I    between atoms: C12_12  and  C13_13 
REMARK       I    between atoms: C14_14  and  C15_15 
REMARK       I    between atoms: C23_25  and  O23_43 
REMARK       I    between atoms: C26_28  and  C27_29 
REMARK       I    between atoms: C28_30  and  C29_31 
REMARK       I    between atoms: C30_32  and  C31_33 
REMARK       I    between atoms: C32_34  and  C33_35 
REMARK       I    between atoms: C34_36  and  C35_37 
ROOT
HETATM    1  C1  VFQ 1 617     -50.214 145.152  10.509  1.00 38.90    -0.018 C 
HETATM    2  C2  VFQ 1 617     -50.839 144.442  11.709  1.00 38.90     0.045 C 
HETATM    3  C3  VFQ 1 617     -50.321 144.883  13.075  1.00 38.90     0.123 C 
HETATM    4  C4  VFQ 1 617     -49.706 146.266  12.984  1.00 38.90     0.066 C 
HETATM    5  C5  VFQ 1 617     -48.561 146.143  12.022  1.00 38.90    -0.074 C 
HETATM    6  C6  VFQ 1 617     -48.834 145.698  10.792  1.00 38.90    -0.048 C 
HETATM    7  C7  VFQ 1 617     -47.769 145.521   9.791  1.00 38.90     0.009 C 
HETATM    8  C8  VFQ 1 617     -46.705 144.882  10.274  1.00 38.90     0.007 C 
HETATM    9  C9  VFQ 1 617     -45.610 144.426   9.398  1.00 38.90    -0.062 C 
HETATM   10  C10 VFQ 1 617     -44.807 143.487   9.913  1.00 38.90     0.007 C 
HETATM   11  C11 VFQ 1 617     -43.746 142.816   9.169  1.00 38.90     0.001 C 
HETATM   12  C12 VFQ 1 617     -43.166 141.752   9.711  1.00 38.90     0.007 C 
HETATM   13  C13 VFQ 1 617     -42.146 140.965   8.999  1.00 38.90    -0.062 C 
HETATM   14  C14 VFQ 1 617     -41.774 139.814   9.579  1.00 38.90     0.007 C 
HETATM   15  C15 VFQ 1 617     -40.808 138.871   9.029  1.00 38.90     0.001 C 
HETATM   16  C16 VFQ 1 617     -51.079 146.357  10.144  1.00 38.90     0.020 C 
HETATM   17  C17 VFQ 1 617     -50.145 144.203   9.320  1.00 38.90     0.020 C 
HETATM   18  C18 VFQ 1 617     -47.367 147.008  12.348  1.00 38.90     0.044 C 
HETATM   19  C19 VFQ 1 617     -45.470 144.972   8.006  1.00 38.90     0.048 C 
HETATM   20  C20 VFQ 1 617     -41.616 141.461   7.686  1.00 38.90     0.048 C 
HETATM   21  O3  VFQ 1 617     -51.394 144.914  14.020  1.00 38.90    -0.395 OA
ATOM     22  H3  VFQ 1 617     -51.071 145.189  14.870  1.00  0.00     0.210 HD
HETATM   23  C21 VFQ 1 617     -33.789 128.110   7.544  1.00 22.20    -0.018 C 
HETATM   24  C22 VFQ 1 617     -32.724 127.499   6.642  1.00 22.20     0.045 C 
HETATM   25  C23 VFQ 1 617     -31.985 128.444   5.718  1.00 22.20     0.123 C 
HETATM   26  C24 VFQ 1 617     -32.831 129.663   5.446  1.00 22.20     0.066 C 
HETATM   27  C25 VFQ 1 617     -33.084 130.293   6.775  1.00 22.20    -0.074 C 
HETATM   28  C26 VFQ 1 617     -33.715 129.601   7.703  1.00 22.20    -0.048 C 
HETATM   29  C27 VFQ 1 617     -34.519 130.219   8.767  1.00 22.20     0.009 C 
HETATM   30  C28 VFQ 1 617     -35.195 131.331   8.498  1.00 22.20     0.007 C 
HETATM   31  C29 VFQ 1 617     -36.200 131.835   9.472  1.00 38.90    -0.062 C 
HETATM   32  C30 VFQ 1 617     -36.833 132.939   9.060  1.00 38.90     0.007 C 
HETATM   33  C31 VFQ 1 617     -37.857 133.660   9.801  1.00 38.90     0.001 C 
HETATM   34  C32 VFQ 1 617     -38.318 134.768   9.234  1.00 38.90     0.007 C 
HETATM   35  C33 VFQ 1 617     -39.324 135.633   9.868  1.00 38.90    -0.062 C 
HETATM   36  C34 VFQ 1 617     -39.621 136.777   9.225  1.00 38.90     0.007 C 
HETATM   37  C35 VFQ 1 617     -40.575 137.764   9.717  1.00 38.90     0.001 C 
HETATM   38  C36 VFQ 1 617     -33.711 127.418   8.882  1.00 22.20     0.020 C 
HETATM   39  C37 VFQ 1 617     -35.161 127.849   6.951  1.00 22.20     0.020 C 
HETATM   40  C38 VFQ 1 617     -32.494 131.628   7.062  1.00 22.20     0.044 C 
HETATM   41  C39 VFQ 1 617     -36.470 131.122  10.765  1.00 38.90     0.048 C 
HETATM   42  C40 VFQ 1 617     -39.918 135.209  11.176  1.00 38.90     0.048 C 
HETATM   43  O23 VFQ 1 617     -31.751 127.734   4.509  1.00 22.20    -0.395 OA
ATOM     44  H23 VFQ 1 617     -31.287 128.327   3.929  1.00  0.00     0.210 HD
ENDROOT
TORSDOF 12
