REMARK VINA RESULT:    -6.526      2.952     17.090
REMARK INTER + INTRA:          -6.496
REMARK INTER:                  -3.688
REMARK INTRA:                  -2.807
REMARK UNBOUND:                 0.030
REMARK  0 active torsions:
REMARK  status: ('A' for Active; 'I' for Inactive)
REMARK       I    between atoms: C3_3  and  O3_21 
REMARK       I    between atoms: C6_6  and  C7_7 
REMARK       I    between atoms: C8_8  and  C9_9 
REMARK       I    between atoms: C10_10  and  C11_11 
REMARK       I    between atoms: C12_12  and  C13_13 
REMARK       I    between atoms: C14_14  and  C15_15 
REMARK       I    between atoms: C23_25  and  O23_43 
REMARK       I    between atoms: C26_28  and  C27_29 
REMARK       I    between atoms: C28_30  and  C29_31 
REMARK       I    between atoms: C30_32  and  C31_33 
REMARK       I    between atoms: C32_34  and  C33_35 
REMARK       I    between atoms: C34_36  and  C35_37 
ROOT
HETATM    1  C1  VFQ 6 321     -48.991 150.220   8.289  1.00 93.31    -0.018 C 
HETATM    2  C2  VFQ 6 321     -50.388 150.836   8.204  1.00 93.93     0.045 C 
HETATM    3  C3  VFQ 6 321     -51.437 150.232   9.128  1.00 93.98     0.123 C 
HETATM    4  C4  VFQ 6 321     -50.883 150.131  10.537  1.00 93.16     0.066 C 
HETATM    5  C5  VFQ 6 321     -49.634 149.292  10.525  1.00 92.19    -0.074 C 
HETATM    6  C6  VFQ 6 321     -48.745 149.379   9.529  1.00 91.50    -0.048 C 
HETATM    7  C7  VFQ 6 321     -47.462 148.645   9.632  1.00 98.60     0.009 C 
HETATM    8  C8  VFQ 6 321     -47.358 147.354   9.307  1.00 95.09     0.007 C 
HETATM    9  C9  VFQ 6 321     -46.067 146.643   9.419  1.00 91.76    -0.062 C 
HETATM   10  C10 VFQ 6 321     -46.038 145.312   9.271  1.00 98.95     0.007 C 
HETATM   11  C11 VFQ 6 321     -44.791 144.555   9.368  1.00 96.41     0.001 C 
HETATM   12  C12 VFQ 6 321     -44.829 143.234   9.220  1.00 94.60     0.007 C 
HETATM   13  C13 VFQ 6 321     -43.601 142.421   9.305  1.00 93.62    -0.062 C 
HETATM   14  C14 VFQ 6 321     -43.663 141.094   9.113  1.00 93.18     0.007 C 
HETATM   15  C15 VFQ 6 321     -42.449 140.285   9.192  1.00 93.10     0.001 C 
HETATM   16  C16 VFQ 6 321     -47.965 151.346   8.242  1.00 93.81     0.020 C 
HETATM   17  C17 VFQ 6 321     -48.792 149.315   7.079  1.00 92.50     0.020 C 
HETATM   18  C18 VFQ 6 321     -49.291 148.572  11.798  1.00 91.81     0.044 C 
HETATM   19  C19 VFQ 6 321     -44.803 147.403   9.695  1.00 91.57     0.048 C 
HETATM   20  C20 VFQ 6 321     -42.288 143.081   9.602  1.00 93.41     0.048 C 
HETATM   21  O3  VFQ 6 321     -52.600 151.068   9.139  1.00 94.06    -0.395 OA
ATOM     22  H3  VFQ 6 321     -53.254 150.691   9.716  1.00  0.00     0.210 HD
HETATM   23  C21 VFQ 6 321     -33.608 131.541   7.629  1.00 66.61    -0.018 C 
HETATM   24  C22 VFQ 6 321     -32.267 130.827   7.765  1.00 66.61     0.045 C 
HETATM   25  C23 VFQ 6 321     -31.952 130.135   9.083  1.00 66.61     0.123 C 
HETATM   26  C24 VFQ 6 321     -32.582 130.856  10.255  1.00 66.61     0.066 C 
HETATM   27  C25 VFQ 6 321     -34.058 130.991  10.014  1.00 66.61    -0.074 C 
HETATM   28  C26 VFQ 6 321     -34.528 131.385   8.826  1.00 66.61    -0.048 C 
HETATM   29  C27 VFQ 6 321     -35.975 131.668   8.643  1.00 66.61     0.009 C 
HETATM   30  C28 VFQ 6 321     -36.491 132.871   8.904  1.00 66.61     0.007 C 
HETATM   31  C29 VFQ 6 321     -37.921 133.184   8.720  1.00 92.38    -0.062 C 
HETATM   32  C30 VFQ 6 321     -38.311 134.440   8.987  1.00 92.82     0.007 C 
HETATM   33  C31 VFQ 6 321     -39.686 134.915   8.854  1.00 93.26     0.001 C 
HETATM   34  C32 VFQ 6 321     -39.882 136.212   9.080  1.00 94.43     0.007 C 
HETATM   35  C33 VFQ 6 321     -41.200 136.871   8.984  1.00 94.12    -0.062 C 
HETATM   36  C34 VFQ 6 321     -41.249 138.205   9.124  1.00 93.68     0.007 C 
HETATM   37  C35 VFQ 6 321     -42.495 138.961   9.041  1.00 93.36     0.001 C 
HETATM   38  C36 VFQ 6 321     -34.315 130.954   6.417  1.00 66.61     0.020 C 
HETATM   39  C37 VFQ 6 321     -33.318 133.011   7.352  1.00 66.61     0.020 C 
HETATM   40  C38 VFQ 6 321     -34.958 130.650  11.166  1.00 66.61     0.044 C 
HETATM   41  C39 VFQ 6 321     -38.898 132.145   8.256  1.00 91.58     0.048 C 
HETATM   42  C40 VFQ 6 321     -42.444 136.069   8.737  1.00 93.59     0.048 C 
HETATM   43  O23 VFQ 6 321     -30.533 130.128   9.261  1.00 66.61    -0.395 OA
ATOM     44  H23 VFQ 6 321     -30.336 129.696  10.084  1.00  0.00     0.210 HD
ENDROOT
TORSDOF 12
