REMARK VINA RESULT:   -11.103      0.000      0.000
REMARK INTER + INTRA:         -13.755
REMARK INTER:                 -11.103
REMARK INTRA:                  -2.652
REMARK UNBOUND:                -2.652
REMARK  0 active torsions:
REMARK  status: ('A' for Active; 'I' for Inactive)
REMARK       I    between atoms: C3_3  and  O3_21 
REMARK       I    between atoms: C6_6  and  C7_7 
REMARK       I    between atoms: C8_8  and  C9_9 
REMARK       I    between atoms: C10_10  and  C11_11 
REMARK       I    between atoms: C12_12  and  C13_13 
REMARK       I    between atoms: C14_14  and  C15_15 
REMARK       I    between atoms: C23_25  and  O23_43 
REMARK       I    between atoms: C26_28  and  C27_29 
REMARK       I    between atoms: C28_30  and  C29_31 
REMARK       I    between atoms: C30_32  and  C31_33 
REMARK       I    between atoms: C32_34  and  C33_35 
REMARK       I    between atoms: C34_36  and  C35_37 
ROOT
HETATM    1  C1  VFQ I8621     -47.830 145.966  12.782  1.00 22.25    -0.018 C 
HETATM    2  C2  VFQ I8621     -48.568 146.511  14.015  1.00 20.45     0.045 C 
HETATM    3  C3  VFQ I8621     -47.853 147.445  14.986  1.00 22.17     0.123 C 
HETATM    4  C4  VFQ I8621     -46.524 148.033  14.491  1.00 20.30     0.066 C 
HETATM    5  C5  VFQ I8621     -45.789 147.402  13.356  1.00 20.75    -0.074 C 
HETATM    6  C6  VFQ I8621     -46.359 146.446  12.541  1.00 21.23    -0.048 C 
HETATM    7  C7  VFQ I8621     -45.686 145.794  11.395  1.00 18.62     0.009 C 
HETATM    8  C8  VFQ I8621     -44.810 144.775  11.496  1.00 19.71     0.007 C 
HETATM    9  C9  VFQ I8621     -44.087 144.087  10.423  1.00 18.91    -0.062 C 
HETATM   10  C10 VFQ I8621     -43.361 142.998  10.757  1.00 16.97     0.007 C 
HETATM   11  C11 VFQ I8621     -42.664 142.137   9.850  1.00 17.11     0.001 C 
HETATM   12  C12 VFQ I8621     -42.048 141.017  10.259  1.00 17.32     0.007 C 
HETATM   13  C13 VFQ I8621     -41.386 140.016   9.414  1.00 18.45    -0.062 C 
HETATM   14  C14 VFQ I8621     -40.863 138.927  10.016  1.00 18.02     0.007 C 
HETATM   15  C15 VFQ I8621     -40.238 137.808   9.377  1.00 17.18     0.001 C 
HETATM   16  C16 VFQ I8621     -48.736 146.419  11.620  1.00 20.14     0.020 C 
HETATM   17  C17 VFQ I8621     -47.896 144.416  12.868  1.00 21.86     0.020 C 
HETATM   18  C18 VFQ I8621     -44.429 148.000  13.268  1.00 20.13     0.044 C 
HETATM   19  C19 VFQ I8621     -44.272 144.585   9.018  1.00 18.10     0.048 C 
HETATM   20  C20 VFQ I8621     -41.374 140.248   7.925  1.00 17.04     0.048 C 
HETATM   21  O3  VFQ I8621     -48.731 148.483  15.406  1.00 24.42    -0.395 OA
ATOM     22  H3  VFQ I8621     -48.285 149.064  16.011  1.00  0.00     0.210 HD
HETATM   23  C21 VFQ I8621     -34.318 126.702   6.477  1.00 16.49    -0.018 C 
HETATM   24  C22 VFQ I8621     -33.865 125.850   5.276  1.00 14.93     0.045 C 
HETATM   25  C23 VFQ I8621     -32.645 126.272   4.464  1.00 15.86     0.123 C 
HETATM   26  C24 VFQ I8621     -32.270 127.762   4.583  1.00 14.41     0.066 C 
HETATM   27  C25 VFQ I8621     -32.723 128.570   5.768  1.00 15.44    -0.074 C 
HETATM   28  C26 VFQ I8621     -33.678 128.117   6.658  1.00 14.73    -0.048 C 
HETATM   29  C27 VFQ I8621     -34.158 128.888   7.832  1.00 14.04     0.009 C 
HETATM   30  C28 VFQ I8621     -35.098 129.860   7.792  1.00 12.72     0.007 C 
HETATM   31  C29 VFQ I8621     -35.586 130.704   8.883  1.00 22.55    -0.062 C 
HETATM   32  C30 VFQ I8621     -36.507 131.658   8.623  1.00 20.56     0.007 C 
HETATM   33  C31 VFQ I8621     -37.093 132.557   9.587  1.00 20.09     0.001 C 
HETATM   34  C32 VFQ I8621     -37.864 133.610   9.226  1.00 17.50     0.007 C 
HETATM   35  C33 VFQ I8621     -38.486 134.636  10.073  1.00 16.61    -0.062 C 
HETATM   36  C34 VFQ I8621     -39.110 135.661   9.454  1.00 17.58     0.007 C 
HETATM   37  C35 VFQ I8621     -39.728 136.804  10.084  1.00 19.85     0.001 C 
HETATM   38  C36 VFQ I8621     -34.086 125.854   7.754  1.00 14.27     0.020 C 
HETATM   39  C37 VFQ I8621     -35.842 126.817   6.220  1.00 12.26     0.020 C 
HETATM   40  C38 VFQ I8621     -31.991 129.868   5.852  1.00 13.78     0.044 C 
HETATM   41  C39 VFQ I8621     -34.965 130.495  10.235  1.00 24.32     0.048 C 
HETATM   42  C40 VFQ I8621     -38.318 134.533  11.556  1.00 12.09     0.048 C 
HETATM   43  O23 VFQ I8621     -32.813 125.907   3.102  1.00 14.46    -0.395 OA
ATOM     44  H23 VFQ I8621     -33.045 124.988   3.028  1.00  0.00     0.210 HD
ENDROOT
TORSDOF 12
