REMARK VINA RESULT:    -9.711      1.360     17.161
REMARK INTER + INTRA:         -10.492
REMARK INTER:                  -7.379
REMARK INTRA:                  -3.113
REMARK UNBOUND:                -0.781
REMARK  0 active torsions:
REMARK  status: ('A' for Active; 'I' for Inactive)
REMARK       I    between atoms: C3_3  and  O3_21 
REMARK       I    between atoms: C6_6  and  C7_7 
REMARK       I    between atoms: C8_8  and  C9_9 
REMARK       I    between atoms: C10_10  and  C11_11 
REMARK       I    between atoms: C12_12  and  C13_13 
REMARK       I    between atoms: C14_14  and  C15_15 
REMARK       I    between atoms: C23_25  and  O23_43 
REMARK       I    between atoms: C26_28  and  C27_29 
REMARK       I    between atoms: C28_30  and  C29_31 
REMARK       I    between atoms: C30_32  and  C31_33 
REMARK       I    between atoms: C32_34  and  C33_35 
REMARK       I    between atoms: C34_36  and  C35_37 
ROOT
HETATM    1  C1  VFQ B1621     -34.551 127.242   6.046  1.00 16.49    -0.018 C 
HETATM    2  C2  VFQ B1621     -34.056 126.474   4.806  1.00 14.93     0.045 C 
HETATM    3  C3  VFQ B1621     -32.816 126.957   4.059  1.00 15.86     0.123 C 
HETATM    4  C4  VFQ B1621     -31.872 127.855   4.881  1.00 14.41     0.066 C 
HETATM    5  C5  VFQ B1621     -32.384 128.597   6.085  1.00 15.44    -0.074 C 
HETATM    6  C6  VFQ B1621     -33.611 128.331   6.660  1.00 14.73    -0.048 C 
HETATM    7  C7  VFQ B1621     -34.130 129.010   7.873  1.00 14.04     0.009 C 
HETATM    8  C8  VFQ B1621     -34.731 130.223   7.889  1.00 12.72     0.007 C 
HETATM    9  C9  VFQ B1621     -35.221 130.995   9.035  1.00 12.70    -0.062 C 
HETATM   10  C10 VFQ B1621     -35.910 132.129   8.770  1.00 13.26     0.007 C 
HETATM   11  C11 VFQ B1621     -36.570 132.994   9.721  1.00 13.12     0.001 C 
HETATM   12  C12 VFQ B1621     -37.286 134.070   9.317  1.00 12.34     0.007 C 
HETATM   13  C13 VFQ B1621     -38.108 134.956  10.164  1.00 12.89    -0.062 C 
HETATM   14  C14 VFQ B1621     -38.773 135.973   9.567  1.00 12.03     0.007 C 
HETATM   15  C15 VFQ B1621     -39.668 136.921  10.198  1.00 13.59     0.001 C 
HETATM   16  C16 VFQ B1621     -34.787 126.088   7.054  1.00 14.27     0.020 C 
HETATM   17  C17 VFQ B1621     -35.916 127.875   5.677  1.00 12.26     0.020 C 
HETATM   18  C18 VFQ B1621     -31.367 129.565   6.596  1.00 13.78     0.044 C 
HETATM   19  C19 VFQ B1621     -34.991 130.438  10.409  1.00  8.79     0.048 C 
HETATM   20  C20 VFQ B1621     -38.177 134.643  11.640  1.00  8.63     0.048 C 
HETATM   21  O3  VFQ B1621     -32.109 125.850   3.518  1.00 14.46    -0.395 OA
ATOM     22  H3  VFQ B1621     -31.337 126.151   3.053  1.00  0.00     0.210 HD
HETATM   23  C21 VFQ B1621     -47.956 146.264  13.387  1.00 98.50    -0.018 C 
HETATM   24  C22 VFQ B1621     -48.605 146.578  14.720  1.00 95.05     0.045 C 
HETATM   25  C23 VFQ B1621     -48.007 147.812  15.357  1.00 91.19     0.123 C 
HETATM   26  C24 VFQ B1621     -46.522 147.629  15.594  1.00 95.39     0.066 C 
HETATM   27  C25 VFQ B1621     -45.815 146.818  14.542  1.00 94.24    -0.074 C 
HETATM   28  C26 VFQ B1621     -46.435 146.293  13.461  1.00 98.17    -0.048 C 
HETATM   29  C27 VFQ B1621     -45.674 145.771  12.287  1.00 96.30     0.009 C 
HETATM   30  C28 VFQ B1621     -45.185 144.528  12.225  1.00 99.74     0.007 C 
HETATM   31  C29 VFQ B1621     -44.450 143.946  11.078  1.00 21.33    -0.062 C 
HETATM   32  C30 VFQ B1621     -43.969 142.688  11.188  1.00 19.38     0.007 C 
HETATM   33  C31 VFQ B1621     -43.219 141.972  10.183  1.00 19.44     0.001 C 
HETATM   34  C32 VFQ B1621     -42.607 140.793  10.475  1.00 17.56     0.007 C 
HETATM   35  C33 VFQ B1621     -41.751 139.955   9.619  1.00 14.52    -0.062 C 
HETATM   36  C34 VFQ B1621     -41.166 138.872  10.177  1.00 13.82     0.007 C 
HETATM   37  C35 VFQ B1621     -40.257 137.935   9.536  1.00 15.60     0.001 C 
HETATM   38  C36 VFQ B1621     -48.359 147.296  12.353  1.00 90.00     0.020 C 
HETATM   39  C37 VFQ B1621     -48.557 144.934  12.955  1.00 93.85     0.020 C 
HETATM   40  C38 VFQ B1621     -44.361 146.628  14.836  1.00 91.76     0.044 C 
HETATM   41  C39 VFQ B1621     -44.211 144.823   9.889  1.00 21.43     0.048 C 
HETATM   42  C40 VFQ B1621     -41.535 140.398   8.209  1.00 13.28     0.048 C 
HETATM   43  O23 VFQ B1621     -48.630 148.026  16.623  1.00 92.07    -0.395 OA
ATOM     44  H23 VFQ B1621     -49.561 148.141  16.474  1.00  0.00     0.210 HD
ENDROOT
TORSDOF 12
