REMARK VINA RESULT:   -10.082      0.000      0.000
REMARK INTER + INTRA:         -10.471
REMARK INTER:                 -10.082
REMARK INTRA:                  -0.389
REMARK UNBOUND:                -0.389
REMARK  0 active torsions:
REMARK  status: ('A' for Active; 'I' for Inactive)
REMARK       I    between atoms: C3_3  and  O3_21 
REMARK       I    between atoms: C6_6  and  C7_7 
REMARK       I    between atoms: C8_8  and  C9_9 
REMARK       I    between atoms: C10_10  and  C11_11 
REMARK       I    between atoms: C12_12  and  C13_13 
REMARK       I    between atoms: C14_14  and  C15_15 
REMARK       I    between atoms: C23_25  and  O23_43 
REMARK       I    between atoms: C26_28  and  C27_29 
REMARK       I    between atoms: C28_30  and  C29_31 
REMARK       I    between atoms: C30_32  and  C31_33 
REMARK       I    between atoms: C32_34  and  C33_35 
REMARK       I    between atoms: C34_36  and  C35_37 
ROOT
HETATM    1  C1  VFQ F5621     -34.146 128.262   6.985  1.00 20.77    -0.018 C 
HETATM    2  C2  VFQ F5621     -33.496 127.655   5.732  1.00 19.21     0.045 C 
HETATM    3  C3  VFQ F5621     -32.103 128.102   5.292  1.00 20.68     0.123 C 
HETATM    4  C4  VFQ F5621     -31.449 129.187   6.154  1.00 17.77     0.066 C 
HETATM    5  C5  VFQ F5621     -32.215 129.901   7.220  1.00 19.05    -0.074 C 
HETATM    6  C6  VFQ F5621     -33.472 129.510   7.641  1.00 19.48    -0.048 C 
HETATM    7  C7  VFQ F5621     -34.273 130.199   8.689  1.00 16.56     0.009 C 
HETATM    8  C8  VFQ F5621     -35.002 131.332   8.500  1.00 15.55     0.007 C 
HETATM    9  C9  VFQ F5621     -35.790 132.106   9.472  1.00 14.22    -0.062 C 
HETATM   10  C10 VFQ F5621     -36.535 133.131   9.001  1.00 14.29     0.007 C 
HETATM   11  C11 VFQ F5621     -37.444 133.962   9.752  1.00 14.32     0.001 C 
HETATM   12  C12 VFQ F5621     -38.226 134.898   9.162  1.00 14.19     0.007 C 
HETATM   13  C13 VFQ F5621     -39.271 135.748   9.794  1.00 15.26    -0.062 C 
HETATM   14  C14 VFQ F5621     -39.970 136.591   9.001  1.00 15.45     0.007 C 
HETATM   15  C15 VFQ F5621     -41.059 137.455   9.389  1.00 16.70     0.001 C 
HETATM   16  C16 VFQ F5621     -34.169 127.086   7.993  1.00 20.67     0.020 C 
HETATM   17  C17 VFQ F5621     -35.606 128.576   6.594  1.00 19.98     0.020 C 
HETATM   18  C18 VFQ F5621     -31.396 131.045   7.710  1.00 17.40     0.044 C 
HETATM   19  C19 VFQ F5621     -35.777 131.656  10.899  1.00 13.40     0.048 C 
HETATM   20  C20 VFQ F5621     -39.512 135.590  11.268  1.00 11.87     0.048 C 
HETATM   21  O3  VFQ F5621     -31.237 126.978   5.162  1.00 20.33    -0.395 OA
ATOM     22  H3  VFQ F5621     -30.371 127.256   4.888  1.00  0.00     0.210 HD
HETATM   23  C21 VFQ F5621     -50.681 146.331  10.336  1.00 27.99    -0.018 C 
HETATM   24  C22 VFQ F5621     -51.768 146.778  11.323  1.00 27.99     0.045 C 
HETATM   25  C23 VFQ F5621     -51.414 146.628  12.797  1.00 27.99     0.123 C 
HETATM   26  C24 VFQ F5621     -50.696 145.306  12.989  1.00 27.99     0.066 C 
HETATM   27  C25 VFQ F5621     -49.392 145.448  12.261  1.00 27.99    -0.074 C 
HETATM   28  C26 VFQ F5621     -49.404 145.796  10.968  1.00 27.99    -0.048 C 
HETATM   29  C27 VFQ F5621     -48.284 145.471  10.056  1.00 27.99     0.009 C 
HETATM   30  C28 VFQ F5621     -47.663 144.295  10.221  1.00 27.99     0.007 C 
HETATM   31  C29 VFQ F5621     -46.693 143.786   9.188  1.00 22.13    -0.062 C 
HETATM   32  C30 VFQ F5621     -46.082 142.611   9.454  1.00 22.11     0.007 C 
HETATM   33  C31 VFQ F5621     -45.123 141.934   8.608  1.00 21.40     0.001 C 
HETATM   34  C32 VFQ F5621     -44.417 140.862   9.033  1.00 17.66     0.007 C 
HETATM   35  C33 VFQ F5621     -43.379 140.102   8.321  1.00 16.53    -0.062 C 
HETATM   36  C34 VFQ F5621     -42.737 139.131   9.008  1.00 14.90     0.007 C 
HETATM   37  C35 VFQ F5621     -41.663 138.299   8.543  1.00 15.48     0.001 C 
HETATM   38  C36 VFQ F5621     -50.400 147.484   9.376  1.00 27.99     0.020 C 
HETATM   39  C37 VFQ F5621     -51.225 145.128   9.564  1.00 27.99     0.020 C 
HETATM   40  C38 VFQ F5621     -48.124 145.325  13.061  1.00 27.99     0.044 C 
HETATM   41  C39 VFQ F5621     -46.403 144.614   7.975  1.00 22.70     0.048 C 
HETATM   42  C40 VFQ F5621     -43.054 140.507   6.912  1.00 12.92     0.048 C 
HETATM   43  O23 VFQ F5621     -52.600 146.672  13.600  1.00 27.99    -0.395 OA
ATOM     44  H23 VFQ F5621     -52.379 146.578  14.520  1.00  0.00     0.210 HD
ENDROOT
TORSDOF 12
