REMARK VINA RESULT:   -10.206      1.375     16.481
REMARK INTER + INTRA:         -10.816
REMARK INTER:                  -7.180
REMARK INTRA:                  -3.636
REMARK UNBOUND:                -0.610
REMARK  0 active torsions:
REMARK  status: ('A' for Active; 'I' for Inactive)
REMARK       I    between atoms: C3_3  and  O3_21 
REMARK       I    between atoms: C6_6  and  C7_7 
REMARK       I    between atoms: C8_8  and  C9_9 
REMARK       I    between atoms: C10_10  and  C11_11 
REMARK       I    between atoms: C12_12  and  C13_13 
REMARK       I    between atoms: C14_14  and  C15_15 
REMARK       I    between atoms: C23_25  and  O23_43 
REMARK       I    between atoms: C26_28  and  C27_29 
REMARK       I    between atoms: C28_30  and  C29_31 
REMARK       I    between atoms: C30_32  and  C31_33 
REMARK       I    between atoms: C32_34  and  C33_35 
REMARK       I    between atoms: C34_36  and  C35_37 
ROOT
HETATM    1  C1  VFQ 7 622     -34.461 126.928   5.942  1.00 13.75    -0.018 C 
HETATM    2  C2  VFQ 7 622     -33.838 126.054   4.864  1.00 13.75     0.045 C 
HETATM    3  C3  VFQ 7 622     -32.784 126.764   4.046  1.00 13.75     0.123 C 
HETATM    4  C4  VFQ 7 622     -31.723 127.279   4.982  1.00 13.75     0.066 C 
HETATM    5  C5  VFQ 7 622     -32.339 128.238   5.957  1.00 13.75    -0.074 C 
HETATM    6  C6  VFQ 7 622     -33.572 128.051   6.457  1.00 13.75    -0.048 C 
HETATM    7  C7  VFQ 7 622     -34.128 128.877   7.566  1.00 13.75     0.009 C 
HETATM    8  C8  VFQ 7 622     -34.638 130.108   7.428  1.00 13.75     0.007 C 
HETATM    9  C9  VFQ 7 622     -35.202 130.853   8.572  1.00 13.75    -0.062 C 
HETATM   10  C10 VFQ 7 622     -35.989 131.900   8.294  1.00 13.75     0.007 C 
HETATM   11  C11 VFQ 7 622     -36.664 132.738   9.280  1.00 13.75     0.001 C 
HETATM   12  C12 VFQ 7 622     -37.636 133.493   8.781  1.00 13.75     0.007 C 
HETATM   13  C13 VFQ 7 622     -38.505 134.414   9.532  1.00 13.75    -0.062 C 
HETATM   14  C14 VFQ 7 622     -39.279 135.249   8.821  1.00 13.75     0.007 C 
HETATM   15  C15 VFQ 7 622     -40.213 136.181   9.434  1.00 13.75     0.001 C 
HETATM   16  C16 VFQ 7 622     -34.869 125.991   7.069  1.00 13.75     0.020 C 
HETATM   17  C17 VFQ 7 622     -35.702 127.582   5.354  1.00 13.75     0.020 C 
HETATM   18  C18 VFQ 7 622     -31.359 129.209   6.528  1.00 13.75     0.044 C 
HETATM   19  C19 VFQ 7 622     -34.910 130.440   9.982  1.00 13.75     0.048 C 
HETATM   20  C20 VFQ 7 622     -38.556 134.393  11.030  1.00 13.75     0.048 C 
HETATM   21  O3  VFQ 7 622     -32.190 125.850   3.124  1.00 13.75    -0.395 OA
ATOM     22  H3  VFQ 7 622     -32.860 125.525   2.534  1.00  0.00     0.210 HD
HETATM   23  C21 VFQ 7 622     -49.561 143.397  11.510  1.00 33.88    -0.018 C 
HETATM   24  C22 VFQ 7 622     -50.469 143.995  12.575  1.00 33.88     0.045 C 
HETATM   25  C23 VFQ 7 622     -50.013 145.337  13.107  1.00 33.88     0.123 C 
HETATM   26  C24 VFQ 7 622     -48.600 145.157  13.619  1.00 33.88     0.066 C 
HETATM   27  C25 VFQ 7 622     -47.706 144.735  12.482  1.00 33.88    -0.074 C 
HETATM   28  C26 VFQ 7 622     -48.242 144.162  11.400  1.00 33.88    -0.048 C 
HETATM   29  C27 VFQ 7 622     -47.443 143.972  10.182  1.00 33.88     0.009 C 
HETATM   30  C28 VFQ 7 622     -46.911 142.744  10.231  1.00 33.88     0.007 C 
HETATM   31  C29 VFQ 7 622     -45.991 142.213   9.205  1.00 13.75    -0.062 C 
HETATM   32  C30 VFQ 7 622     -45.467 141.007   9.453  1.00 13.75     0.007 C 
HETATM   33  C31 VFQ 7 622     -44.559 140.295   8.566  1.00 13.75     0.001 C 
HETATM   34  C32 VFQ 7 622     -43.780 139.398   9.155  1.00 13.75     0.007 C 
HETATM   35  C33 VFQ 7 622     -42.804 138.553   8.450  1.00 13.75    -0.062 C 
HETATM   36  C34 VFQ 7 622     -42.030 137.755   9.199  1.00 13.75     0.007 C 
HETATM   37  C35 VFQ 7 622     -41.047 136.842   8.635  1.00 13.75     0.001 C 
HETATM   38  C36 VFQ 7 622     -50.297 143.538  10.180  1.00 33.88     0.020 C 
HETATM   39  C37 VFQ 7 622     -49.458 141.915  11.863  1.00 33.88     0.020 C 
HETATM   40  C38 VFQ 7 622     -46.225 144.964  12.646  1.00 33.88     0.044 C 
HETATM   41  C39 VFQ 7 622     -45.677 142.972   7.955  1.00 13.75     0.048 C 
HETATM   42  C40 VFQ 7 622     -42.695 138.575   6.956  1.00 13.75     0.048 C 
HETATM   43  O23 VFQ 7 622     -50.892 145.680  14.185  1.00 33.88    -0.395 OA
ATOM     44  H23 VFQ 7 622     -50.606 146.522  14.519  1.00  0.00     0.210 HD
ENDROOT
TORSDOF 12
