REMARK VINA RESULT:   -11.303      0.000      0.000
REMARK INTER + INTRA:         -11.617
REMARK INTER:                 -11.303
REMARK INTRA:                  -0.314
REMARK UNBOUND:                -0.314
REMARK  0 active torsions:
REMARK  status: ('A' for Active; 'I' for Inactive)
REMARK       I    between atoms: C3_3  and  O3_21 
REMARK       I    between atoms: C6_6  and  C7_7 
REMARK       I    between atoms: C8_8  and  C9_9 
REMARK       I    between atoms: C10_10  and  C11_11 
REMARK       I    between atoms: C12_12  and  C13_13 
REMARK       I    between atoms: C14_14  and  C15_15 
REMARK       I    between atoms: C23_25  and  O23_43 
REMARK       I    between atoms: C26_28  and  C27_29 
REMARK       I    between atoms: C28_30  and  C29_31 
REMARK       I    between atoms: C30_32  and  C31_33 
REMARK       I    between atoms: C32_34  and  C33_35 
REMARK       I    between atoms: C34_36  and  C35_37 
ROOT
HETATM    1  C1  VFQ Z 617     -50.064 144.161  12.072  1.00 32.73    -0.018 C 
HETATM    2  C2  VFQ Z 617     -51.074 144.877  12.949  1.00 32.73     0.045 C 
HETATM    3  C3  VFQ Z 617     -50.396 145.808  13.926  1.00 32.73     0.123 C 
HETATM    4  C4  VFQ Z 617     -49.660 146.885  13.162  1.00 32.73     0.066 C 
HETATM    5  C5  VFQ Z 617     -48.802 146.326  12.055  1.00 32.73    -0.074 C 
HETATM    6  C6  VFQ Z 617     -48.981 145.093  11.534  1.00 32.73    -0.048 C 
HETATM    7  C7  VFQ Z 617     -48.158 144.645  10.373  1.00 32.73     0.009 C 
HETATM    8  C8  VFQ Z 617     -46.951 144.073  10.496  1.00 32.73     0.007 C 
HETATM    9  C9  VFQ Z 617     -46.143 143.627   9.353  1.00 32.73    -0.062 C 
HETATM   10  C10 VFQ Z 617     -45.210 142.713   9.625  1.00 32.73     0.007 C 
HETATM   11  C11 VFQ Z 617     -44.304 142.110   8.661  1.00 32.73     0.001 C 
HETATM   12  C12 VFQ Z 617     -43.543 141.170   9.205  1.00 32.73     0.007 C 
HETATM   13  C13 VFQ Z 617     -42.560 140.348   8.495  1.00 32.73    -0.062 C 
HETATM   14  C14 VFQ Z 617     -41.975 139.390   9.218  1.00 32.73     0.007 C 
HETATM   15  C15 VFQ Z 617     -41.013 138.452   8.669  1.00 32.73     0.001 C 
HETATM   16  C16 VFQ Z 617     -50.886 143.451  11.001  1.00 32.73     0.020 C 
HETATM   17  C17 VFQ Z 617     -49.355 143.099  12.895  1.00 32.73     0.020 C 
HETATM   18  C18 VFQ Z 617     -47.782 147.295  11.530  1.00 32.73     0.044 C 
HETATM   19  C19 VFQ Z 617     -46.343 144.189   7.978  1.00 32.73     0.048 C 
HETATM   20  C20 VFQ Z 617     -42.255 140.545   7.040  1.00 32.73     0.048 C 
HETATM   21  O3  VFQ Z 617     -51.376 146.427  14.762  1.00 32.73    -0.395 OA
ATOM     22  H3  VFQ Z 617     -50.949 147.013  15.376  1.00  0.00     0.210 HD
HETATM   23  C21 VFQ Z 617     -34.020 128.015   7.092  1.00 19.07    -0.018 C 
HETATM   24  C22 VFQ Z 617     -33.177 127.310   6.011  1.00 18.69     0.045 C 
HETATM   25  C23 VFQ Z 617     -31.734 127.773   5.838  1.00 19.88     0.123 C 
HETATM   26  C24 VFQ Z 617     -31.538 129.285   6.041  1.00 19.59     0.066 C 
HETATM   27  C25 VFQ Z 617     -32.395 129.969   7.060  1.00 18.61    -0.074 C 
HETATM   28  C26 VFQ Z 617     -33.551 129.416   7.571  1.00 18.29    -0.048 C 
HETATM   29  C27 VFQ Z 617     -34.368 130.126   8.577  1.00 19.20     0.009 C 
HETATM   30  C28 VFQ Z 617     -35.234 131.152   8.379  1.00 18.47     0.007 C 
HETATM   31  C29 VFQ Z 617     -35.891 131.935   9.398  1.00 32.73    -0.062 C 
HETATM   32  C30 VFQ Z 617     -36.904 132.701   8.997  1.00 32.73     0.007 C 
HETATM   33  C31 VFQ Z 617     -37.712 133.550   9.854  1.00 32.73     0.001 C 
HETATM   34  C32 VFQ Z 617     -38.332 134.511   9.187  1.00 32.73     0.007 C 
HETATM   35  C33 VFQ Z 617     -39.219 135.510   9.789  1.00 32.73    -0.062 C 
HETATM   36  C34 VFQ Z 617     -39.792 136.389   8.963  1.00 32.73     0.007 C 
HETATM   37  C35 VFQ Z 617     -40.712 137.411   9.435  1.00 32.73     0.001 C 
HETATM   38  C36 VFQ Z 617     -34.147 127.060   8.294  1.00 17.04     0.020 C 
HETATM   39  C37 VFQ Z 617     -35.392 128.121   6.401  1.00 20.18     0.020 C 
HETATM   40  C38 VFQ Z 617     -31.754 131.271   7.371  1.00 19.93     0.044 C 
HETATM   41  C39 VFQ Z 617     -35.455 131.872  10.830  1.00 32.73     0.048 C 
HETATM   42  C40 VFQ Z 617     -39.458 135.541  11.268  1.00 32.73     0.048 C 
HETATM   43  O23 VFQ Z 617     -31.232 127.373   4.570  1.00 19.51    -0.395 OA
ATOM     44  H23 VFQ Z 617     -30.333 127.662   4.463  1.00  0.00     0.210 HD
ENDROOT
TORSDOF 12
